#------------------------------------------------------------------------------
#$Date: 2017-09-01 18:34:00 +0300 (Fri, 01 Sep 2017) $
#$Revision: 200072 $
#$URL: file:///home/coder/svn-repositories/cod/cif/4/03/26/4032690.cif $
#------------------------------------------------------------------------------
#
# This file is available in the Crystallography Open Database (COD),
# http://www.crystallography.net/
#
# All data on this site have been placed in the public domain by the
# contributors.
#
data_4032690
loop_
_publ_author_name
'Ashwin G. Nair'
'Roy T. McBurney'
'Mark R.D. Gatus'
'D.Barney Walker'
'Mohan Bhadbhade'
'Barbara A. Messerle'
_publ_section_title
;
 Synthesis and catalytic activity of nickel(II) complexes containing NCN
 pincer ligands
;
_journal_name_full               'Journal of Organometallic Chemistry'
_journal_page_first              63
_journal_page_last               70
_journal_paper_doi               10.1016/j.jorganchem.2017.02.025
_journal_volume                  845
_journal_year                    2017
_chemical_formula_moiety         'C11 H12 Cl N6 Ni, F6 P'
_chemical_formula_sum            'C11 H12 Cl F6 N6 Ni P'
_chemical_formula_weight         467.40
_space_group_crystal_system      triclinic
_space_group_IT_number           2
_space_group_name_Hall           '-P 1'
_space_group_name_H-M_alt        'P -1'
_symmetry_space_group_name_Hall  '-P 1'
_symmetry_space_group_name_H-M   'P -1'
_atom_sites_solution_hydrogens   geom
_atom_sites_solution_primary     direct
_cell_angle_alpha                91.69(3)
_cell_angle_beta                 104.13(3)
_cell_angle_gamma                104.66(3)
_cell_formula_units_Z            2
_cell_length_a                   7.9770(16)
_cell_length_b                   8.7170(17)
_cell_length_c                   12.200(2)
_cell_measurement_reflns_used    4992
_cell_measurement_temperature    100(2)
_cell_measurement_theta_max      2.5
_cell_measurement_theta_min      22.5
_cell_volume                     792.1(3)
_computing_cell_refinement       'XDS (Kabsch, 1993)'
_computing_data_collection       'BluIce (McPhillips, 2002)'
_computing_data_reduction        'XDS (Kabsch, 1993)'
_computing_molecular_graphics    'Olex2 (Dolomanov et al., 2009)'
_computing_publication_material  'Olex2 (Dolomanov et al., 2009)'
_computing_structure_refinement  'ShelXL (Sheldrick, 2008)'
_computing_structure_solution    'SIR2004 (Burla et al., 2007)'
_diffrn_ambient_temperature      100.0
_diffrn_measured_fraction_theta_full 0.925
_diffrn_measured_fraction_theta_max 0.905
_diffrn_measurement_device_type  'Bruker APEX-II CCD'
_diffrn_measurement_method       '\w scans'
_diffrn_radiation_monochromator  graphite
_diffrn_radiation_type           Synchrotron
_diffrn_radiation_wavelength     0.71073
_diffrn_reflns_av_R_equivalents  0.0357
_diffrn_reflns_av_unetI/netI     0.0317
_diffrn_reflns_Laue_measured_fraction_full 0.925
_diffrn_reflns_Laue_measured_fraction_max 0.905
_diffrn_reflns_limit_h_max       10
_diffrn_reflns_limit_h_min       -9
_diffrn_reflns_limit_k_max       12
_diffrn_reflns_limit_k_min       -12
_diffrn_reflns_limit_l_max       17
_diffrn_reflns_limit_l_min       -17
_diffrn_reflns_number            16062
_diffrn_reflns_point_group_measured_fraction_full 0.925
_diffrn_reflns_point_group_measured_fraction_max 0.905
_diffrn_reflns_theta_full        25.242
_diffrn_reflns_theta_max         30.056
_diffrn_reflns_theta_min         1.729
_diffrn_source                   'MX2 Beamline Australian Synchrotron'
_diffrn_standards_number         0
_exptl_absorpt_coefficient_mu    1.570
_exptl_absorpt_correction_type   none
_exptl_crystal_colour            'clear orange'
_exptl_crystal_colour_lustre     clear
_exptl_crystal_colour_primary    orange
_exptl_crystal_density_diffrn    1.960
_exptl_crystal_description       plate
_exptl_crystal_F_000             468
_exptl_crystal_size_max          0.015
_exptl_crystal_size_mid          0.01
_exptl_crystal_size_min          0.01
_refine_diff_density_max         0.658
_refine_diff_density_min         -0.855
_refine_diff_density_rms         0.101
_refine_ls_extinction_coef       .
_refine_ls_extinction_method     none
_refine_ls_goodness_of_fit_ref   1.093
_refine_ls_hydrogen_treatment    constr
_refine_ls_matrix_type           full
_refine_ls_number_parameters     235
_refine_ls_number_reflns         4211
_refine_ls_number_restraints     0
_refine_ls_restrained_S_all      1.093
_refine_ls_R_factor_all          0.0395
_refine_ls_R_factor_gt           0.0380
_refine_ls_shift/su_max          0.002
_refine_ls_shift/su_mean         0.000
_refine_ls_structure_factor_coef Fsqd
_refine_ls_weighting_details
'w=1/[\s^2^(Fo^2^)+(0.0525P)^2^+0.9530P] where P=(Fo^2^+2Fc^2^)/3'
_refine_ls_weighting_scheme      calc
_refine_ls_wR_factor_gt          0.0994
_refine_ls_wR_factor_ref         0.1003
_reflns_Friedel_coverage         0.000
_reflns_Friedel_fraction_full    .
_reflns_Friedel_fraction_max     .
_reflns_number_gt                3991
_reflns_number_total             4211
_reflns_threshold_expression     'I > 2\s(I)'
_cod_data_source_file            J-Org-Chem-2017-845-63-70-3.cif
_cod_data_source_block           3
_cod_database_code               4032690
_shelx_res_file
;
    p-1_a.res created by SHELXL-2014/7

TITL p-1_a.res in P-1
REM Old TITL p-1 in P-1
REM SHELXT solution in P-1
REM R1 0.086, Rweak 0.008, Alpha 0.078, Orientation as input
REM Formula found by SHELXT: C14 N3 F6 P Cl Ni
CELL 0.71073 7.977 8.717 12.2 91.688 104.134 104.665
ZERR 2 0.0016 0.0017 0.0024 0.03 0.03 0.03
LATT 1
SFAC C H Cl F N Ni P
UNIT 22 24 2 12 12 2 2

L.S. 20
PLAN  20
TEMP -173.15
BOND $H
LIST 6
fmap 2
ACTA
REM <olex2.extras>
REM <HklSrc "%.\\p-1_a.hkl">
REM </olex2.extras>

WGHT    0.052500    0.953000
FVAR       0.92465
NI01  6    0.467249    0.345310    0.616645    11.00000    0.01644    0.01127 =
         0.00890    0.00093    0.00156    0.00501
CL01  3    0.296556    0.324897    0.440539    11.00000    0.02089    0.01653 =
         0.01272    0.00055   -0.00096    0.00606
P01   7    0.214800    0.080718    0.878724    11.00000    0.01641    0.01627 =
         0.01271   -0.00035    0.00383    0.00389
F02   4    0.369128    0.245171    0.919552    11.00000    0.02421    0.02266 =
         0.02069   -0.00316    0.00862   -0.00253
F01   4    0.217819    0.103851    0.749595    11.00000    0.03776    0.03468 =
         0.01274    0.00096    0.00651    0.00586
F03   4    0.066439    0.176727    0.868358    11.00000    0.02585    0.03562 =
         0.04720   -0.00467    0.00715    0.01746
F05   4    0.365947   -0.013147    0.889111    11.00000    0.03156    0.03283 =
         0.04191    0.00592    0.00658    0.02011
F06   4    0.214263    0.056647    1.008349    11.00000    0.03928    0.03617 =
         0.01624    0.00258    0.01050   -0.00419
F04   4    0.059440   -0.082235    0.838325    11.00000    0.03114    0.02483 =
         0.03132   -0.00833    0.00892   -0.00737
N06   5    0.329501    0.465982    0.669270    11.00000    0.02538    0.01525 =
         0.01360    0.00304    0.00649    0.00866
N03   5    0.691381    0.261617    0.815738    11.00000    0.01671    0.01593 =
         0.01038    0.00188    0.00292    0.00474
N01   5    0.603697    0.215557    0.573530    11.00000    0.01883    0.01396 =
         0.01193    0.00182    0.00339    0.00617
N02   5    0.700191    0.133647    0.645774    11.00000    0.01772    0.01294 =
         0.01209    0.00192    0.00228    0.00549
N05   5    0.395066    0.576767    0.761354    11.00000    0.03041    0.01791 =
         0.01156    0.00191    0.00546    0.01206
N04   5    0.650688    0.490597    0.842774    11.00000    0.02093    0.01604 =
         0.00974    0.00099    0.00330    0.00439
C02   1    0.783697    0.318182    0.927516    11.00000    0.01767    0.02213 =
         0.01049    0.00131    0.00185    0.00489
AFIX  43
H02   2    0.851133    0.265198    0.981146    11.00000   -1.20000
AFIX   0
C11   1    0.654011    0.206437    0.476669    11.00000    0.02286    0.01487 =
         0.01364    0.00094    0.00462    0.00542
AFIX  43
H11   2    0.610783    0.254612    0.410599    11.00000   -1.20000
AFIX   0
C01   1    0.608867    0.366346    0.763623    11.00000    0.01656    0.01604 =
         0.01014    0.00120    0.00206    0.00392
C08   1    0.153774    0.451622    0.636025    11.00000    0.02392    0.02133 =
         0.02341    0.00866    0.00828    0.01138
AFIX  43
H08   2    0.072310    0.380985    0.574094    11.00000   -1.20000
AFIX   0
C05   1    0.668386    0.107457    0.756733    11.00000    0.01892    0.01427 =
         0.01296    0.00344    0.00368    0.00533
AFIX  23
H05A  2    0.754386    0.053098    0.800416    11.00000   -1.20000
H05B  2    0.545187    0.039469    0.748390    11.00000   -1.20000
AFIX   0
C03   1    0.758321    0.464020    0.944744    11.00000    0.02052    0.02219 =
         0.01033    0.00083    0.00228    0.00428
AFIX  43
H03   2    0.804674    0.533956    1.012723    11.00000   -1.20000
AFIX   0
C09   1    0.804334    0.072078    0.595190    11.00000    0.02065    0.01218 =
         0.01681   -0.00157    0.00365    0.00555
AFIX  43
H09   2    0.881473    0.009476    0.628494    11.00000   -1.20000
AFIX   0
C04   1    0.585000    0.629953    0.816480    11.00000    0.03167    0.01519 =
         0.01193    0.00000    0.00355    0.00775
AFIX  23
H04A  2    0.605790    0.698826    0.887127    11.00000   -1.20000
H04B  2    0.649625    0.692459    0.765698    11.00000   -1.20000
AFIX   0
C10   1    0.778204    0.116785    0.486066    11.00000    0.02533    0.01790 =
         0.01539    0.00004    0.00574    0.00739
AFIX  43
H10   2    0.833034    0.091862    0.429445    11.00000   -1.20000
AFIX   0
C07   1    0.106137    0.555294    0.705225    11.00000    0.03261    0.03408 =
         0.02774    0.01265    0.01541    0.02109
AFIX  43
H07   2   -0.010105    0.568949    0.699198    11.00000   -1.20000
AFIX   0
C06   1    0.262369    0.632901    0.783446    11.00000    0.04377    0.02779 =
         0.01836    0.00885    0.01525    0.02445
AFIX  43
H06   2    0.275138    0.711847    0.842502    11.00000   -1.20000
AFIX   0
HKLF 4

REM  p-1_a.res in P-1
REM R1 =  0.0380 for    3991 Fo > 4sig(Fo)  and  0.0395 for all    4211 data
REM    235 parameters refined using      0 restraints

END

WGHT      0.0525      0.9530

REM Highest difference peak  0.658,  deepest hole -0.855,  1-sigma level  0.101
Q1    1   0.1531  0.1199  0.9999  11.00000  0.05    0.66
Q2    1   0.3442  0.3342  0.6167  11.00000  0.05    0.63
Q3    1   0.6001  0.3569  0.6233  11.00000  0.05    0.59
Q4    1   0.4223  0.3436  0.4371  11.00000  0.05    0.57
Q5    1   0.5298  0.3369  0.7059  11.00000  0.05    0.56
Q6    1   0.5089  0.3731  0.6917  11.00000  0.05    0.56
Q7    1   0.7252  0.0820  0.6168  11.00000  0.05    0.46
Q8    1   0.3316 -0.0242  0.9422  11.00000  0.05    0.46
Q9    1   0.7324  0.2778  0.8688  11.00000  0.05    0.44
Q10   1   0.8021  0.0923  0.5394  11.00000  0.05    0.42
Q11   1   0.1222  0.5277  0.6647  11.00000  0.05    0.41
Q12   1   0.4339  0.2830  0.5559  11.00000  0.05    0.41
Q13   1   0.2257  0.1138  0.8127  11.00000  0.05    0.41
Q14   1   0.4625  0.4173  0.5604  11.00000  0.05    0.40
Q15   1   0.6565  0.3150  0.7867  11.00000  0.05    0.40
Q16   1   0.3769  0.3380  0.5122  11.00000  0.05    0.39
Q17   1   0.6033  0.1930  0.5168  11.00000  0.05    0.38
Q18   1   0.7068  0.1526  0.4756  11.00000  0.05    0.38
Q19   1   0.2496  0.0573  0.7830  11.00000  0.05    0.37
Q20   1   0.5000  0.5000  0.5000  10.50000  0.05    0.37
;
_shelx_res_checksum              20177
_shelx_hkl_file
;
   0   0  -1   83.58    4.23
   0   0  -1   80.03    4.06
   0   0   1   81.13    4.15
   0   0   1   83.24    4.23
   0   0  -2   19.46    1.18
   0   0  -2   20.64    1.27
   0   0   2   19.29    1.18
   0   0   2   19.71    1.18
   0   0  -3  808.97   40.61
   0   0  -3  810.66   40.69
   0   0   3  811.09   40.69
   0   0   3  825.89   41.45
   0   0  -4 3431.13  171.56
   0   0  -4 3273.78  163.69
   0   0   4 3383.76  169.19
   0   0   4 3116.44  155.82
   0   0  -5 1251.99   62.85
   0   0  -5 1176.70   59.05
   0   0   5 1230.00   61.75
   0   0   5 1184.31   59.38
   0   0  -6  731.65   36.97
   0   0  -6  714.73   36.04
   0   0   6  717.69   36.29
   0   0   6  727.25   36.71
   0   0  -7    1.18    2.03
   0   0  -7    5.58    2.45
   0   0   7    2.28    2.37
   0   0   7    1.78    2.11
   0   0  -8 1454.17   73.09
   0   0  -8 1465.17   73.77
   0   0   8 1515.92   76.30
   0   0   8 1453.32   73.09
   0   0  -9    2.28    2.88
   0   0  -9    1.95    3.05
   0   0   9    3.72    2.79
   0   0   9    8.37    3.30
   0   0 -10   26.22    3.38
   0   0 -10   26.90    2.96
   0   0  10   28.00    3.55
   0   0  10   28.25    3.05
   0   0 -11   40.77    3.81
   0   0 -11   44.24    3.98
   0   0  11   41.70    4.15
   0   0  11   42.80    4.06
   0   0 -12   70.72    5.33
   0   0 -12   55.58    4.82
   0   0  12   65.05    5.50
   0   0  12   61.75    5.16
   0   0 -13  265.29   14.47
   0   0 -13  242.36   13.28
   0   0  13  259.62   14.30
   0   0  13  245.15   13.45
   0   0 -14   75.97    6.34
   0   0 -14   70.55    6.01
   0   0  14   64.46    5.75
   0   0  14   68.01    5.84
   0   0 -15   50.33    5.75
   0   0 -15   46.53    5.33
   0   0  15   40.52    5.16
   0   0  15   29.27    4.91
   0   0 -16  631.83   32.48
   0   0 -16  687.49   35.28
   0   0  16  646.64   33.16
   0   0  16  630.90   32.48
   0  -1  16   74.53    6.26
   0  -1  16   78.42    6.26
   0   1 -16   79.52    6.34
   0   1 -16   82.31    6.34
   0  -1  15  462.98   24.11
   0  -1  15  449.70   23.43
   0   1 -15  469.41   24.36
   0   1 -15  469.83   24.45
   0  -1  14   -0.34    4.65
   0  -1  14    5.16    3.30
   0   1 -14    1.52    4.57
   0   1 -14    2.28    3.47
   0  -1  13  551.13   28.34
   0  -1  13  580.82   29.95
   0   1 -13  592.07   30.45
   0   1 -13  538.44   27.66
   0  -1  12  533.96   27.49
   0  -1  12  560.43   28.93
   0   1 -12  525.24   27.07
   0   1 -12  539.62   27.83
   0  -1  11  298.87   15.82
   0  -1  11  321.12   17.17
   0   1 -11  350.64   18.61
   0   1 -11  320.95   16.92
   0  -1  10  599.77   30.79
   0  -1  10  558.07   28.59
   0   1 -10  598.42   30.71
   0   1 -10  580.65   29.69
   0  -1   9  287.37   15.31
   0  -1   9  288.55   15.40
   0   1  -9  296.33   15.73
   0   1  -9  289.65   15.40
   0  -1   8  565.17   28.85
   0  -1   8  585.05   29.78
   0   1  -8  600.87   30.62
   0   1  -8  587.25   30.03
   0  -1   7 6647.39  332.28
   0  -1   7 7103.35  354.96
   0   1  -7 7314.83  365.53
   0   1  -7 7054.29  352.59
   0  -1   6 1310.36   65.81
   0  -1   6 1236.76   62.18
   0   1  -6 1257.91   63.28
   0   1  -6 1345.89   67.59
   0  -1   5    2.28    1.52
   0  -1   5    2.71    1.35
   0   1  -5    2.88    1.44
   0   1  -5    1.69    1.52
   0  -1   4  783.09   39.34
   0  -1   4  818.11   41.11
   0   1  -4  776.49   39.08
   0   1  -4  748.74   37.64
   0  -1   2  842.47   42.21
   0  -1   2  828.43   41.54
   0   1  -2  826.57   41.37
   0   1  -2  790.87   39.59
   0  -1   1  261.31   13.11
   0  -1   1  274.85   13.79
   0   1  -1  274.42   13.79
   0   1  -1  276.71   13.96
   0  -1   0   44.07    2.28
   0  -1   0   42.64    2.20
   0   1   0   46.44    2.37
   0   1   0   45.17    2.37
   0  -1  -2  439.21   22.08
   0  -1  -2  481.42   24.19
   0   1   2  495.30   24.87
   0   1   2  448.09   22.50
   0  -1  -3   63.36    3.47
   0  -1  -3   65.39    3.64
   0   1   3   62.18    3.47
   0   1   3   59.98    3.30
   0  -1  -4 1264.68   63.36
   0  -1  -4 1292.59   64.80
   0   1   4 1269.75   63.70
   0   1   4 1301.90   65.31
   0  -1  -5 3586.78  179.34
   0  -1  -5 3596.93  179.85
   0   1   5 3528.41  176.46
   0   1   5 3616.39  180.86
   0  -1  -6 2266.27  113.53
   0  -1  -6 2266.27  113.53
   0   1   6 2273.88  113.95
   0   1   6 2249.35  112.68
   0  -1  -7  771.24   39.00
   0  -1  -7  753.14   38.07
   0   1   7  791.80   40.01
   0   1   7  769.38   38.91
   0  -1  -8 1367.88   68.77
   0  -1  -8 1331.51   67.08
   0   1   8 1389.88   69.96
   0   1   8 1289.21   64.88
   0  -1  -9  843.91   42.89
   0  -1  -9  843.57   42.72
   0   1   9  876.39   44.41
   0   1   9  848.48   43.06
   0  -1 -10  121.14    7.36
   0  -1 -10  114.12    6.85
   0   1  10  113.95    6.85
   0   1  10  116.32    7.36
   0  -1 -11   78.93    5.41
   0  -1 -11   84.09    5.92
   0   1  11   85.52    5.84
   0   1  11   96.52    6.43
   0  -1 -12   37.05    4.40
   0  -1 -12   32.57    3.89
   0   1  12   40.18    4.48
   0   1  12   42.47    4.82
   0  -1 -13  317.14   16.75
   0  -1 -13  296.76   15.65
   0   1  13  301.07   15.99
   0   1  13  310.38   16.58
   0  -1 -14   -1.69    4.31
   0  -1 -14    1.18    4.31
   0   1  14   -1.44    4.31
   0   1  14    4.31    4.15
   0  -1 -15   23.94    3.64
   0  -1 -15   29.61    5.58
   0   1  15   22.76    5.50
   0   1  15   28.76    4.15
   0  -1 -16   28.76    5.41
   0  -1 -16   22.42    5.08
   0   1  16   19.96    5.16
   0   1  16   22.42    4.91
   0  -2  16   30.88    4.74
   0  -2  16   30.03    5.50
   0   2 -16   38.57    5.75
   0   2 -16   36.97    5.08
   0  -2  15   21.57    5.41
   0  -2  15   18.53    3.47
   0   2 -15   20.73    5.33
   0   2 -15   21.74    3.81
   0  -2  14   76.64    5.16
   0  -2  14   89.25    6.34
   0   2 -14   82.99    5.50
   0   2 -14   92.80    6.34
   0  -2  13   34.94    4.82
   0  -2  13   33.33    3.64
   0   2 -13   28.93    3.21
   0   2 -13   38.83    4.99
   0  -2  12  536.58   27.83
   0  -2  12  488.28   25.12
   0   2 -12  502.06   25.80
   0   2 -12  533.62   27.66
   0  -2  11  123.59    7.36
   0  -2  11  113.69    7.36
   0   2 -11  122.91    7.78
   0   2 -11  124.27    7.44
   0  -2  10 2025.18  101.68
   0  -2  10 2157.14  108.36
   0   2 -10 2083.55  104.73
   0   2 -10 2079.32  104.39
   0  -2   9  188.22   10.32
   0  -2   9  170.80    9.56
   0   2  -9  186.02   10.32
   0   2  -9  171.22    9.56
   0  -2   8 1499.00   75.29
   0  -2   8 1472.78   74.10
   0   2  -8 1539.61   77.49
   0   2  -8 1493.93   75.03
   0  -2   7  225.27   11.76
   0  -2   7  243.21   12.94
   0   2  -7  258.10   13.70
   0   2  -7  239.65   12.52
   0  -2   6 5919.88  295.91
   0  -2   6 5655.95  282.63
   0   2  -6 5520.60  275.86
   0   2  -6 5921.57  295.99
   0  -2   5 2548.81  127.57
   0  -2   5 2365.25  118.43
   0   2  -5 2468.45  123.51
   0   2  -5 2314.49  115.89
   0  -2   4  681.57   34.26
   0  -2   4  657.38   33.16
   0   2  -4  621.09   31.30
   0   2  -4  706.53   35.53
   0  -2   3 2988.70  149.48
   0  -2   3 3402.37  170.03
   0   2  -3 3393.91  169.61
   0   2  -3 2889.73  144.49
   0  -2   1  171.22    8.71
   0  -2   1  151.00    7.70
   0   2  -1  173.33    8.80
   0   2  -1  144.40    7.36
   0  -2   0  162.00    8.21
   0  -2   0  167.41    8.46
   0   2   0  164.20    8.29
   0   2   0  163.69    8.29
   0  -2  -2    5.08    0.76
   0  -2  -2    5.08    0.85
   0   2   2    4.15    0.85
   0   2   2    3.38    0.76
   0  -2  -3  218.17   11.17
   0  -2  -3  211.40   10.83
   0   2   3  232.38   11.84
   0   2   3  210.47   10.83
   0  -2  -4  151.76    7.95
   0  -2  -4  129.77    6.85
   0   2   4  150.41    7.87
   0   2   4  130.02    6.94
   0  -2  -5  269.18   13.87
   0  -2  -5  264.02   13.62
   0   2   5  260.38   13.45
   0   2   5  291.17   14.97
   0  -2  -6  587.93   29.86
   0  -2  -6  572.62   29.10
   0   2   6  584.21   29.61
   0   2   6  573.29   29.18
   0  -2  -7  127.23    7.28
   0  -2  -7  121.98    6.85
   0   2   7  138.23    7.61
   0   2   7  123.68    7.02
   0  -2  -8   49.66    3.89
   0  -2  -8   47.20    4.23
   0   2   8   44.58    3.98
   0   2   8   46.19    3.81
   0  -2  -9   52.36    4.31
   0  -2  -9   56.85    4.15
   0   2   9   61.50    4.91
   0   2   9   53.80    3.98
   0  -2 -10 1538.76   77.40
   0  -2 -10 1521.00   76.64
   0   2  10 1565.83   78.84
   0   2  10 1499.00   75.54
   0  -2 -11 1204.62   60.74
   0  -2 -11 1218.15   61.58
   0   2  11 1241.84   62.60
   0   2  11 1205.46   60.99
   0  -2 -12  865.40   43.90
   0  -2 -12  803.98   40.94
   0   2  12  842.98   42.89
   0   2  12  847.63   43.06
   0  -2 -13  264.78   14.38
   0  -2 -13  245.49   13.45
   0   2  13  253.61   13.79
   0   2  13  244.22   13.45
   0  -2 -14  269.85   14.72
   0  -2 -14  253.95   14.21
   0   2  14  246.76   13.62
   0   2  14  249.30   14.04
   0  -2 -15    6.60    4.23
   0  -2 -15    4.15    4.74
   0   2  15   -2.03    4.15
   0   2  15   11.67    4.74
   0  -2 -16  250.57   14.30
   0   2  16  266.81   15.23
   0  -3  16  318.58   17.60
   0  -3  16  315.62   17.00
   0   3 -16  311.47   16.83
   0   3 -16  311.90   17.34
   0  -3  15  145.50    8.88
   0  -3  15  145.67    9.47
   0   3 -15  140.09    9.31
   0   3 -15  149.39    9.14
   0  -3  14   -0.25    4.40
   0  -3  14   -2.11    3.64
   0   3 -14    1.95    3.89
   0   3 -14    9.47    4.65
   0  -3  13  517.63   26.65
   0  -3  13  537.76   27.92
   0   3 -13  537.76   27.92
   0   3 -13  526.85   27.15
   0  -3  12  259.53   14.30
   0  -3  12  267.06   14.21
   0   3 -12  265.37   14.21
   0   3 -12  248.37   13.70
   0  -3  11  105.66    6.51
   0  -3  11  104.14    6.51
   0   3 -11  104.47    6.34
   0   3 -11   99.48    6.43
   0  -3  10   61.58    4.65
   0  -3  10   61.16    4.99
   0   3 -10   54.56    4.40
   0   3 -10   55.16    4.82
   0  -3   9  965.22   48.90
   0  -3   9  962.68   48.64
   0   3  -9  947.45   47.88
   0   3  -9  950.84   48.22
   0  -3   8  225.61   12.27
   0  -3   8  239.82   12.77
   0   3  -8  250.48   13.28
   0   3  -8  234.16   12.77
   0  -3   7  922.92   46.53
   0  -3   7  923.77   46.78
   0   3  -7  900.93   45.43
   0   3  -7  889.08   45.00
   0  -3   6 1180.93   59.38
   0  -3   6 1182.62   59.55
   0   3  -6 1211.38   60.99
   0   3  -6 1224.92   61.50
   0  -3   5 3215.41  160.81
   0  -3   5 2984.47  149.39
   0   3  -5 2985.32  149.39
   0   3  -5 3168.04  158.44
   0  -3   4 1164.86   58.37
   0  -3   4 1119.18   56.17
   0   3  -4 1153.02   57.86
   0   3  -4 1112.41   55.75
   0  -3   3   19.54    1.69
   0  -3   3   17.85    1.35
   0   3  -3   18.61    1.61
   0   3  -3   17.60    1.35
   0  -3   2 3240.79  162.00
   0  -3   1  977.06   48.98
   0  -3   1 1059.96   53.04
   0   3  -1 1067.58   53.46
   0   3  -1 1035.43   51.86
   0  -3   0 1938.05   96.86
   0  -3   0 1755.32   87.81
   0   3   0 1848.38   92.38
   0   3   0 1877.98   93.90
   0  -3  -1  170.63    8.71
   0  -3  -1  161.15    8.29
   0   3   1  146.26    7.53
   0   3   1  147.53    7.61
   0  -3  -3  353.43   17.93
   0  -3  -3  361.98   18.36
   0   3   3  339.14   17.26
   0   3   3  304.03   15.40
   0  -3  -4  220.03   11.34
   0  -3  -4  241.26   12.52
   0   3   4  216.81   11.34
   0   3   4  204.21   10.49
   0  -3  -5 1455.86   73.00
   0  -3  -5 1433.02   71.90
   0   3   5 1484.62   74.36
   0   3   5 1395.80   70.04
   0  -3  -6 1251.14   62.85
   0  -3  -6 1248.61   62.85
   0   3   6 1266.37   63.70
   0   3   6 1263.83   63.45
   0  -3  -7 1125.10   56.76
   0  -3  -7 1122.56   56.51
   0   3   7 1125.10   56.76
   0   3   7 1158.94   58.37
   0  -3  -8    5.33    2.37
   0  -3  -8    6.94    3.38
   0   3   8   11.34    2.45
   0   3   8    7.36    3.47
   0  -3  -9  420.60   21.99
   0  -3  -9  444.20   22.84
   0   3   9  393.78   20.30
   0   3   9  426.01   22.25
   0  -3 -10  790.87   40.44
   0  -3 -10  815.99   41.28
   0   3  10  829.61   42.04
   0   3  10  752.55   38.49
   0  -3 -11  532.60   27.24
   0  -3 -11  492.51   25.46
   0   3  11  487.09   25.29
   0   3  11  520.59   26.65
   0  -3 -12  471.70   24.70
   0  -3 -12  512.30   26.31
   0   3  12  487.60   25.12
   0   3  12  470.93   24.62
   0  -3 -13  139.75    8.29
   0  -3 -13  147.19    9.39
   0   3  13  133.15    8.63
   0   3  13  134.25    7.95
   0  -3 -14  315.70   16.75
   0  -3 -14  299.46   16.33
   0   3  14  294.73   16.16
   0   3  14  286.27   15.31
   0  -3 -15  332.62   18.10
   0  -3 -15  328.73   17.51
   0   3  15  325.01   17.60
   0   3  15  311.98   16.66
   0  -4  16  174.18   10.15
   0   4 -16  191.77   11.00
   0  -4  15  265.12   14.89
   0  -4  15  294.13   15.90
   0   4 -15  293.12   15.90
   0   4 -15  268.42   15.14
   0  -4  14  193.72   11.08
   0  -4  14  210.47   11.59
   0   4 -14  218.08   12.01
   0   4 -14  196.26   11.34
   0  -4  13  436.08   22.50
   0  -4  13  401.74   21.32
   0   4 -13  407.57   21.57
   0   4 -13  422.97   21.91
   0  -4  12 1348.43   67.93
   0  -4  12 1302.75   65.81
   0   4 -12 1344.20   67.93
   0   4 -12 1365.35   68.77
   0  -4  11  697.05   35.78
   0  -4  11  758.30   38.49
   0   4 -11  723.02   37.05
   0   4 -11  769.21   39.08
   0  -4  10  393.78   20.73
   0  -4  10  401.23   20.81
   0   4 -10  408.84   21.15
   0   4 -10  397.76   20.98
   0  -4   9    6.85    2.62
   0  -4   9    9.98    2.88
   0   4  -9    9.39    2.79
   0   4  -9    2.71    2.96
   0  -4   8 1488.01   74.78
   0  -4   8 1593.75   80.20
   0   4  -8 1532.00   77.15
   0   4  -8 1583.60   79.60
   0  -4   7 3039.46  152.44
   0  -4   7 3140.97  157.18
   0   4  -7 3182.42  159.21
   0   4  -7 2927.80  146.86
   0  -4   6   28.76    2.28
   0  -4   6   28.76    3.21
   0   4  -6   28.00    2.28
   0   4  -6   32.65    3.13
   0  -4   5  743.83   37.39
   0  -4   5  752.63   38.07
   0   4  -5  761.51   38.32
   0   4  -5  766.93   38.74
   0  -4   4  225.02   11.84
   0  -4   4  207.00   10.66
   0   4  -4  196.17   10.07
   0   4  -4  203.96   10.74
   0  -4   3  160.98    8.54
   0  -4   3  189.91    9.73
   0   4  -3  179.85    9.31
   0   4  -3  159.21    8.37
   0  -4   2 1303.59   65.31
   0  -4   2 1530.30   76.56
   0   4  -2 1319.66   66.07
   0   4  -2 1505.77   75.37
   0  -4   1  717.19   35.95
   0  -4   1  737.74   37.05
   0   4  -1  793.41   39.84
   0   4  -1  708.98   35.53
   0  -4   0 1707.95   85.44
   0  -4   0 1622.51   81.13
   0   4   0 1636.89   81.89
   0   4   0 1626.74   81.38
   0  -4  -1 3074.14  153.62
   0  -4  -1 2973.48  148.63
   0   4   1 3042.00  152.10
   0   4   1 2838.13  141.86
   0  -4  -2  117.33    6.18
   0  -4  -2  103.63    5.50
   0   4   2   96.61    5.24
   0   4   2  112.00    5.84
   0   4   3  293.96   14.97
   0   4   3  246.59   12.69
   0  -4  -4  225.19   11.84
   0  -4  -4  237.54   12.27
   0   4   4  232.55   11.93
   0   4   4  206.83   10.91
   0  -4  -5 1076.88   54.22
   0  -4  -5 1116.64   56.09
   0   4   5 1073.50   53.89
   0   4   5 1061.65   53.46
   0  -4  -6 1051.50   52.87
   0  -4  -6 1142.02   57.52
   0   4   6 1039.66   52.45
   0   4   6 1009.21   50.76
   0  -4  -7 1247.76   62.94
   0  -4  -7 1099.72   55.24
   0   4   7 1131.02   56.85
   0   4   7 1167.40   58.96
   0  -4  -8 1032.05   51.94
   0  -4  -8 1159.78   58.62
   0   4   8 1119.18   56.68
   0   4   8  979.60   49.32
   0  -4  -9  224.43   11.84
   0  -4  -9  237.37   13.03
   0   4   9  224.85   11.84
   0   4   9  239.74   13.28
   0  -4 -10  185.09    9.98
   0  -4 -10  191.01   10.83
   0   4  10  183.32    9.90
   0   4  10  210.13   11.84
   0  -4 -11  942.38   47.54
   0  -4 -11  969.45   49.32
   0   4  11  928.84   46.87
   0   4  11  942.38   47.96
   0  -4 -12   67.00    5.84
   0  -4 -12   69.37    4.65
   0   4  12   63.02    4.40
   0   4  12   67.25    5.75
   0  -4 -13   -3.30    5.16
   0  -4 -13    2.71    2.79
   0   4  13    0.68    2.71
   0   4  13    3.13    4.91
   0  -4 -14   17.76    3.72
   0  -4 -14   15.99    5.33
   0   4  14   24.36    3.89
   0   4  14   14.21    5.33
   0  -4 -15   52.28    6.34
   0   4  15   50.67    6.94
   0  -5  15   37.22    6.09
   0  -5  15   32.91    4.15
   0   5 -15   39.67    6.26
   0   5 -15   29.86    4.06
   0  -5  14  347.51   18.10
   0  -5  14  344.55   18.44
   0   5 -14  363.75   18.95
   0   5 -14  365.36   19.54
   0  -5  13   33.08    5.41
   0  -5  13   34.43    3.89
   0   5 -13   38.91    5.41
   0   5 -13   33.33    3.98
   0  -5  12  407.74   21.57
   0  -5  12  397.34   20.47
   0   5 -12  417.98   21.57
   0   5 -12  415.95   22.08
   0  -5  11  351.06   18.70
   0  -5  11  350.98   18.19
   0   5 -11  369.93   19.71
   0   5 -11  374.16   19.46
   0  -5  10   49.74    4.91
   0  -5  10   52.45    3.89
   0   5 -10   55.41    4.06
   0   5 -10   43.23    4.91
   0  -5   9  443.02   22.67
   0  -5   9  460.19   23.94
   0   5  -9  433.12   22.16
   0   5  -9  483.12   25.12
   0  -5   8  146.69    8.63
   0  -5   8  131.71    7.19
   0   5  -8  123.00    6.85
   0   5  -8  140.85    8.37
   0  -5   7 1740.10   87.55
   0  -5   7 1638.58   82.14
   0   5  -7 1679.19   84.17
   0   5  -7 1737.56   87.39
   0  -5   6  663.72   33.84
   0  -5   6  650.78   32.91
   0   5  -6  626.33   31.98
   0   5  -6  618.80   31.30
   0  -5   5  595.71   30.03
   0  -5   5  578.20   29.52
   0   5  -5  595.63   30.37
   0   5  -5  561.37   28.34
   0  -5   4  379.91   19.29
   0  -5   4  372.21   19.20
   0   5  -4  397.08   20.13
   0   5  -4  369.68   19.03
   0  -5   3    4.15    1.10
   0  -5   3    3.21    1.61
   0   5  -3    3.05    1.61
   0   5  -3    3.38    1.18
   0  -5   2  901.77   45.34
   0  -5   2  958.45   48.05
   0   5  -2  917.84   46.10
   0   5  -2  998.21   50.08
   0  -5   1  185.51    9.47
   0  -5   1  210.81   11.00
   0   5  -1  182.47    9.39
   0   5  -1  211.82   11.00
   0  -5   0 1653.81   82.82
   0  -5   0 1658.89   83.07
   0   5   0 1669.04   83.49
   0   5   0 1675.81   83.92
   0  -5  -1   60.57    3.47
   0  -5  -1   67.34    3.89
   0   5   1   64.38    3.55
   0   5   1   64.88    3.81
   0  -5  -2  754.58   37.98
   0  -5  -2  825.72   41.45
   0   5   2  706.27   35.53
   0   5   2  741.38   37.22
   0  -5  -3   41.87    2.88
   0  -5  -3   45.00    2.79
   0   5   3   39.84    2.71
   0   5   3   49.74    2.96
   0  -5  -4   27.83    2.62
   0   5   4   23.52    2.45
   0  -5  -5  268.25   14.30
   0  -5  -5  271.55   14.04
   0   5   5  258.60   13.37
   0   5   5  242.70   13.03
   0  -5  -6  825.89   41.62
   0  -5  -6  700.61   35.70
   0   5   6  736.14   37.14
   0   5   6  699.68   35.70
   0  -5  -7  382.79   20.05
   0  -5  -7  389.22   19.88
   0   5   7  372.72   19.03
   0   5   7  345.90   18.19
   0  -5  -8  359.86   19.12
   0  -5  -8  333.47   17.09
   0   5   8  304.28   16.33
   0   5   8  336.60   17.26
   0  -5  -9  379.40   19.96
   0  -5  -9  348.78   17.93
   0   5   9  373.65   19.71
   0   5   9  336.94   17.34
   0  -5 -10  826.74   42.13
   0  -5 -10  795.69   40.18
   0   5  10  744.34   37.56
   0   5  10  804.83   41.03
   0  -5 -11  443.10   23.09
   0  -5 -11  373.23   19.20
   0   5  11  404.02   21.23
   0   5  11  375.77   19.37
   0  -5 -12  253.70   13.37
   0  -5 -12  299.21   16.33
   0   5  12  248.62   13.03
   0   5  12  271.80   15.14
   0  -5 -13   27.32    5.50
   0  -5 -13   23.35    3.13
   0   5  13   23.69    4.91
   0   5  13   20.22    2.96
   0  -5 -14  185.94   10.24
   0  -5 -14  218.42   13.20
   0   5  14  203.45   12.44
   0   5  14  186.53   10.32
   0  -6  15    1.44    3.47
   0   6 -15    2.96    3.47
   0  -6  14   63.45    6.77
   0  -6  14   48.39    4.15
   0   6 -14   61.67    4.65
   0   6 -14   65.64    6.68
   0  -6  13  476.01   25.12
   0  -6  13  399.03   20.56
   0   6 -13  453.85   24.02
   0   6 -13  424.24   21.74
   0  -6  12  108.36    7.87
   0  -6  12   84.76    5.41
   0   6 -12   86.37    5.41
   0   6 -12   85.52    7.11
   0  -6  11    1.78    2.45
   0  -6  11    1.69    4.40
   0   6 -11   -3.30    4.74
   0   6 -11   -0.93    2.45
   0  -6  10   34.94    4.65
   0  -6  10   29.86    2.88
   0   6 -10   22.33    4.48
   0   6 -10   24.19    2.71
   0  -6   9   30.28    2.71
   0  -6   9   33.50    4.57
   0   6  -9   35.78    2.96
   0   6  -9   37.05    4.57
   0  -6   8  209.29   11.00
   0  -6   8  231.28   12.69
   0   6  -8  220.54   11.59
   0   6  -8  220.45   12.27
   0  -6   7  127.57    7.02
   0  -6   7  129.68    7.78
   0   6  -7  128.50    7.78
   0   6  -7  127.57    7.02
   0  -6   6    9.81    3.30
   0  -6   6    4.99    1.95
   0   6  -6    1.61    3.05
   0   6  -6    7.19    2.03
   0  -6   5  249.38   13.37
   0  -6   5  241.43   12.52
   0   6  -5  256.23   13.20
   0   6  -5  233.23   12.60
   0  -6   4  198.96   10.32
   0  -6   4  187.21   10.15
   0   6  -4  213.01   11.00
   0   6  -4  193.47   10.49
   0  -6   3    2.28    1.10
   0  -6   3   -1.02    1.95
   0   6  -3    1.35    1.18
   0   6  -3    2.79    2.03
   0  -6   2 1149.63   57.61
   0   6  -2 1162.32   58.29
   0  -6   0  136.79    7.28
   0   6   0  158.19    8.37
   0  -6  -1 1702.88   85.27
   0  -6  -1 1647.89   82.56
   0   6   1 1720.64   86.20
   0   6   1 1595.44   79.94
   0  -6  -2    3.38    1.44
   0  -6  -2    5.24    1.86
   0   6   2    2.62    1.35
   0   6   2    7.70    1.95
   0  -6  -3  820.81   41.45
   0  -6  -3  884.01   44.41
   0   6   3  820.65   41.28
   0   6   3  774.03   39.08
   0  -6  -4 1345.89   67.42
   0  -6  -4 1254.53   63.19
   0   6   4 1232.53   62.18
   0   6   4 1194.47   59.89
   0  -6  -5  533.53   26.90
   0  -6  -5  574.73   29.44
   0   6   5  507.99   26.14
   0   6   5  499.53   25.29
   0  -6  -6  135.60    8.04
   0  -6  -6  165.04    8.88
   0   6   6  140.76    7.61
   0   6   6  130.11    7.87
   0  -6  -7  466.11   23.77
   0  -6  -7  419.59   21.83
   0   6   7  395.22   20.56
   0   6   7  385.49   19.71
   0  -6  -8   76.47    4.82
   0  -6  -8   72.58    5.84
   0   6   8   67.42    4.48
   0   6   8   69.79    5.75
   0  -6  -9  244.22   12.77
   0  -6  -9  225.53   12.69
   0   6   9  194.99   11.17
   0   6   9  219.52   11.59
   0  -6 -10    5.67    2.71
   0  -6 -10    1.95    4.99
   0   6  10    0.42    4.57
   0   6  10    5.50    2.88
   0  -6 -11  264.86   14.72
   0  -6 -11  268.08   14.04
   0   6  11  249.81   13.96
   0   6  11  246.68   13.03
   0  -6 -12  374.24   19.79
   0  -6 -12  330.93   17.17
   0   6  12  362.48   19.37
   0   6  12  316.55   16.41
   0  -6 -13  100.50    6.18
   0  -6 -13   89.75    8.12
   0   6  13   81.97    7.61
   0   6  13   93.81    6.09
   0   7 -14  137.89    9.56
   0   7 -14  128.67    7.53
   0  -7  13  146.60    8.21
   0  -7  13  166.73   10.91
   0   7 -13  151.08    8.46
   0   7 -13  172.66   11.17
   0  -7  12  679.37   35.11
   0  -7  12  632.00   31.98
   0   7 -12  706.27   36.46
   0   7 -12  651.80   32.99
   0  -7  11   56.17    6.26
   0  -7  11   64.21    4.48
   0   7 -11   60.99    4.40
   0   7 -11   69.11    6.60
   0  -7  10   38.74    3.38
   0  -7  10   45.85    4.91
   0   7 -10   39.34    3.30
   0   7 -10   44.33    4.91
   0  -7   9   46.53    3.72
   0  -7   9   36.38    4.99
   0   7  -9   48.22    3.72
   0   7  -9   44.16    5.08
   0  -7   8  539.96   27.83
   0  -7   8  589.20   29.86
   0   7  -8  550.37   28.34
   0   7  -8  617.79   31.30
   0  -7   7   60.40    3.98
   0  -7   7   47.46    4.48
   0   7  -7   48.30    4.57
   0   7  -7   59.22    3.89
   0  -7   6  325.69   16.66
   0  -7   6  320.36   17.00
   0   7  -6  318.33   16.33
   0   7  -6  308.18   16.50
   0  -7   5    4.74    1.69
   0  -7   5    2.96    3.13
   0   7  -5    2.79    1.78
   0   7  -5    2.79    3.21
   0  -7   4  270.87   14.30
   0  -7   4  262.66   13.45
   0   7  -4  270.87   13.87
   0   7  -4  272.31   14.30
   0  -7   3    4.15    1.35
   0  -7   3    1.95    2.11
   0  -7   2   -0.76    1.86
   0  -7   2   -0.08    1.44
   0   7  -2    2.88    1.52
   0   7  -2    4.06    1.95
   0  -7   1  108.45    5.92
   0  -7   1  109.97    6.18
   0   7  -1  107.27    6.09
   0   7  -1   95.84    5.33
   0  -7   0 2207.05  110.56
   0  -7   0 1975.27   98.97
   0   7   0 2148.69  107.60
   0   7   0 2241.74  112.34
   0  -7  -1   91.11    5.33
   0  -7  -1   84.85    4.82
   0   7   1   79.10    4.82
   0   7   1   74.78    4.40
   0  -7  -2  251.16   13.11
   0  -7  -2  257.93   13.28
   0   7   2  232.46   12.01
   0   7   2  237.62   12.44
   0  -7  -3  108.20    6.18
   0  -7  -3   95.25    5.24
   0   7   3   96.44    5.33
   0   7   3   93.14    5.50
   0  -7  -4 1012.59   51.09
   0  -7  -4  982.14   49.32
   0   7   4  917.00   46.10
   0   7   4  979.60   49.49
   0  -7  -5 1897.44   95.00
   0  -7  -5 2025.18  101.68
   0   7   5 1853.45   92.80
   0   7   5 1859.37   93.39
   0  -7  -6  734.44   36.97
   0  -7  -6  726.92   37.05
   0   7   6  691.30   34.85
   0   7   6  679.12   34.68
   0  -7  -7   89.42    6.26
   0  -7  -7   98.47    5.50
   0   7   7   92.04    5.33
   0   7   7   91.02    6.09
   0  -7  -8   76.47    6.18
   0  -7  -8   92.12    5.67
   0   7   8   69.71    6.01
   0   7   8   77.91    4.91
   0  -7  -9  179.93    9.64
   0  -7  -9  167.92    9.98
   0   7   9  166.65    9.73
   0   7   9  173.93    9.39
   0  -7 -10  489.63   25.63
   0  -7 -10  533.11   27.15
   0   7  10  453.59   23.69
   0   7  10  425.93   21.83
   0  -7 -11  170.29   10.66
   0  -7 -11  182.64   10.07
   0   7  11  162.17   10.15
   0   7  11  158.28    8.88
   0  -7 -12   76.73    6.18
   0  -7 -12   80.03    5.41
   0   7  12   73.60    5.24
   0   7  12   62.68    6.51
   0  -8  13   14.97    4.99
   0  -8  13   22.67    3.72
   0   8 -13   21.99    3.38
   0   8 -13   23.35    6.01
   0  -8  12   40.01    3.81
   0  -8  12   34.85    5.58
   0   8 -12   33.67    3.55
   0   8 -12   38.07    4.99
   0  -8  11  163.27    9.73
   0  -8  11  177.06    9.73
   0   8 -11  181.71    9.98
   0   8 -11  186.70   10.83
   0  -8  10    0.76    4.91
   0  -8  10    3.64    2.88
   0   8 -10   -5.16    2.79
   0   8 -10    4.57    4.82
   0  -8   9    0.85    4.65
   0  -8   9    0.68    2.62
   0   8  -9   -6.18    4.23
   0   8  -9    1.61    2.71
   0  -8   8   93.73    5.41
   0  -8   8   92.38    6.51
   0   8  -8   98.47    6.85
   0   8  -8   98.21    5.75
   0  -8   7 2653.71  132.81
   0  -8   7 2483.68  124.61
   0   8  -7 2760.30  138.06
   0   8  -7 2664.71  133.66
   0  -8   6  553.41   28.00
   0  -8   6  604.93   31.05
   0   8  -6  602.56   30.96
   0   8  -6  573.38   29.02
   0  -8   5   46.61    4.31
   0  -8   5   48.47    3.13
   0   8  -5   55.83    4.74
   0   8  -5   50.25    3.30
   0  -8   4  162.93    8.54
   0  -8   4  167.16    9.47
   0   8  -4  168.26    8.88
   0   8  -4  170.20    9.64
   0  -8   3  254.80   13.45
   0  -8   3  279.75   14.30
   0   8  -3  283.14   14.55
   0   8  -3  275.78   14.47
   0  -8   2  768.70   38.83
   0  -8   2  822.84   41.37
   0   8  -2  783.00   39.42
   0   8  -2  775.81   39.25
   0  -8   1 1004.13   50.50
   0  -8   1  941.53   47.46
   0   8  -1 1136.94   57.19
   0   8  -1  965.22   48.64
   0  -8   0   76.05    4.91
   0  -8   0   66.15    4.15
   0   8   0   69.96    4.57
   0   8   0   71.14    4.57
   0  -8  -1  416.62   21.32
   0  -8  -1  457.99   23.26
   0   8   1  422.55   21.57
   0   8   1  445.22   22.67
   0  -8  -2    5.58    2.37
   0  -8  -2    8.37    2.11
   0   8   2    3.89    2.03
   0   8   2    7.28    2.45
   0  -8  -3  321.63   16.66
   0  -8  -3  343.45   17.51
   0   8   3  306.74   15.73
   0   8   3  296.16   15.48
   0  -8  -4   24.96    3.38
   0  -8  -4   25.80    2.28
   0   8   4   25.72    2.28
   0   8   4   22.08    3.55
   0  -8  -5  128.75    7.02
   0  -8  -5  149.39    8.80
   0   8   5  114.96    6.34
   0   8   5  124.35    7.70
   0  -8  -6  170.54    9.05
   0  -8  -6  178.07   10.41
   0   8   6  162.93    8.71
   0   8   6  153.28    9.31
   0  -8  -7  178.15   10.32
   0  -8  -7  189.49    9.98
   0   8   7  180.86    9.56
   0   8   7  171.64    9.98
   0  -8  -8    9.90    2.37
   0  -8  -8   16.75    4.82
   0   8   8   10.57    4.74
   0   8   8    8.12    2.20
   0  -8  -9  338.29   18.19
   0  -8  -9  349.63   17.93
   0   8   9  312.32   17.00
   0   8   9  334.15   17.17
   0  -8 -10   24.53    2.79
   0  -8 -10   23.35    5.24
   0   8  10   19.63    5.75
   0   8  10   23.60    3.05
   0  -8 -11   69.37    7.70
   0   8  11   70.64    7.87
   0  -9  11  107.43    8.54
   0  -9  11  103.37    6.18
   0   9 -11  109.89    8.12
   0   9 -11  109.30    6.51
   0  -9  10   92.88    7.28
   0  -9  10  100.67    5.92
   0   9 -10  104.90    6.18
   0   9 -10   96.61    7.19
   0  -9   9   88.06    6.77
   0  -9   9   99.57    5.75
   0   9  -9  102.87    6.01
   0   9  -9   91.95    6.85
   0  -9   8   32.74    2.96
   0  -9   8   40.10    5.67
   0   9  -8   37.98    3.30
   0   9  -8   26.90    4.91
   0  -9   7  128.41    8.21
   0  -9   7  116.49    6.43
   0   9  -7  135.69    7.44
   0   9  -7  153.62    9.22
   0  -9   6 1150.48   58.20
   0  -9   6 1069.27   53.72
   0   9  -6 1065.04   53.46
   0   9  -6 1225.77   62.01
   0  -9   5   24.36    4.48
   0  -9   5   28.09    2.45
   0   9  -5   20.13    4.40
   0   9  -5   25.97    2.54
   0  -9   4   24.28    2.28
   0  -9   4   28.17    3.98
   0   9  -4   23.52    3.38
   0   9  -4   26.99    2.54
   0  -9   3   20.05    2.11
   0  -9   3   16.16    3.13
   0   9  -3   21.49    2.28
   0   9  -3   18.44    3.21
   0  -9   2  902.62   45.43
   0  -9   2  809.39   40.94
   0  -9   1 1410.18   70.81
   0  -9   1 1460.94   73.26
   0   9  -1 1633.51   81.97
   0   9  -1 1385.65   69.62
   0  -9   0  835.70   42.21
   0  -9   0  902.62   45.60
   0   9   0  906.00   45.77
   0   9   0  867.09   43.74
   0   9   1  310.04   16.07
   0   9   1  259.79   13.62
   0  -9  -2  200.57   10.66
   0  -9  -2  175.53    9.47
   0   9   2  180.19    9.64
   0   9   2  162.00    8.80
   0  -9  -3  211.06   11.50
   0  -9  -3  227.13   11.93
   0   9   3  207.09   11.34
   0   9   3  202.69   10.74
   0   9   4   86.54    5.08
   0   9   4   98.13    6.60
   0  -9  -5   41.79    4.65
   0  -9  -5   33.75    3.05
   0   9   5   36.63    4.23
   0   9   5   36.46    2.96
   0  -9  -6   -1.44    2.37
   0  -9  -6   -0.34    4.48
   0   9   6    3.21    2.20
   0   9   6    4.15    4.65
   0  -9  -7    1.35    4.31
   0  -9  -7    4.31    2.54
   0   9   7    0.34    4.57
   0   9   7    3.81    2.20
   0  -9  -8   22.59    2.96
   0  -9  -8   24.79    3.98
   0   9   8   17.60    4.31
   0   9   8   20.64    2.79
   0  -9  -9    1.02    2.62
   0  -9  -9    2.62    5.24
   0   9   9    1.02    2.62
   0   9   9    1.86    4.15
   0 -10  10   18.53    2.96
   0  10 -10   17.85    5.24
   0  10 -10   20.39    3.05
   0 -10   9  216.90   11.34
   0 -10   9  214.19   12.44
   0  10  -9  236.19   12.35
   0  10  -9  222.14   12.69
   0 -10   8   80.11    6.60
   0 -10   8   79.26    4.74
   0  10  -8   81.46    6.51
   0  10  -8   83.92    5.08
   0 -10   7  148.72    8.04
   0 -10   7  155.91   10.07
   0  10  -7  174.86   10.66
   0  10  -7  162.93    8.80
   0 -10   6  327.38   16.75
   0 -10   6  339.81   18.53
   0  10  -6  374.75   20.05
   0  10  -6  336.51   17.26
   0 -10   5  149.90    9.22
   0 -10   5  137.38    7.44
   0  10  -5  155.06    9.56
   0  10  -5  140.09    7.61
   0 -10   4   88.32    6.68
   0 -10   4  107.35    6.01
   0  10  -4  106.08    7.11
   0  10  -4   99.99    5.75
   0 -10   3  147.19    7.95
   0 -10   3  139.50    8.37
   0 -10   2   32.91    3.05
   0 -10   2   32.82    3.81
   0  10  -2   33.58    3.72
   0  10  -2   34.35    3.55
   0 -10   1  265.71   13.96
   0 -10   1  292.27   15.14
   0  10  -1  268.16   14.13
   0  10  -1  312.32   16.24
   0 -10   0  203.70   11.00
   0 -10   0  181.54    9.81
   0  10   0  183.23    9.98
   0  10   0  182.81    9.81
   0 -10  -1    8.63    3.55
   0 -10  -1    8.63    2.88
   0  10   1    7.28    2.88
   0  10   1    6.94    3.13
   0  10   2   41.70    3.89
   0  10   2   55.75    4.31
   0 -10  -3  664.99   33.75
   0 -10  -3  707.54   35.87
   0  10   3  732.75   37.05
   0  10   3  645.37   32.82
   0 -10  -4  369.42   19.46
   0 -10  -4  365.19   18.86
   0  10   4  369.25   19.54
   0  10   4  364.77   18.70
   0 -10  -5  464.00   23.69
   0 -10  -5  497.16   25.80
   0  10   5  488.02   25.46
   0  10   5  442.34   22.50
   0 -10  -6  361.64   19.12
   0 -10  -6  340.91   17.60
   0  10   6  308.34   15.82
   0  10   6  341.00   18.19
   0 -10  -7  103.12    6.01
   0 -10  -7  101.34    7.70
   0  10   7  100.50    5.84
   0  10   7  111.83    7.78
   0 -11   7  302.85   16.66
   0 -11   7  295.99   15.23
   0  11  -7  305.47   15.73
   0  11  -7  306.74   16.92
   0 -11   6  121.82    6.77
   0 -11   6  137.97    9.14
   0  11  -6  138.06    9.31
   0  11  -6  127.23    7.11
   0 -11   5  169.61    9.05
   0 -11   5  182.64   11.00
   0  11  -5  183.23   11.00
   0  11  -5  163.94    8.80
   0 -11   4   99.23    7.19
   0 -11   4   96.35    5.84
   0  11  -4   92.80    6.77
   0  11  -4  111.41    6.68
   0 -11   3  259.96   13.62
   0 -11   3  223.67   12.44
   0  11  -3  277.38   14.63
   0  11  -3  238.89   13.11
   0 -11   2  279.84   14.63
   0 -11   2  237.20   12.86
   0  11  -2  284.91   14.89
   0  11  -2  251.92   13.45
   0 -11   1  189.07   10.57
   0 -11   1  190.84   10.24
   0  11  -1  211.23   11.25
   0  11  -1  185.18   10.24
   0 -11   0   71.06    5.16
   0 -11   0   72.67    4.74
   0  11   0   74.10    5.24
   0  11   0   66.74    4.82
   0 -11  -1    7.95    3.13
   0 -11  -1    5.75    3.64
   0  11   1    5.41    3.13
   0  11   1    4.23    3.47
   0 -11  -2   54.90    4.99
   0 -11  -2   46.10    4.40
   0  11   2   57.95    4.65
   0  11   2   42.38    4.48
   0 -11  -3  298.02   15.90
   0 -11  -3  334.15   17.51
   0  11   3  316.30   16.50
   0  11   3  288.30   15.48
   0 -11  -4   46.70    5.41
   0 -11  -4   47.88    4.82
   0  11   4   47.37    4.48
   0  11   4   56.51    6.18
  -1  12   0   52.87    4.74
   1 -12   0   57.52    4.82
  -1  12  -1  169.53    9.39
   1 -12   1  166.99    9.14
  -1  12  -2   12.52    3.81
   1 -12   2   10.32    3.72
  -1  12  -3   33.75    4.15
  -1  11   5   18.70    4.57
  -1  11   5   25.29    3.55
   1 -11  -5   24.70    4.65
   1 -11  -5   21.32    3.64
  -1  11   4   28.93    3.64
  -1  11   4   28.59    4.57
   1 -11  -4   26.31    4.48
   1 -11  -4   33.08    3.98
  -1  11   3   10.15    3.38
  -1  11   3    4.74    3.64
   1 -11  -3   11.84    3.89
   1 -11  -3    6.01    3.64
  -1  11   2  158.87    8.88
  -1  11   2  185.43   10.24
  -1  11   1    4.48    3.05
  -1  11   1    6.26    3.21
   1 -11  -1    2.37    3.38
   1 -11  -1    5.50    3.30
  -1  11   0  141.69    8.21
  -1  11   0  153.79    8.63
   1 -11   0  147.45    8.54
   1 -11   0  145.84    8.21
  -1  11  -1   26.56    3.21
  -1  11  -1   25.04    3.38
   1 -11   1   21.99    3.05
   1 -11   1   20.64    3.55
  -1  11  -2    8.71    2.71
  -1  11  -2    1.44    3.38
   1 -11   2    7.44    3.38
   1 -11   2    5.50    2.54
  -1  11  -3   24.02    3.81
  -1  11  -3   29.95    3.81
   1 -11   3   25.63    4.48
   1 -11   3   20.22    3.21
  -1  11  -4    4.91    4.06
  -1  11  -4    2.96    2.28
   1 -11   4    1.44    2.20
   1 -11   4    4.15    4.48
  -1  11  -5   24.28    2.79
  -1  11  -5   33.92    5.58
   1 -11   5   22.59    2.62
   1 -11   5   19.63    5.16
  -1  11  -6  263.68   13.62
  -1  11  -6  293.63   16.33
   1 -11   6  287.20   16.07
   1 -11   6  249.97   12.94
  -1  11  -7  146.26    7.95
  -1  11  -7  141.78    8.88
   1 -11   7  129.26    8.71
   1 -11   7  136.28    7.44
  -1  10   8   34.94    5.75
  -1  10   8   42.13    3.55
   1 -10  -8   28.17    5.58
   1 -10  -8   31.30    3.38
  -1  10   7   -2.88    2.37
  -1  10   7   -2.79    4.74
   1 -10  -7   -1.69    2.62
   1 -10  -7   -1.78    4.91
  -1  10   6  103.46    7.02
  -1  10   6   91.53    5.33
   1 -10  -6   97.03    6.94
   1 -10  -6   98.30    5.84
  -1  10   5  772.00   39.34
  -1  10   5  727.59   36.71
   1 -10  -5  758.98   38.32
   1 -10  -5  806.69   41.03
  -1  10   4   78.93    6.01
  -1  10   4   76.47    4.99
   1 -10  -4   85.10    5.41
   1 -10  -4   80.79    6.09
  -1  10   3    6.43    2.79
  -1  10   3    2.71    2.79
   1 -10  -3    9.56    3.05
   1 -10  -3    2.11    2.62
  -1  10   2   -0.42    2.79
  -1  10   2    1.52    2.79
   1 -10  -2    6.51    3.05
   1 -10  -2    2.79    2.88
  -1  10   1  340.41   17.60
  -1  10   1  291.43   15.23
   1 -10  -1  327.63   17.09
   1 -10  -1  288.13   15.06
  -1  10   0  164.70    8.88
  -1  10   0  159.29    8.88
   1 -10   0  158.95    8.88
   1 -10   0  145.08    7.95
  -1  10  -1  274.17   14.38
  -1  10  -1  312.57   16.24
   1 -10   1  289.06   15.06
   1 -10   1  266.05   13.96
  -1  10  -2   43.57    3.72
  -1  10  -2   51.69    4.31
   1 -10   2   46.95    3.72
   1 -10   2   36.97    3.81
  -1  10  -3  144.82    7.78
  -1  10  -3  149.14    8.80
   1 -10   3  158.36    8.54
   1 -10   3  142.79    8.63
  -1  10  -4  119.28    6.60
  -1  10  -4  129.01    8.12
   1 -10   4  115.56    6.43
   1 -10   4  113.36    7.36
  -1  10  -5  500.88   25.38
  -1  10  -5  561.70   29.10
   1 -10   5  539.54   28.09
   1 -10   5  465.35   23.60
  -1  10  -6  151.68    8.12
  -1  10  -6  162.93   10.07
   1 -10   6  149.98    9.73
   1 -10   6  132.90    7.28
  -1  10  -7   50.67    4.91
  -1  10  -7   36.12    3.13
   1 -10   7   41.54    4.99
   1 -10   7   34.26    2.96
  -1  10  -8    6.26    2.28
  -1  10  -8    4.91    4.91
   1 -10   8    3.64    5.24
   1 -10   8    4.99    2.28
  -1  10  -9  150.15    8.21
  -1  10  -9  139.33    9.39
   1 -10   9  139.16    9.90
   1 -10   9  152.10    8.37
  -1  10 -10    0.00    2.71
  -1  10 -10   -1.02    6.18
   1 -10  10   -1.10    2.88
   1 -10  10   -6.34    6.85
  -1   9  10  176.04   11.00
  -1   9  10  176.29    9.47
   1  -9 -10  178.83   11.42
   1  -9 -10  190.42   10.32
  -1   9   9  256.57   14.38
  -1   9   9  254.88   13.20
   1  -9  -9  267.91   13.87
   1  -9  -9  267.99   15.06
  -1   9   8  212.42   12.18
  -1   9   8  221.89   11.59
   1  -9  -8  226.29   12.86
   1  -9  -8  244.22   12.69
  -1   9   7   87.98    5.16
  -1   9   7   94.15    6.60
   1  -9  -7   86.12    6.60
   1  -9  -7   93.48    5.50
  -1   9   6   39.93    5.08
  -1   9   6   31.38    2.79
   1  -9  -6   33.50    3.05
   1  -9  -6   38.49    5.16
  -1   9   5   30.96    2.71
  -1   9   5   36.63    4.15
   1  -9  -5   30.88    2.88
   1  -9  -5   26.48    3.98
  -1   9   4  174.09    9.22
  -1   9   4  183.57   10.32
   1  -9  -4  182.05    9.73
   1  -9  -4  180.27   10.24
  -1   9   3    1.10    2.71
  -1   9   3    3.13    2.11
   1  -9  -3    2.45    2.79
   1  -9  -3    0.34    2.28
  -1   9   2   22.42    2.62
  -1   9   2   17.34    2.54
   1  -9  -2   19.03    2.79
   1  -9  -2   16.83    2.71
   1  -9  -1  156.08    8.46
   1  -9  -1  166.23    9.14
  -1   9   0  948.30   47.71
  -1   9   0  908.54   45.85
   1  -9   0  927.15   46.78
   1  -9   0  953.37   47.96
   1  -9   1  492.51   25.12
   1  -9   1  551.55   28.00
  -1   9  -2  262.83   13.79
  -1   9  -2  285.42   14.63
   1  -9   2  261.31   13.79
   1  -9   2  287.87   14.80
  -1   9  -3   96.27    5.41
  -1   9  -3   89.25    5.84
   1  -9   3   82.48    5.67
   1  -9   3   93.90    5.33
  -1   9  -4  535.56   27.07
  -1   9  -4  563.90   28.93
   1  -9   4  551.04   28.34
   1  -9   4  481.34   24.36
  -1   9  -5  404.02   21.15
  -1   9  -5  390.23   19.79
   1  -9   5  395.56   20.81
   1  -9   5  355.13   18.10
  -1   9  -6  655.26   33.08
  -1   9  -6  697.98   35.70
   1  -9   6  634.79   31.98
   1  -9   6  675.06   34.60
  -1   9  -7  400.30   21.06
  -1   9  -7  408.25   20.81
   1  -9   7  414.51   21.15
   1  -9   7  395.14   20.89
  -1   9  -8  188.22    9.98
  -1   9  -8  177.22   10.41
   1  -9   8  191.52   10.15
   1  -9   8  178.15   10.49
  -1   9  -9   14.80    2.71
  -1   9  -9   13.28    5.08
   1  -9   9   15.65    2.71
   1  -9   9    9.98    5.50
   1  -9  10  175.96   11.08
   1  -9  10  185.94   10.07
  -1   9 -11  316.97   16.41
  -1   9 -11  288.47   15.99
   1  -9  11  294.73   16.33
   1  -9  11  318.67   16.58
  -1   8  11   30.79    6.26
  -1   8  11   28.42    3.13
   1  -8 -11   25.46    6.68
   1  -8 -11   39.84    3.47
  -1   8  10  113.61    6.60
  -1   8  10  108.11    8.12
   1  -8 -10  115.05    6.60
   1  -8 -10  103.12    8.21
  -1   8   9   86.62    5.24
  -1   8   9   86.37    6.85
   1  -8  -9   87.55    5.24
   1  -8  -9   84.42    6.94
  -1   8   8   10.41    2.37
  -1   8   8    4.31    3.64
   1  -8  -8   -2.03    3.21
   1  -8  -8    2.62    2.28
  -1   8   7  424.32   22.16
  -1   8   7  456.13   23.09
   1  -8  -7  449.62   23.43
   1  -8  -7  483.62   24.53
  -1   8   6  315.11   16.66
  -1   8   6  277.05   14.21
   1  -8  -6  300.31   15.40
   1  -8  -6  312.24   16.66
  -1   8   5  867.93   43.99
  -1   8   5  788.42   39.67
   1  -8  -5  905.15   45.85
   1  -8  -5  867.93   43.65
  -1   8   4  521.10   26.31
  -1   8   4  515.60   26.31
   1  -8  -4  575.83   29.35
   1  -8  -4  557.30   28.17
  -1   8   3   26.31    2.96
  -1   8   3   34.60    2.54
   1  -8  -3   30.03    2.54
   1  -8  -3   33.25    3.30
  -1   8   2    6.77    1.95
  -1   8   2    6.85    2.28
   1  -8  -2    9.39    2.11
   1  -8  -2    6.01    2.28
  -1   8   1  423.48   21.57
  -1   8   1  426.10   21.74
   1  -8  -1  413.50   21.15
   1  -8  -1  401.91   20.56
  -1   8   0 1263.83   63.53
  -1   8   0 1201.23   60.32
   1  -8   0 1102.26   55.41
   1  -8   0 1201.23   60.40
  -1   8  -1 1230.00   61.67
  -1   8  -1 1211.38   60.82
   1  -8   1 1232.53   61.92
   1  -8   1 1290.06   64.71
  -1   8  -2  335.41   17.26
  -1   8  -2  353.60   18.02
   1  -8   2  361.55   18.36
   1  -8   2  321.20   16.66
  -1   8  -3    4.82    2.37
  -1   8  -3    3.30    1.52
   1  -8   3    4.74    2.62
   1  -8   3    1.44    1.44
  -1   8  -4  796.71   40.44
  -1   8  -4  754.66   37.98
   1  -8   4  781.06   39.76
   1  -8   4  752.63   37.90
  -1   8  -5 1221.54   61.67
  -1   8  -5 1131.02   56.76
   1  -8   5 1145.40   57.95
   1  -8   5 1063.35   53.38
  -1   8  -6  327.80   16.75
  -1   8  -6  370.35   19.46
   1  -8   6  354.45   18.70
   1  -8   6  329.32   16.83
  -1   8  -7  368.66   18.86
  -1   8  -7  328.73   17.34
   1  -8   7  312.83   16.58
   1  -8   7  360.71   18.44
  -1   8  -8  389.39   20.47
  -1   8  -8  405.80   20.73
   1  -8   8  382.96   20.30
   1  -8   8  402.67   20.56
  -1   8  -9  479.82   24.45
  -1   8  -9  409.27   21.57
   1  -8   9  468.31   23.94
   1  -8   9  413.50   21.83
  -1   8 -10  121.73    8.46
  -1   8 -10  113.86    6.68
   1  -8  10  109.38    6.51
   1  -8  10  114.20    8.54
  -1   8 -11  459.60   23.43
  -1   8 -11  425.68   22.50
   1  -8  11  469.50   23.94
   1  -8  11  462.22   24.36
  -1   8 -12  335.92   17.34
  -1   8 -12  330.00   18.02
   1  -8  12  323.57   16.83
   1  -8  12  317.73   17.43
  -1   8 -13   -0.42    3.05
   1  -8  13   -3.47    3.38
  -1   7  13   10.74    6.26
   1  -7 -13    9.90    6.68
  -1   7  12   12.60    3.05
  -1   7  12    8.80    5.08
   1  -7 -12   12.44    5.16
   1  -7 -12   10.74    3.30
   1  -7 -11   71.06    5.92
   1  -7 -11   66.07    4.82
  -1   7  10   41.37    3.64
  -1   7  10   38.24    4.31
   1  -7 -10   42.89    5.24
   1  -7 -10   42.97    3.81
  -1   7   9    2.54    2.37
  -1   7   9    6.68    4.06
   1  -7  -9    4.82    4.57
   1  -7  -9    0.59    2.54
  -1   7   8  106.59    5.92
  -1   7   8  102.53    6.94
   1  -7  -8  126.89    7.11
   1  -7  -8  106.59    7.28
  -1   7   7   -0.59    3.47
  -1   7   7    0.08    1.95
   1  -7  -7    3.13    3.81
   1  -7  -7    2.79    1.95
  -1   7   6  175.87    9.90
  -1   7   6  176.46    9.22
   1  -7  -6  190.42    9.98
   1  -7  -6  188.39   10.74
  -1   7   5  870.47   44.16
  -1   7   5  750.60   37.73
   1  -7  -5  916.15   46.44
   1  -7  -5  829.53   41.70
  -1   7   4   34.60    2.45
  -1   7   4   33.58    3.30
   1  -7  -4   35.02    3.47
   1  -7  -4   40.69    2.88
  -1   7   3  378.98   19.46
  -1   7   3  367.39   18.61
   1  -7  -3  417.22   21.15
   1  -7  -3  390.40   19.96
  -1   7   2 1019.36   51.18
  -1   7   2  975.37   49.15
   1  -7  -2 1065.88   53.46
   1  -7  -2 1038.81   52.28
  -1   7   1 2138.53  107.01
  -1   7   1 2297.57  115.05
   1  -7  -1 2240.89  112.17
   1  -7  -1 2236.66  112.09
  -1   7   0 1550.61   77.83
  -1   7   0 1398.34   70.21
   1  -7   0 1337.43   67.08
   1  -7   0 1384.80   69.54
  -1   7  -1 2813.59  140.68
  -1   7  -1 2838.97  142.12
   1  -7   1 2770.45  138.73
   1  -7   1 2668.94  133.49
  -1   7  -2  285.42   14.80
  -1   7  -2  293.63   14.97
   1  -7   2  282.97   14.47
   1  -7   2  262.49   13.62
  -1   7  -3   49.57    3.72
  -1   7  -3   46.36    2.96
   1  -7   3   46.19    3.38
   1  -7   3   50.50    3.13
  -1   7  -4  226.71   12.18
  -1   7  -4  206.83   10.74
   1  -7   4  215.21   11.59
   1  -7   4  210.89   10.91
  -1   7  -5 1680.04   84.51
  -1   7  -5 1610.67   80.70
   1  -7   5 1572.60   79.18
   1  -7   5 1593.75   79.86
  -1   7  -6  269.60   13.96
  -1   7  -6  239.65   13.03
   1  -7   6  246.59   13.45
   1  -7   6  253.19   13.11
  -1   7  -7   12.77    2.37
  -1   7  -7   13.87    2.96
   1  -7   7   14.30    3.38
   1  -7   7   12.86    2.54
  -1   7  -8  407.66   21.15
  -1   7  -8  433.54   22.08
   1  -7   8  405.37   21.23
   1  -7   8  428.47   21.91
  -1   7  -9  129.09    7.28
  -1   7  -9  125.71    8.04
   1  -7   9  126.89    7.19
   1  -7   9  124.44    8.12
  -1   7 -10   14.80    4.57
  -1   7 -10   10.83    2.62
   1  -7  10    7.28    2.62
   1  -7  10    8.71    4.06
  -1   7 -11  110.99    6.34
  -1   7 -11  108.36    8.04
   1  -7  11  104.73    6.18
   1  -7  11  104.90    7.95
  -1   7 -12  205.39   10.91
  -1   7 -12  214.53   12.69
   1  -7  12  192.96   10.32
   1  -7  12  200.40   12.10
  -1   7 -13  372.64   20.30
  -1   7 -13  318.67   16.50
   1  -7  13  347.34   19.03
   1  -7  13  321.03   16.66
  -1   7 -14   49.83    4.31
   1  -7  14   48.81    4.48
  -1   6  14    6.51    5.58
   1  -6 -14   21.57    5.67
  -1   6  13  265.20   14.80
  -1   6  13  247.94   13.11
   1  -6 -13  256.83   14.63
   1  -6 -13  267.57   14.13
  -1   6  12  387.44   19.88
  -1   6  12  399.71   21.06
   1  -6 -12  435.32   22.84
   1  -6 -12  405.80   20.81
  -1   6  11  232.46   12.27
  -1   6  11  226.71   12.94
   1  -6 -11  249.21   13.96
   1  -6 -11  232.29   12.27
  -1   6  10   73.17    4.82
  -1   6  10   63.70    5.75
   1  -6 -10   83.83    5.33
   1  -6 -10   70.97    6.26
  -1   6   9   56.09    4.48
  -1   6   9   58.45    3.98
   1  -6  -9   66.24    4.31
   1  -6  -9   63.19    5.33
  -1   6   8  513.65   26.48
  -1   6   8  605.78   30.62
   1  -6  -8  588.52   30.28
   1  -6  -8  643.17   32.57
  -1   6   7   94.07    6.26
  -1   6   7   90.68    5.24
  -1   6   6  736.31   37.14
  -1   6   6  691.64   35.19
  -1   6   5  204.04   11.08
  -1   6   5  236.02   12.18
   1  -6  -5  218.51   11.34
   1  -6  -5  231.20   12.52
  -1   6   4  674.97   33.92
  -1   6   4  640.63   32.57
   1  -6  -4  740.20   37.22
   1  -6  -4  703.31   35.70
  -1   6   3    8.80    1.35
  -1   6   3    9.90    1.95
   1  -6  -3    8.88    1.44
   1  -6  -3    8.63    1.78
  -1   6   2 1059.96   53.21
   1  -6  -2 1070.11   53.72
  -1   6   1 2606.34  130.36
  -1   6   1 2450.69  122.58
   1  -6  -1 2682.47  134.17
   1  -6  -1 2572.50  128.67
  -1   6   0 1054.89   52.87
  -1   6   0 1196.16   60.06
   1  -6   0 1124.25   56.42
   1  -6   0 1063.35   53.38
  -1   6  -1  705.77   35.61
  -1   6  -1  688.00   34.60
   1  -6   1  681.91   34.43
   1  -6   1  680.98   34.26
  -1   6  -2  718.63   36.12
  -1   6  -2  653.49   33.08
   1  -6   2  704.67   35.44
   1  -6   2  630.14   31.89
  -1   6  -3   50.08    2.96
  -1   6  -3   47.46    3.47
   1  -6   3   48.81    2.96
   1  -6   3   41.45    3.21
  -1   6  -4  653.06   33.16
   1  -6   4  653.66   33.25
  -1   6  -5  915.31   46.10
  -1   6  -5  861.17   43.65
   1  -6   5  892.47   45.26
   1  -6   5  925.46   46.61
  -1   6  -6 2158.84  108.11
  -1   6  -6 1994.72  100.16
   1  -6   6 1993.88  100.16
   1  -6   6 2215.51  110.99
  -1   6  -7  393.70   20.47
  -1   6  -7  403.85   20.56
   1  -6   7  406.90   21.15
   1  -6   7  393.62   20.13
  -1   6  -8    1.86    3.47
  -1   6  -8    5.24    1.95
   1  -6   8    5.08    2.03
   1  -6   8   12.10    3.38
  -1   6  -9    4.40    1.78
  -1   6  -9   -0.08    3.30
   1  -6   9    2.54    2.20
   1  -6   9    6.60    2.88
  -1   6 -10  209.12   11.08
  -1   6 -10  229.33   12.86
   1  -6  10  190.25   10.15
   1  -6  10  217.32   12.35
  -1   6 -11  204.97   11.67
  -1   6 -11  180.86    9.73
   1  -6  11  200.23   11.67
   1  -6  11  176.89    9.64
  -1   6 -12   28.34    4.82
  -1   6 -12   20.81    2.79
   1  -6  12   33.41    5.24
   1  -6  12   20.64    3.13
  -1   6 -13    5.08    5.16
  -1   6 -13    8.21    3.13
   1  -6  13    8.04    3.13
   1  -6  13    8.71    5.33
  -1   6 -14  185.60   10.15
  -1   6 -14  191.69   11.84
   1  -6  14  172.99   10.83
   1  -6  14  178.83    9.90
  -1   5  14   28.42    3.30
  -1   5  14   33.84    5.08
   1  -5 -14   28.76    5.16
   1  -5 -14   29.61    3.64
  -1   5  13   49.74    5.92
  -1   5  13   41.54    3.55
   1  -5 -13   49.06    6.34
   1  -5 -13   42.38    3.64
  -1   5  12  212.58   11.76
  -1   5  12  197.87   10.57
   1  -5 -12  216.81   12.18
   1  -5 -12  195.75   10.57
  -1   5  11  818.70   41.28
  -1   5  11  832.23   42.38
   1  -5 -11  784.19   39.67
   1  -5 -11  887.39   45.26
  -1   5  10   32.91    4.57
  -1   5  10   39.76    3.30
   1  -5 -10   41.37    3.38
   1  -5 -10   40.69    5.16
  -1   5   9 1090.42   55.24
  -1   5   9 1029.51   51.77
   1  -5  -9 1129.33   57.10
   1  -5  -9  991.44   49.91
  -1   5   8  579.81   29.78
  -1   5   8  569.66   28.85
   1  -5  -8  614.83   31.64
   1  -5  -8  602.22   30.45
  -1   5   7 2984.47  149.31
  -1   5   7 2806.83  140.68
   1  -5  -7 2952.33  147.95
   1  -5  -7 3247.56  162.50
  -1   5   6 1494.77   75.20
  -1   5   6 1621.67   81.29
   1  -5  -6 1872.06   93.81
   1  -5  -6 1637.74   82.39
  -1   5   5 1481.24   74.27
  -1   5   5 1458.40   73.26
   1  -5  -5 1545.53   77.66
   1  -5  -5 1725.72   86.54
   1  -5  -4   10.83    1.78
   1  -5  -4    4.65    1.78
  -1   5   3  947.45   47.54
  -1   5   3  900.93   45.26
   1  -5  -3 1091.26   54.73
   1  -5  -3  943.22   47.37
  -1   5   2 1483.78   74.36
  -1   5   2 1511.69   75.63
   1  -5  -2 1557.37   78.00
   1  -5  -2 1599.67   80.03
  -1   5   1  405.80   20.56
  -1   5   1  345.99   17.51
   1  -5  -1  350.05   17.68
   1  -5  -1  373.65   18.95
  -1   5   0  221.81   11.42
  -1   5   0  207.26   10.57
   1  -5   0  217.58   11.17
   1  -5   0  211.48   10.83
  -1   5  -1  101.60    5.58
  -1   5  -1   97.03    5.16
   1  -5   1  103.12    5.58
   1  -5   1  102.44    5.41
  -1   5  -2 1502.39   75.20
  -1   5  -2 1368.73   68.61
   1  -5   2 1320.51   66.24
   1  -5   2 1460.94   73.09
  -1   5  -3  704.24   35.44
  -1   5  -3  681.15   34.51
   1  -5   3  647.31   32.74
   1  -5   3  744.17   37.39
  -1   5  -4   98.89    5.84
  -1   5  -4  104.90    5.67
   1  -5   4  104.05    6.01
   1  -5   4  113.02    6.09
  -1   5  -5  174.09    9.05
  -1   5  -5  180.02    9.90
   1  -5   5  170.54    8.97
   1  -5   5  169.70    9.31
  -1   5  -6  180.44    9.98
  -1   5  -6  203.87   10.66
   1  -5   6  200.40   10.57
   1  -5   6  183.48   10.32
  -1   5  -7  829.44   41.79
  -1   5  -7  934.76   47.37
   1  -5   7  861.17   43.48
   1  -5   7  938.99   47.63
  -1   5  -8  161.57    8.71
  -1   5  -8  178.66   10.15
   1  -5   8  158.02    8.63
   1  -5   8  175.79   10.24
  -1   5  -9  163.69    8.88
  -1   5  -9  172.99   10.15
   1  -5   9  168.60    9.90
   1  -5   9  172.99    9.47
  -1   5 -10  115.98    6.77
  -1   5 -10  124.10    7.70
   1  -5  10  117.84    7.53
   1  -5  10  112.09    6.60
  -1   5 -11  969.45   49.23
  -1   5 -11  955.91   48.22
   1  -5  11  981.29   49.83
   1  -5  11  972.83   49.06
  -1   5 -12  201.84   11.08
  -1   5 -12  188.90   10.83
   1  -5  12  196.09   11.42
   1  -5  12  214.61   11.76
  -1   5 -13    3.55    3.38
  -1   5 -13    3.89    4.91
   1  -5  13   -1.18    4.99
   1  -5  13    1.27    3.21
  -1   5 -14   97.28    6.51
  -1   5 -14   83.66    6.68
   1  -5  14   89.92    6.09
   1  -5  14   90.68    6.94
  -1   5 -15  467.38   24.79
  -1   5 -15  479.56   24.79
   1  -5  15  475.50   24.53
   1  -5  15  452.75   24.02
  -1   4  15   13.45    5.50
  -1   4  15   25.63    4.06
   1  -4 -15   19.46    5.50
   1  -4 -15   14.21    3.81
  -1   4  14  452.41   23.69
  -1   4  14  417.30   21.49
   1  -4 -14  479.48   24.53
   1  -4 -14  489.80   25.55
  -1   4  13   29.18    3.55
  -1   4  13   25.89    3.81
   1  -4 -13   20.22    3.47
   1  -4 -13   34.35    4.91
  -1   4  12  330.00   17.68
  -1   4  12  312.74   16.33
   1  -4 -12  341.34   18.53
   1  -4 -12  320.36   16.75
  -1   4  11   10.57    2.45
  -1   4  11   12.18    3.55
   1  -4 -11   10.15    3.30
   1  -4 -11   17.09    2.88
  -1   4  10  239.65   12.60
  -1   4  10  245.07   13.37
   1  -4 -10  273.58   14.89
   1  -4 -10  247.94   13.03
  -1   4   9   31.98    4.06
  -1   4   9   33.25    3.05
  -1   4   8 1005.82   50.93
  -1   4   8  973.68   48.98
   1  -4  -8  956.76   48.13
   1  -4  -8 1071.80   54.31
  -1   4   6 1433.87   72.07
  -1   4   6 1402.57   70.38
   1  -4  -6 1389.03   69.71
   1  -4  -6 1488.85   74.78
  -1   4   5 2575.04  128.92
  -1   4   5 2628.33  131.54
   1  -4  -5 2753.53  137.72
   1  -4  -5 2626.64  131.54
  -1   4   4    4.65    1.44
  -1   4   4    1.44    1.78
   1  -4  -4    6.26    1.95
   1  -4  -4    4.82    1.27
  -1   4   3   17.68    1.69
  -1   4   3   21.23    1.69
   1  -4  -3   21.91    1.86
   1  -4  -3   25.97    1.95
  -1   4   2  920.38   46.19
  -1   4   2  995.67   49.91
   1  -4  -2  989.75   49.66
   1  -4  -2 1023.59   51.26
  -1   4   1 2892.27  144.49
  -1   4   1 3366.84  168.26
   1  -4  -1 3035.23  151.68
   1  -4  -1 2948.94  147.36
  -1   4   0 1879.68   93.98
  -1   4   0 1813.69   90.68
   1  -4   0 1926.20   96.35
   1  -4   0 1806.93   90.35
  -1   4  -1  684.79   34.43
  -1   4  -1  654.42   32.82
   1  -4   1  647.23   32.57
   1  -4   1  666.77   33.41
  -1   4  -2  139.75    7.28
  -1   4  -2  119.53    6.34
  -1   4  -3 1757.86   88.15
  -1   4  -3 2007.41  100.41
   1  -4   3 1899.98   95.17
   1  -4   3 1947.35   97.45
  -1   4  -4  317.40   16.41
  -1   4  -4  297.77   15.14
   1  -4   4  295.06   15.23
   1  -4   4  292.53   14.89
  -1   4  -5  335.58   17.34
  -1   4  -5  329.07   16.75
   1  -4   5  334.82   17.09
   1  -4   5  334.91   17.26
  -1   4  -6   48.73    3.89
  -1   4  -6   45.51    3.13
   1  -4   6   45.60    3.55
   1  -4   6   40.01    2.96
  -1   4  -7   61.75    4.06
  -1   4  -7   60.65    4.65
   1  -4   7   56.42    4.23
   1  -4   7   55.58    3.89
  -1   4  -8  353.60   18.61
  -1   4  -8  356.73   18.53
   1  -4   8  362.32   18.86
   1  -4   8  344.13   18.10
  -1   4  -9  252.94   13.45
  -1   4  -9  242.53   13.11
   1  -4   9  251.33   13.37
   1  -4   9  246.34   13.45
  -1   4 -10  326.62   17.34
  -1   4 -10  361.22   18.78
   1  -4  10  324.25   17.17
   1  -4  10  346.16   18.10
  -1   4 -11  134.76    8.12
  -1   4 -11  149.98    8.63
   1  -4  11  141.27    8.54
   1  -4  11  145.84    8.37
  -1   4 -12  957.60   48.73
  -1   4 -12  944.07   47.71
   1  -4  12  993.98   50.25
   1  -4  12  904.31   46.10
  -1   4 -13  163.86    9.81
  -1   4 -13  179.59   10.07
   1  -4  13  157.34    9.31
   1  -4  13  177.14   10.24
  -1   4 -14   54.56    6.18
  -1   4 -14   59.47    5.41
   1  -4  14   51.35    5.58
   1  -4  14   48.64    4.82
  -1   4 -15  149.98   10.15
  -1   4 -15  175.11   10.07
   1  -4  15  176.12   11.00
   1  -4  15  158.02    9.56
  -1   3  16    0.59    5.67
   1  -3 -16    6.09    6.01
  -1   3  15   65.81    5.08
  -1   3  15   71.99    5.67
   1  -3 -15   63.19    6.09
   1  -3 -15   73.51    5.84
  -1   3  14    5.84    4.15
  -1   3  14    2.54    3.55
   1  -3 -14    0.85    3.55
   1  -3 -14    0.17    4.06
  -1   3  13  632.42   32.48
  -1   3  13  680.81   34.68
   1  -3 -13  675.57   34.51
   1  -3 -13  649.43   33.41
  -1   3  12  869.63   43.99
  -1   3  12  830.29   42.30
   1  -3 -12  841.62   42.80
   1  -3 -12  910.23   46.10
  -1   3  11  218.34   12.10
  -1   3  11  211.74   11.42
   1  -3 -11  228.15   12.35
   1  -3 -11  204.63   11.76
  -1   3  10   35.87    4.06
  -1   3  10   36.21    3.21
   1  -3 -10   42.47    3.81
   1  -3 -10   41.03    4.40
  -1   3   9  283.73   14.89
  -1   3   9  310.80   16.58
   1  -3  -9  290.58   15.73
   1  -3  -9  301.32   15.82
  -1   3   8  876.39   44.24
  -1   3   8  896.70   45.60
   1  -3  -8  870.47   43.99
   1  -3  -8  900.93   45.77
  -1   3   7 1171.63   59.05
  -1   3   7 1159.78   58.37
   1  -3  -7 1186.01   59.64
   1  -3  -7 1139.48   57.44
  -1   3   6  225.53   11.93
  -1   3   6  212.58   11.17
   1  -3  -6  239.99   12.60
   1  -3  -6  237.96   12.35
  -1   3   5  484.22   24.53
  -1   3   5  496.48   25.12
   1  -3  -5  500.88   25.38
   1  -3  -5  497.92   25.12
  -1   3   4  629.38   31.64
  -1   3   4  609.75   30.79
   1  -3  -4  610.85   30.88
   1  -3  -4  601.21   30.28
  -1   3   3   42.72    2.71
  -1   3   3   43.65    2.62
   1  -3  -3   42.72    2.62
   1  -3  -3   40.61    2.45
  -1   3   2   40.69    2.37
  -1   3   2   35.36    2.11
  -1   3   1 1124.25   56.25
  -1   3   1 1275.68   63.87
   1  -3  -1 1232.53   61.67
   1  -3  -1 1270.60   63.61
  -1   3   0 3312.70  165.55
  -1   3   0 3193.42  159.54
  -1   3  -1 1042.20   52.19
  -1   3  -1 1204.62   60.23
  -1   3  -2  182.47    9.31
  -1   3  -2  165.38    8.63
   1  -3   2  175.19    9.05
   1  -3   2  182.98    9.39
  -1   3  -3  231.45   11.76
  -1   3  -3  243.29   12.52
   1  -3   3  235.76   12.18
   1  -3   3  228.23   11.67
  -1   3  -4 1791.70   89.67
  -1   3  -4 1741.79   87.30
   1  -3   4 1839.07   92.04
   1  -3   4 1762.94   88.32
  -1   3  -5 3492.04  174.77
  -1   3  -5 3628.23  181.45
   1  -3   5 3650.23  182.55
   1  -3   5 3361.76  168.26
  -1   3  -6 2668.94  133.57
  -1   3  -6 2729.00  136.79
   1  -3   6 2643.56  132.30
   1  -3   6 2557.27  128.16
  -1   3  -7  208.78   11.08
  -1   3  -7  194.48   10.83
   1  -3   7  194.40   10.32
   1  -3   7  198.20   10.83
  -1   3  -8   29.86    3.81
   1  -3   8   26.14    3.30
  -1   3  -9 1488.01   74.78
  -1   3  -9 1377.19   69.45
   1  -3   9 1477.01   74.44
   1  -3   9 1515.92   76.30
  -1   3 -10  291.68   15.40
  -1   3 -10  308.09   16.41
   1  -3  10  309.70   16.33
   1  -3  10  300.90   16.07
  -1   3 -11  261.14   13.87
  -1   3 -11  222.82   12.35
   1  -3  11  235.34   12.69
   1  -3  11  231.53   12.94
  -1   3 -12   -0.85    3.38
  -1   3 -12    0.85    3.38
   1  -3  12   -1.69    3.47
   1  -3  12   -1.78    3.38
  -1   3 -13  591.73   30.28
  -1   3 -13  575.32   29.69
   1  -3  13  577.10   29.78
   1  -3  13  582.01   29.86
  -1   3 -14   48.39    5.41
  -1   3 -14   56.59    5.50
   1  -3  14   64.46    5.75
   1  -3  14   53.46    4.91
  -1   3 -15  176.29   10.83
  -1   3 -15  179.76   10.57
   1  -3  15  175.45   10.41
   1  -3  15  194.48   11.50
  -1   3 -16    9.73    5.08
   1  -3  16    9.31    4.91
  -1   2  16  446.49   23.52
  -1   2  16  408.50   21.49
   1  -2 -16  442.93   23.52
   1  -2 -16  423.82   22.25
  -1   2  15   32.48    4.65
  -1   2  15   30.37    4.74
   1  -2 -15   28.59    4.57
   1  -2 -15   35.78    4.99
  -1   2  14   34.85    4.06
  -1   2  14   33.58    5.08
   1  -2 -14   41.45    5.41
   1  -2 -14   42.04    4.06
  -1   2  13  127.48    7.70
  -1   2  13  125.45    7.61
   1  -2 -13  131.04    8.21
   1  -2 -13  130.19    7.78
  -1   2  12 1640.28   82.39
  -1   2  12 1555.68   78.42
   1  -2 -12 1472.78   74.27
   1  -2 -12 1591.21   80.03
  -1   2  11  902.62   45.68
  -1   2  11  850.17   43.23
   1  -2 -11  888.24   45.00
   1  -2 -11  917.84   46.61
  -1   2  10  236.10   12.94
  -1   2  10  254.20   13.45
   1  -2 -10  242.78   12.94
   1  -2 -10  254.63   13.87
  -1   2   9  117.75    7.11
  -1   2   9   98.81    6.01
   1  -2  -9  106.25    6.51
   1  -2  -9  113.95    6.77
  -1   2   8 1408.49   70.89
  -1   2   8 1366.19   68.77
   1  -2  -8 1318.82   66.41
   1  -2  -8 1188.54   59.98
  -1   2   7 1183.47   59.55
  -1   2   7 1240.15   62.35
   1  -2  -7 1247.76   62.85
   1  -2  -7 1183.47   59.47
  -1   2   6  297.26   15.40
  -1   2   6  290.58   15.06
   1  -2  -6  293.63   15.23
   1  -2  -6  290.66   14.89
  -1   2   5  241.85   12.52
  -1   2   5  269.77   13.87
   1  -2  -5  241.77   12.52
   1  -2  -5  261.06   13.45
  -1   2   4 1214.77   60.91
  -1   2   4 1385.65   69.45
   1  -2  -4 1199.54   60.15
   1  -2  -4 1357.73   68.01
  -1   2   3 1530.30   76.64
  -1   2   3 1570.91   78.59
   1  -2  -3 1462.63   73.26
   1  -2  -3 1532.84   76.73
  -1   2   2 1718.10   85.95
  -1   2   2 1963.42   98.21
   1  -2  -2 1686.80   84.42
   1  -2  -2 1955.81   97.79
  -1   2   1 2286.57  114.29
  -1   2   0 1245.22   62.26
  -1   2   0 1212.23   60.57
   1  -2   0 1173.32   58.71
   1  -2   0 1244.38   62.26
  -1   2  -1 5044.33  252.01
  -1   2  -2  115.30    5.92
  -1   2  -2  116.57    6.09
   1  -2   2  124.18    6.43
   1  -2   2  125.88    6.51
  -1   2  -3  290.58   14.72
  -1   2  -3  248.88   12.69
   1  -2   3  274.25   13.96
   1  -2   3  255.56   13.03
  -1   2  -4  127.14    6.85
  -1   2  -4  118.85    6.34
   1  -2   4  119.19    6.43
   1  -2   4  134.93    7.11
  -1   2  -5  451.31   22.92
  -1   2  -5  500.29   25.46
   1  -2   5  444.46   22.67
   1  -2   5  482.61   24.45
  -1   2  -6 3085.99  154.55
  -1   2  -6 2891.42  144.66
   1  -2   6 2977.71  148.97
   1  -2   6 3136.74  157.09
  -1   2  -7 1109.03   55.83
  -1   2  -7 1177.55   59.38
   1  -2   7 1148.79   57.78
   1  -2   7 1142.02   57.61
  -1   2  -8   17.17    2.62
  -1   2  -8   13.70    3.30
   1  -2   8   13.87    3.30
   1  -2   8   17.17    2.28
  -1   2  -9  261.65   13.87
  -1   2  -9  281.11   14.97
   1  -2   9  284.74   15.14
   1  -2   9  271.63   14.38
   1  -2  10 1597.13   80.36
   1  -2  10 1635.20   82.39
  -1   2 -11 1331.51   67.25
  -1   2 -11 1262.14   63.61
   1  -2  11 1262.14   63.61
   1  -2  11 1337.43   67.51
  -1   2 -12  646.30   33.08
  -1   2 -12  612.97   31.38
   1  -2  12  569.57   29.27
   1  -2  12  614.91   31.55
  -1   2 -13    0.85    4.31
  -1   2 -13    1.27    3.72
   1  -2  13    1.02    3.55
   1  -2  13    0.85    4.74
  -1   2 -14   74.02    5.67
  -1   2 -14   78.59    6.77
   1  -2  14   67.51    5.50
   1  -2  14   72.58    6.18
  -1   2 -15  102.70    7.28
  -1   2 -15  111.49    7.19
   1  -2  15  111.92    7.28
   1  -2  15  102.61    7.61
  -1   2 -16   31.55    4.99
  -1   2 -16   37.22    6.18
   1  -2  16   27.92    5.75
   1  -2  16   42.38    4.74
  -1   1  16  257.00   14.04
  -1   1  16  253.87   13.87
   1  -1 -16  276.96   15.06
   1  -1 -16  271.46   14.72
  -1   1  15  292.53   15.82
  -1   1  15  265.37   14.55
   1  -1 -15  293.29   15.90
   1  -1 -15  308.94   16.83
  -1   1  14  298.45   16.16
  -1   1  14  269.26   14.38
   1  -1 -14  289.56   15.82
   1  -1 -14  286.01   15.31
  -1   1  13  324.50   17.26
  -1   1  13  317.23   17.00
   1  -1 -13  322.47   17.09
   1  -1 -13  310.54   16.66
  -1   1  12    5.58    2.79
  -1   1  12    0.76    3.13
   1  -1 -12   -0.51    2.79
   1  -1 -12    7.28    3.21
  -1   1  11    3.13    3.05
  -1   1  11   -1.69    2.79
   1  -1 -11    3.55    3.38
   1  -1 -11    5.58    3.13
  -1   1  10  167.07    9.64
  -1   1  10  175.53    9.81
   1  -1 -10  180.10   10.32
   1  -1 -10  168.51    9.56
  -1   1   9    7.53    2.88
   1  -1  -9    8.97    2.88
  -1   1   8  128.84    7.36
  -1   1   8  122.07    7.02
   1  -1  -8  119.95    6.85
   1  -1  -8  131.29    7.44
  -1   1   7 2900.73  145.25
  -1   1   7 2577.58  129.09
   1  -1  -7 2843.20  142.37
   1  -1  -7 2938.79  147.19
  -1   1   6   38.74    2.79
  -1   1   6   39.08    2.96
   1  -1  -6   37.56    2.62
   1  -1  -6   40.01    2.79
  -1   1   5  961.83   48.30
  -1   1   5  912.77   45.85
   1  -1  -5  959.29   48.22
   1  -1  -5  910.23   45.77
  -1   1   4 1113.26   55.83
  -1   1   4 1130.17   56.68
   1  -1  -4 1132.71   56.85
   1  -1  -4 1071.80   53.72
  -1   1   3 3588.47  179.34
   1  -1  -3 3592.70  179.51
  -1   1   2  919.54   46.02
  -1   1   2  831.30   41.62
   1  -1  -2  932.22   46.61
   1  -1  -2  818.95   41.03
   1  -1  -1 1380.57   68.94
  -1   1  -1 1363.65   68.18
   1  -1   1 1368.73   68.44
   1  -1   1 1483.78   74.19
  -1   1  -2 1674.96   83.75
  -1   1  -2 1559.91   78.00
   1  -1   2 1608.98   80.45
   1  -1   2 1656.35   82.82
  -1   1  -3 2081.01  104.05
  -1   1  -3 1878.83   94.07
   1  -1   3 2028.56  101.43
   1  -1   3 2079.32  104.05
  -1   1  -4 2930.33  146.60
  -1   1  -4 3062.30  153.11
   1  -1   4 2981.09  149.05
   1  -1   4 2939.64  147.02
  -1   1  -5  670.07   33.84
  -1   1  -5  577.02   29.27
   1  -1   5  630.99   31.89
   1  -1   5  599.60   30.28
  -1   1  -6  195.33   10.41
  -1   1  -6  195.50   10.32
   1  -1   6  205.65   10.91
   1  -1   6  207.51   11.00
  -1   1  -7    1.27    2.03
  -1   1  -7    5.84    1.95
   1  -1   7    3.64    2.37
   1  -1   7    1.69    2.03
  -1   1  -8  953.37   48.13
  -1   1  -8 1043.89   52.87
   1  -1   8 1043.89   52.87
   1  -1   8 1024.43   51.69
  -1   1  -9   44.16    4.23
  -1   1  -9   32.91    3.98
   1  -1   9   44.50    4.23
   1  -1   9   33.33    3.55
  -1   1 -10  503.84   25.97
  -1   1 -10  520.68   26.82
   1  -1  10  513.57   26.65
   1  -1  10  501.56   25.89
  -1   1 -11  228.83   12.52
  -1   1 -11  215.04   11.84
   1  -1  11  233.48   12.69
   1  -1  11  215.80   11.93
  -1   1 -12  335.41   17.93
  -1   1 -12  331.27   17.43
   1  -1  12  340.83   18.10
   1  -1  12  318.33   16.92
  -1   1 -13   68.61    5.67
  -1   1 -13   59.98    5.41
   1  -1  13   64.71    5.92
   1  -1  13   65.14    5.41
  -1   1 -14   33.75    4.23
  -1   1 -14   38.49    4.65
   1  -1  14   33.84    4.82
   1  -1  14   31.98    4.06
  -1   1 -15  352.67   18.61
  -1   1 -15  327.55   17.51
   1  -1  15  332.79   17.76
   1  -1  15  318.83   16.92
  -1   1 -16  284.32   15.73
  -1   1 -16  287.11   15.65
   1  -1  16  288.38   15.73
   1  -1  16  293.12   15.82
  -1   0  16   99.40    7.02
  -1   0  16   99.74    6.94
   1   0 -16  101.17    7.36
   1   0 -16  102.61    7.53
  -1   0  15  105.07    7.11
  -1   0  15   99.40    6.60
   1   0 -15   97.88    6.94
   1   0 -15   95.25    6.68
  -1   0  14  710.08   36.21
  -1   0  14  712.62   36.38
   1   0 -14  735.63   37.64
   1   0 -14  726.75   37.14
  -1   0  13  662.96   33.84
  -1   0  13  679.54   34.77
   1   0 -13  658.90   33.67
   1   0 -13  688.93   35.28
  -1   0  12  485.15   25.12
  -1   0  12  505.03   25.97
   1   0 -12  480.83   24.87
   1   0 -12  495.89   25.72
  -1   0  11 1420.33   71.57
  -1   0  11 1442.33   72.67
   1   0 -11 1428.79   71.99
   1   0 -11 1406.80   70.89
  -1   0  10   92.88    6.26
  -1   0  10  103.37    6.43
   1   0 -10   93.14    6.09
   1   0 -10   97.03    6.01
  -1   0   9   84.00    5.75
  -1   0   9   78.84    5.33
   1   0  -9   84.59    5.58
   1   0  -9   91.02    5.92
  -1   0   8   52.11    4.06
  -1   0   8   57.69    4.15
   1   0  -8   54.31    3.81
   1   0  -8   55.75    3.98
  -1   0   7 5570.51  278.57
  -1   0   7 5429.24  271.38
   1   0  -7 5592.50  279.67
   1   0  -7 5404.71  270.19
  -1   0   6 3836.33  191.86
  -1   0   6 3974.22  198.80
   1   0  -6 4014.83  200.83
   1   0  -6 3883.71  194.23
  -1   0   5   80.03    4.48
  -1   0   5   75.97    4.31
   1   0  -5   83.49    4.74
   1   0  -5   81.55    4.57
  -1   0   4  182.38    9.39
  -1   0   4  187.04    9.64
   1   0  -4  191.94    9.90
   1   0  -4  183.40    9.47
  -1   0   3   12.44    1.02
  -1   0   3   13.70    1.10
   1   0  -3   13.70    1.10
   1   0  -3   13.54    1.10
  -1   0   2  870.47   43.57
  -1   0   2  879.78   44.07
   1   0  -2  872.16   43.65
   1   0  -2  856.94   42.89
  -1   0   1  525.50   26.31
  -1   0   1  549.01   27.49
   1   0  -1  552.82   27.66
   1   0  -1  520.68   26.05
  -1   0  -2  817.52   40.94
  -1   0  -2  856.94   42.97
   1   0   2  815.82   40.86
   1   0   2  793.32   39.76
  -1   0  -3  588.18   29.61
  -1   0  -3  567.12   28.51
   1   0   3  562.89   28.34
   1   0   3  595.46   29.95
  -1   0  -4 3311.85  165.63
  -1   0  -4 3137.59  156.92
   1   0   4 3107.98  155.40
   1   0   4 3304.24  165.21
  -1   0  -5 4226.31  211.32
  -1   0  -5 4604.45  230.26
   1   0   5 4576.53  228.83
   1   0   5 4224.62  211.23
  -1   0  -6  105.15    6.09
  -1   0  -6   99.65    5.67
   1   0   6   97.71    5.58
   1   0   6  106.17    6.18
  -1   0  -7  105.23    6.26
  -1   0  -7  105.32    6.09
   1   0   7   99.06    5.84
   1   0   7  102.27    6.01
  -1   0  -8  881.47   44.58
   1   0   8  911.08   46.10
  -1   0  -9 1043.04   52.79
  -1   0  -9 1036.28   52.36
   1   0   9  993.13   50.33
   1   0   9 1057.42   53.46
  -1   0 -10   47.80    3.89
  -1   0 -10   47.37    4.06
   1   0  10   52.70    4.57
   1   0  10   58.54    4.82
  -1   0 -11  436.93   22.67
  -1   0 -11  419.08   21.83
   1   0  11  468.90   24.36
   1   0  11  429.65   22.33
  -1   0 -12   92.21    6.26
  -1   0 -12   99.99    6.43
   1   0  12   89.16    5.75
   1   0  12  103.71    7.19
  -1   0 -13   99.31    6.94
  -1   0 -13   91.78    6.09
   1   0  13   94.66    7.11
   1   0  13   93.73    6.51
  -1   0 -14    3.21    4.23
  -1   0 -14    2.88    4.31
   1   0  14    0.59    4.31
   1   0  14   -2.45    4.31
  -1   0 -15    4.82    4.74
  -1   0 -15   16.66    4.99
   1   0  15   11.00    4.91
   1   0  15    9.90    4.40
  -1   0 -16  115.47    8.21
   1   0  16  115.30    8.37
  -1  -1  16   41.28    4.40
  -1  -1  16   41.45    5.67
   1   1 -16   53.29    5.41
   1   1 -16   39.59    5.84
  -1  -1  15   42.97    5.50
  -1  -1  15   43.99    4.74
   1   1 -15   45.17    5.16
   1   1 -15   45.43    5.08
  -1  -1  14  217.74   12.01
  -1  -1  14  197.10   10.83
   1   1 -14  218.34   12.35
   1   1 -14  209.20   11.67
  -1  -1  13  489.21   25.46
  -1  -1  13  489.12   25.29
   1   1 -13  522.79   27.15
   1   1 -13  477.79   24.79
  -1  -1  12   58.20    4.91
  -1  -1  12   49.74    4.40
  -1  -1  11   35.78    3.89
  -1  -1  11   27.32    3.81
   1   1 -11   26.82    4.15
   1   1 -11   40.44    4.23
  -1  -1  10  483.71   24.87
  -1  -1  10  487.60   25.12
   1   1 -10  503.33   25.97
   1   1 -10  517.21   26.65
  -1  -1   9 1471.93   74.19
  -1  -1   9 1545.53   77.74
   1   1  -9 1387.34   69.96
   1   1  -9 1449.94   73.00
  -1  -1   8  431.60   22.25
  -1  -1   8  434.56   22.25
   1   1  -8  433.12   22.25
   1   1  -8  453.85   23.26
  -1  -1   7 1721.49   86.37
  -1  -1   7 1535.38   77.23
   1   1  -7 1692.72   85.02
   1   1  -7 1706.26   85.61
  -1  -1   6 9999.00  499.53
  -1  -1   5  524.14   26.48
  -1  -1   5  521.52   26.39
   1   1  -5  526.85   26.65
   1   1  -5  526.51   26.56
  -1  -1   4  279.16   14.30
  -1  -1   4  266.13   13.54
   1   1  -4  276.71   14.13
   1   1  -4  250.40   12.77
  -1  -1   3 1141.17   57.19
  -1  -1   3 1167.40   58.45
   1   1  -3 1103.95   55.24
   1   1  -3 1142.86   57.27
   1   1  -1   51.77    2.71
   1   1  -1   46.19    2.45
  -1  -1  -1  865.40   43.31
  -1  -1  -1  842.22   42.13
   1   1   1  825.97   41.37
   1   1   1  889.08   44.50
  -1  -1  -3  253.87   12.94
  -1  -1  -3  263.51   13.45
   1   1   3  241.60   12.35
   1   1   3  241.18   12.35
  -1  -1  -4  387.36   19.71
  -1  -1  -4  386.85   19.63
   1   1   4  381.35   19.46
   1   1   4  364.68   18.53
  -1  -1  -5 3285.63  164.37
  -1  -1  -5 3311.01  165.63
   1   1   5 3200.19  160.05
   1   1   5 3289.86  164.62
  -1  -1  -6 2526.82  126.55
  -1  -1  -6 2678.24  134.17
   1   1   6 2547.97  127.57
   1   1   6 2619.87  131.21
  -1  -1  -7   10.24    2.11
  -1  -1  -7   11.67    2.71
   1   1   7   15.57    2.20
   1   1   7   17.85    2.45
  -1  -1  -8    1.86    2.96
  -1  -1  -8    6.43    2.62
   1   1   8    3.81    2.45
   1   1   8    4.99    2.88
  -1  -1  -9  423.39   21.99
  -1  -1  -9  405.54   20.89
   1   1   9  440.82   22.76
   1   1   9  419.50   21.74
  -1  -1 -10  712.28   36.21
  -1  -1 -10  730.72   37.31
   1   1  10  729.54   37.31
   1   1  10  748.32   38.15
  -1  -1 -11  555.02   28.34
  -1  -1 -11  584.29   30.03
   1   1  11  556.97   28.59
   1   1  11  580.57   29.95
  -1  -1 -12  336.94   17.76
  -1  -1 -12  351.74   18.36
   1   1  12  359.86   19.03
   1   1  12  355.46   18.61
  -1  -1 -13   26.39    4.91
  -1  -1 -13   20.73    3.98
   1   1  13   25.97    4.57
   1   1  13   17.85    3.47
  -1  -1 -14  665.84   34.09
  -1  -1 -14  669.22   34.35
   1   1  14  616.10   31.64
   1   1  14  610.94   31.55
  -1  -1 -15    7.19    4.57
  -1  -1 -15    6.18    4.06
   1   1  15    8.63    4.65
   1   1  15    7.78    4.40
  -1  -2  16   15.65    4.31
  -1  -2  16   13.45    5.50
   1   2 -16   11.76    5.58
   1   2 -16   10.83    3.98
  -1  -2  15  201.08   11.76
  -1  -2  15  174.94    9.90
   1   2 -15  179.51    9.98
   1   2 -15  211.74   12.10
  -1  -2  14    0.76    2.96
  -1  -2  14    1.35    4.74
   1   2 -14    2.88    2.71
   1   2 -14    8.04    4.65
  -1  -2  13  235.85   13.20
  -1  -2  13  218.42   11.84
   1   2 -13  219.61   11.93
   1   2 -13  232.80   13.20
  -1  -2  12    9.14    3.89
  -1  -2  12    4.74    2.96
   1   2 -12    9.81    3.38
   1   2 -12    6.85    3.89
  -1  -2  11   32.82    4.15
  -1  -2  11   28.25    3.38
   1   2 -11   28.68    4.06
   1   2 -11   34.26    3.55
  -1  -2  10    4.48    2.54
  -1  -2  10   12.86    3.05
   1   2 -10    2.79    2.71
   1   2 -10    4.57    2.45
   1   2  -9  987.21   49.99
   1   2  -9  933.92   47.46
  -1  -2   8  479.22   24.45
  -1  -2   8  448.52   23.26
   1   2  -8  505.53   25.97
   1   2  -8  466.28   23.86
  -1  -2   7 1025.28   51.77
  -1  -2   7 1003.28   50.42
   1   2  -7  994.82   50.16
   1   2  -7  964.37   48.56
  -1  -2   6   48.98    3.13
  -1  -2   6   44.16    3.38
   1   2  -6   52.11    3.38
   1   2  -6   57.10    3.72
  -1  -2   5 3742.43  187.21
  -1  -2   5 4145.95  207.26
   1   2  -5 4080.81  203.96
   1   2  -5 3692.52  184.67
  -1  -2   4 1077.73   54.14
  -1  -2   4 1191.93   59.72
   1   2  -4 1137.79   57.02
   1   2  -4 1026.12   51.52
  -1  -2   3  277.38   14.04
  -1  -2   3  289.14   14.72
   1   2  -3  270.95   13.79
   1   2  -3  274.25   13.87
  -1  -2  -2    5.33    0.93
  -1  -2  -2    4.82    0.85
   1   2   2    7.11    0.93
   1   2   2    4.91    1.18
  -1  -2  -3 1658.89   83.07
  -1  -2  -3 1614.05   80.87
   1   2   3 1641.12   82.23
   1   2   3 1709.64   85.61
  -1  -2  -4  731.65   36.88
  -1  -2  -4  787.99   39.67
   1   2   4  802.97   40.35
   1   2   4  708.90   35.78
  -1  -2  -5  149.82    8.04
  -1  -2  -5  134.67    7.44
   1   2   5  147.28    7.87
   1   2   5  134.42    7.36
  -1  -2  -6    3.21    1.78
  -1  -2  -6   -0.68    2.37
   1   2   6   -0.34    2.03
   1   2   6    0.76    2.37
  -1  -2  -7 1665.65   83.66
  -1  -2  -7 1614.90   81.13
   1   2   7 1727.41   86.71
   1   2   7 1663.12   83.58
  -1  -2  -8  436.34   22.67
  -1  -2  -8  455.54   23.43
   1   2   8  477.03   24.53
   1   2   8  453.51   23.60
  -1  -2  -9  154.13    8.71
  -1  -2  -9  129.85    8.04
   1   2   9  126.38    7.78
   1   2   9  147.95    8.37
  -1  -2 -10   17.85    3.21
  -1  -2 -10   20.98    3.47
   1   2  10   16.33    3.21
   1   2  10   21.15    4.06
  -1  -2 -11 1587.83   79.94
  -1  -2 -11 1709.64   85.95
   1   2  11 1552.30   78.33
   1   2  11 1674.96   84.26
  -1  -2 -12    3.89    3.64
  -1  -2 -12    9.05    3.38
   1   2  12   14.89    4.65
   1   2  12    0.59    3.55
  -1  -2 -13   31.81    4.57
  -1  -2 -13   26.22    5.16
   1   2  13   26.14    4.31
   1   2  13   17.43    4.82
  -1  -2 -14   27.83    5.08
  -1  -2 -14   40.18    4.99
   1   2  14   33.75    4.91
   1   2  14   41.03    4.91
  -1  -2 -15  927.15   47.03
  -1  -2 -15  841.20   42.89
   1   2  15  874.70   44.67
   1   2  15  872.16   44.33
  -1  -3  16  344.13   18.61
  -1  -3  16  372.55   19.71
   1   3 -16  372.47   19.71
   1   3 -16  372.97   19.79
  -1  -3  15   56.93    4.99
  -1  -3  15   60.32    5.84
   1   3 -15   58.54    5.50
   1   3 -15   58.20    5.84
  -1  -3  14  753.48   38.57
  -1  -3  14  750.01   38.15
   1   3 -14  793.24   40.27
   1   3 -14  746.46   38.24
  -1  -3  13   10.74    3.21
  -1  -3  13   12.35    3.55
   1   3 -13   17.76    3.72
   1   3 -13   10.41    3.81
  -1  -3  12  794.51   40.52
  -1  -3  12  799.24   40.52
   1   3 -12  722.09   36.97
   1   3 -12  782.07   39.76
  -1  -3  11  341.93   17.85
  -1  -3  11  332.96   17.60
   1   3 -11  327.72   17.34
   1   3 -11  345.57   18.02
  -1  -3  10  395.98   20.47
  -1  -3  10  382.53   20.05
   1   3 -10  411.46   21.32
   1   3 -10  367.81   19.29
  -1  -3   9  127.06    7.36
  -1  -3   9  128.24    7.53
   1   3  -9  125.79    7.61
   1   3  -9  135.52    7.87
  -1  -3   8 1790.85   90.18
  -1  -3   8 1858.53   93.22
   1   3  -8 1782.39   89.67
   1   3  -8 1927.05   96.69
  -1  -3   7  174.77    9.31
  -1  -3   7  164.11    9.14
   1   3  -7  187.12    9.98
   1   3  -7  158.53    8.71
  -1  -3   6  471.95   24.11
  -1  -3   6  499.02   25.29
   1   3  -6  473.90   24.11
   1   3  -6  465.01   23.77
  -1  -3   5  211.23   11.08
  -1  -3   5  214.61   11.08
   1   3  -5  222.06   11.42
   1   3  -5  204.80   10.74
  -1  -3   4 1125.94   56.42
  -1  -3   4 1188.54   59.72
   1   3  -4 1243.53   62.43
   1   3  -4 1175.01   58.88
  -1  -3   3  198.63   10.32
  -1  -3   3  234.07   11.93
   1   3  -3  219.94   11.25
   1   3  -3  204.89   10.57
  -1  -3   2  848.48   42.55
  -1  -3   2  721.42   36.21
   1   3  -2  763.46   38.32
   1   3  -2  884.01   44.33
  -1  -3   1  255.47   13.03
  -1  -3   1  262.07   13.20
   1   3  -1  263.51   13.37
   1   3  -1  254.37   12.86
  -1  -3  -1   85.78    4.57
  -1  -3  -1   95.84    4.99
   1   3   1   80.87    4.31
   1   3   1   89.75    4.74
   1   3   2  616.52   30.96
   1   3   2  520.34   26.22
  -1  -3  -3   77.32    4.40
  -1  -3  -3   78.42    4.31
   1   3   3   78.67    4.31
   1   3   3   76.30    4.31
  -1  -3  -4 2971.78  148.63
  -1  -3  -4 3058.07  153.03
   1   3   4 2931.18  146.69
   1   3   4 2884.65  144.23
  -1  -3  -5 1169.09   58.88
  -1  -3  -5 1147.94   57.61
   1   3   5 1094.65   54.99
   1   3   5 1103.10   55.58
  -1  -3  -6  231.70   12.01
  -1  -3  -6  267.82   14.21
   1   3   6  241.85   12.60
   1   3   6  256.66   13.54
  -1  -3  -7  906.00   46.10
  -1  -3  -7  900.93   45.43
   1   3   7  898.39   45.68
   1   3   7  883.16   44.58
  -1  -3  -8 1417.79   71.48
  -1  -3  -8 1369.58   68.86
   1   3   8 1420.33   71.65
   1   3   8 1395.80   70.21
  -1  -3  -9    7.95    2.71
  -1  -3  -9   10.15    3.30
   1   3   9    4.65    2.71
   1   3   9    8.04    3.64
  -1  -3 -10  253.19   13.96
  -1  -3 -10  255.39   13.54
   1   3  10  242.70   13.37
   1   3  10  239.49   12.77
  -1  -3 -11   14.13    3.21
  -1  -3 -11   17.34    3.21
   1   3  11   20.73    4.31
   1   3  11   12.10    2.96
  -1  -3 -12  546.05   27.92
  -1  -3 -12  544.53   28.17
   1   3  12  529.30   27.32
   1   3  12  521.10   26.73
  -1  -3 -13    5.84    3.21
  -1  -3 -13    3.89    4.65
   1   3  13    7.19    3.64
   1   3  13    6.60    4.15
  -1  -3 -14   65.22    5.41
  -1  -3 -14   53.97    5.92
   1   3  14   71.31    6.34
   1   3  14   52.53    4.99
  -1  -3 -15    7.02    5.24
   1   3  15   12.27    4.74
  -1  -4  16    5.92    4.23
  -1  -4  16   -1.35    5.24
   1   4 -16    8.29    5.84
   1   4 -16   14.13    4.15
  -1  -4  15  118.77    7.53
  -1  -4  15  107.69    7.95
   1   4 -15  111.66    7.61
   1   4 -15  111.49    8.21
  -1  -4  14   43.82    5.75
  -1  -4  14   42.80    4.57
   1   4 -14   46.53    4.91
   1   4 -14   40.52    5.50
  -1  -4  13  449.62   23.26
  -1  -4  13  413.92   21.74
   1   4 -13  427.79   22.42
   1   4 -13  451.56   23.43
  -1  -4  12  465.27   24.36
  -1  -4  12  515.77   26.48
   1   4 -12  457.74   23.94
   1   4 -12  510.95   26.22
  -1  -4  11  509.93   26.14
  -1  -4  11  471.61   24.53
   1   4 -11  510.78   26.31
   1   4 -11  480.24   25.04
  -1  -4  10   85.19    6.18
  -1  -4  10   80.36    5.24
   1   4 -10   91.62    5.84
   1   4 -10   88.06    6.26
  -1  -4   9   74.19    5.24
  -1  -4   9   73.60    4.82
   1   4  -9   79.69    5.08
   1   4  -9   82.23    6.01
  -1  -4   8 1088.72   54.82
  -1  -4   8 1111.56   56.17
   1   4  -8 1120.02   56.68
   1   4  -8 1069.27   53.89
  -1  -4   6  999.05   50.16
  -1  -4   6 1032.89   52.11
   1   4  -6 1013.43   51.18
   1   4  -6  995.67   49.99
  -1  -4   5   78.76    4.91
  -1  -4   5   72.33    4.06
   1   4  -5   73.00    4.15
   1   4  -5   79.18    4.91
  -1  -4   4 2457.45  122.91
  -1  -4   4 2286.57  114.54
   1   4  -4 2507.36  125.45
   1   4  -4 2346.64  117.50
  -1  -4   3  949.14   47.54
  -1  -4   3  791.12   39.84
  -1  -4   2  472.37   23.86
  -1  -4   2  477.70   24.02
   1   4  -2  539.20   27.07
   1   4  -2  504.69   25.46
  -1  -4   1   12.01    1.44
  -1  -4   1   11.50    1.10
   1   4  -1   11.67    1.10
   1   4  -1   15.06    1.52
  -1  -4   0  739.52   37.14
  -1  -4   0  688.00   34.51
   1   4   0  802.29   40.27
   1   4   0  682.42   34.26
  -1  -4  -1 2630.02  131.46
  -1  -4  -1 2535.28  126.72
   1   4   1 2336.48  116.82
   1   4   1 2402.47  120.21
  -1  -4  -2 1225.77   61.42
  -1  -4  -2 1103.10   55.32
   1   4   3  848.48   42.80
   1   4   3 1013.43   50.84
  -1  -4  -4  128.24    6.85
  -1  -4  -4  129.09    7.11
   1   4   4  118.35    6.43
   1   4   4  121.14    6.77
  -1  -4  -5 2066.63  103.63
  -1  -4  -5 2207.05  110.56
   1   4   5 1996.42  100.16
   1   4   5 2239.20  112.09
  -1  -4  -6  371.96   19.03
  -1  -4  -6  412.99   21.49
   1   4   6  373.99   19.46
   1   4   6  393.95   20.13
  -1  -4  -7  273.24   14.72
  -1  -4  -7  259.03   13.37
   1   4   7  253.19   13.20
   1   4   7  253.36   13.62
   1   4   8   81.21    4.82
   1   4   8   89.67    6.34
  -1  -4  -9 2327.18  116.91
  -1  -4  -9 2129.23  106.59
   1   4   9 2072.55  103.88
   1   4   9 2265.42  113.78
  -1  -4 -10  734.78   37.56
  -1  -4 -10  678.95   34.35
   1   4  10  645.96   32.74
   1   4  10  696.72   35.70
  -1  -4 -11  400.64   21.06
  -1  -4 -11  375.26   19.29
   1   4  11  386.51   20.56
   1   4  11  378.56   19.54
  -1  -4 -12  242.70   12.86
  -1  -4 -12  276.37   15.31
   1   4  12  250.99   13.87
   1   4  12  239.82   12.77
  -1  -4 -13  126.55    7.36
  -1  -4 -13  129.94    8.97
   1   4  13  119.28    7.02
   1   4  13  108.20    7.95
  -1  -4 -14  143.05    8.46
  -1  -4 -14  148.04    9.47
   1   4  14  139.83    9.64
   1   4  14  140.85    8.29
  -1  -5  15   12.69    4.91
  -1  -5  15    6.34    3.89
   1   5 -15   17.51    5.58
   1   5 -15   14.55    4.06
  -1  -5  14  614.32   31.30
  -1  -5  14  573.46   29.86
   1   5 -14  644.94   32.82
   1   5 -14  622.78   32.23
  -1  -5  13  109.80    7.78
  -1  -5  13  107.01    6.51
   1   5 -13  109.80    6.60
   1   5 -13  112.68    8.04
  -1  -5  12   36.21    4.48
  -1  -5  12   29.18    3.30
   1   5 -12   29.95    3.47
   1   5 -12   29.69    4.82
  -1  -5  11   63.45    4.48
  -1  -5  11   64.88    5.33
   1   5 -11   71.14    5.92
   1   5 -11   73.00    4.91
  -1  -5  10  155.65    9.39
  -1  -5  10  141.53    7.78
   1   5 -10  149.05    8.12
   1   5 -10  169.53   10.07
  -1  -5   9  744.09   37.64
  -1  -5   9  842.13   42.80
   1   5  -9  846.78   43.14
   1   5  -9  760.25   38.41
  -1  -5   8  336.01   17.26
  -1  -5   8  380.33   19.88
   1   5  -8  342.44   17.60
   1   5  -8  377.88   19.88
  -1  -5   7 1537.92   77.15
  -1  -5   7 1512.54   76.13
   1   5  -7 1521.00   76.30
   1   5  -7 1530.30   77.07
  -1  -5   6 2051.40  102.70
  -1  -5   6 1858.53   93.39
   1   5  -6 1956.66   98.04
   1   5  -6 1878.83   94.49
  -1  -5   5  285.42   15.14
  -1  -5   5  286.43   14.63
   1   5  -5  282.80   14.47
   1   5  -5  259.36   13.79
  -1  -5   4    3.21    2.37
  -1  -5   4    6.34    1.35
   1   5  -4    3.81    1.35
   1   5  -4    3.21    2.03
  -1  -5   3 1021.89   51.18
  -1  -5   3 1023.59   51.52
   1   5  -3 1089.57   54.56
   1   5  -3  982.14   49.40
  -1  -5   2 1659.73   83.16
  -1  -5   2 1703.72   85.19
   1   5  -2 1680.04   84.17
   1   5  -2 1580.21   79.10
  -1  -5   1 1752.79   87.64
  -1  -5   1 1835.69   91.95
   1   5  -1 1908.44   95.51
   1   5  -1 1711.33   85.61
   1   5   0   52.53    3.30
   1   5   0   48.90    2.96
  -1  -5  -1  155.48    8.12
  -1  -5  -1  173.33    9.05
  -1  -5  -2 1520.15   76.22
  -1  -5  -2 1560.76   78.16
   1   5   2 1531.15   76.64
   1   5   2 1377.19   69.03
  -1  -5  -3  420.18   21.32
  -1  -5  -3  375.77   19.20
   1   5   3  387.69   19.71
   1   5   3  361.05   18.53
  -1  -5  -4  371.54   18.95
   1   5   4  287.03   14.72
   1   5   5  457.15   23.18
   1   5   5  414.26   21.40
  -1  -5  -6  565.26   29.02
  -1  -5  -6  619.73   31.38
   1   5   6  577.61   29.27
   1   5   6  505.36   25.97
  -1  -5  -7   62.35    5.16
  -1  -5  -7   65.81    4.23
   1   5   7   60.23    3.98
   1   5   7   63.45    5.24
  -1  -5  -8  233.31   13.03
  -1  -5  -8  212.67   11.25
   1   5   8  213.77   11.93
   1   5   8  224.60   11.84
  -1  -5  -9   18.53    2.54
  -1  -5  -9   23.18    4.82
   1   5   9    9.81    4.57
   1   5   9   13.62    2.37
  -1  -5 -10  427.28   21.83
  -1  -5 -10  489.12   25.63
   1   5  10  440.90   22.59
   1   5  10  449.11   23.77
  -1  -5 -11  185.01   10.07
  -1  -5 -11  214.45   12.60
   1   5  11  190.67   11.34
   1   5  11  166.65    9.05
  -1  -5 -12  374.75   19.96
  -1  -5 -12  358.51   18.53
   1   5  12  362.48   19.46
   1   5  12  326.87   16.92
  -1  -5 -13   -1.27    2.79
  -1  -5 -13    9.98    5.84
   1   5  13    1.69    3.21
   1   5  13    6.60    5.84
  -1  -6  15   63.78    7.53
  -1  -6  15   53.55    4.74
   1   6 -15   53.72    4.48
   1   6 -15   57.35    7.19
  -1  -6  14  339.31   18.36
  -1  -6  14  294.89   15.31
   1   6 -14  295.40   15.48
   1   6 -14  310.46   17.09
  -1  -6  13  672.18   34.01
  -1  -6  13  791.38   40.52
   1   6 -13  739.69   37.90
   1   6 -13  696.55   35.28
  -1  -6  12  278.91   15.40
  -1  -6  12  249.21   13.11
   1   6 -12  267.23   13.96
   1   6 -12  277.05   15.06
  -1  -6  11  353.09   18.19
  -1  -6  11  392.77   20.73
   1   6 -11  408.17   21.57
   1   6 -11  374.41   19.29
  -1  -6  10   36.46    3.21
  -1  -6  10   41.96    4.91
   1   6 -10   35.36    3.05
   1   6 -10   44.07    5.24
  -1  -6   9 1234.23   62.01
  -1  -6   9 1290.90   65.14
   1   6  -9 1246.91   62.68
   1   6  -9 1295.98   65.48
  -1  -6   8  530.57   26.90
  -1  -6   8  507.31   26.14
   1   6  -8  505.53   25.72
   1   6  -8  520.68   26.90
  -1  -6   7  237.54   12.94
  -1  -6   7  265.20   13.79
   1   6  -7  257.93   13.45
   1   6  -7  245.83   13.37
  -1  -6   6  388.46   20.13
  -1  -6   6  398.61   20.30
   1   6  -6  416.03   21.23
   1   6  -6  403.77   20.98
  -1  -6   5   27.49    2.28
  -1  -6   5   21.99    2.96
   1   6  -5   30.20    2.45
   1   6  -5   24.96    3.47
  -1  -6   4  487.60   24.96
  -1  -6   4  474.74   24.02
   1   6  -4  514.16   26.31
   1   6  -4  494.79   25.04
  -1  -6   3  100.84    5.75
   1   6  -3  109.21    6.26
  -1  -6   2  133.83    7.02
  -1  -6   2  134.50    7.36
   1   6  -2  136.70    7.19
   1   6  -2  123.85    6.85
  -1  -6   1  544.53   27.66
  -1  -6   1  520.84   26.31
   1   6  -1  545.97   27.75
   1   6  -1  493.01   24.87
  -1  -6   0 1198.70   60.15
  -1  -6   0 1265.52   63.53
   1   6   0 1271.45   63.78
   1   6   0 1295.13   64.97
  -1  -6  -2   31.64    2.28
  -1  -6  -2   35.02    2.88
   1   6   2   28.85    2.11
   1   6   2   33.16    2.88
  -1  -6  -3 1097.18   55.24
  -1  -6  -3 1120.87   56.17
   1   6   3 1086.19   54.48
   1   6   3 1037.12   52.28
  -1  -6  -4 1094.65   54.90
  -1  -6  -4 1158.09   58.37
   1   6   4  985.52   49.49
   1   6   4 1082.80   54.73
  -1  -6  -5 1048.12   52.62
  -1  -6  -5 1037.97   52.45
   1   6   5 1044.73   52.45
   1   6   5  990.59   50.16
  -1  -6  -6   -3.89    2.96
  -1  -6  -6    0.25    2.20
  -1  -6  -7  289.14   14.97
  -1  -6  -7  244.05   13.11
   1   6   7  222.06   12.18
   1   6   7  241.60   12.60
   1   6   8  202.69   10.74
   1   6   8  192.45   11.17
  -1  -6  -9  352.00   18.10
  -1  -6  -9  322.05   17.34
   1   6   9  326.11   17.68
   1   6   9  319.76   16.50
  -1  -6 -10  203.28   11.59
  -1  -6 -10  201.25   10.83
   1   6  10  187.12   11.00
   1   6  10  186.28   10.07
  -1  -6 -11   10.74    3.21
  -1  -6 -11   19.79    4.82
   1   6  11   15.90    2.96
   1   6  11   19.54    5.67
  -1  -6 -12   79.10    7.53
  -1  -6 -12   81.63    5.41
   1   6  12   80.70    5.75
   1   6  12   70.55    7.11
  -1  -7  14  130.19    9.31
  -1  -7  14  125.03    7.36
   1   7 -14  134.08    7.78
   1   7 -14  132.56    9.47
  -1  -7  13   87.89    5.58
  -1  -7  13   98.30    7.53
   1   7 -13   97.45    6.94
   1   7 -13   98.47    5.92
  -1  -7  12  219.27   12.69
  -1  -7  12  219.35   11.67
   1   7 -12  230.43   12.18
   1   7 -12  247.61   13.70
  -1  -7  11  333.30   17.17
  -1  -7  11  348.53   18.70
   1   7 -11  350.13   18.78
   1   7 -11  349.20   18.02
  -1  -7  10   30.62    4.91
  -1  -7  10   30.37    3.21
   1   7 -10   27.32    3.05
   1   7 -10   19.88    4.82
  -1  -7   9  498.17   25.29
  -1  -7   9  423.05   22.16
   1   7  -9  508.32   25.89
   1   7  -9  438.70   22.84
  -1  -7   8  154.21    8.37
  -1  -7   8  130.02    8.12
   1   7  -8  153.20    8.37
   1   7  -8  136.20    8.12
  -1  -7   7  551.47   28.34
  -1  -7   7  602.73   30.45
   1   7  -7  604.17   30.54
   1   7  -7  560.01   28.76
  -1  -7   6   18.53    3.81
  -1  -7   6   14.04    1.95
   1   7  -6   14.21    2.11
   1   7  -6   18.61    3.72
  -1  -7   5  374.84   19.03
  -1  -7   5  402.75   20.98
   1   7  -5  430.08   22.33
   1   7  -5  391.42   19.88
  -1  -7   4  152.02    8.04
  -1  -7   4  156.08    8.80
   1   7  -4  151.00    8.04
   1   7  -4  160.90    9.05
  -1  -7   3  233.65   12.27
  -1  -7   3  251.16   12.86
   1   7  -3  235.26   12.44
   1   7  -3  266.72   13.70
  -1  -7   2   93.81    5.41
  -1  -7   2  102.70    5.67
   1   7  -2   96.52    5.58
   1   7  -2  104.81    5.67
  -1  -7   1   84.17    4.82
  -1  -7   1   84.68    5.08
  -1  -7   0   62.26    3.98
  -1  -7   0   65.05    4.15
   1   7   0   63.45    4.23
   1   7   0   62.94    4.06
  -1  -7  -1   24.62    2.62
  -1  -7  -1   31.13    2.62
   1   7   1   23.09    2.71
   1   7   1   27.41    2.45
  -1  -7  -2  116.99    6.34
  -1  -7  -2  100.24    5.92
   1   7   2   98.04    5.41
   1   7   2  103.29    6.01
  -1  -7  -3   54.39    3.89
  -1  -7  -3   44.16    2.96
   1   7   3   47.20    3.05
   1   7   3   48.39    3.81
  -1  -7  -4  472.12   23.94
  -1  -7  -4  487.94   25.04
   1   7   4  407.07   20.64
   1   7   4  456.98   23.60
  -1  -7  -5  373.06   18.95
  -1  -7  -5  401.23   20.98
   1   7   5  357.07   18.19
   1   7   5  348.95   18.44
  -1  -7  -6  463.49   23.52
  -1  -7  -6  483.37   25.04
   1   7   6  407.83   21.32
   1   7   6  419.75   21.32
  -1  -7  -7    7.36    4.15
  -1  -7  -7    7.19    2.11
   1   7   7    8.71    3.55
   1   7   7    7.19    2.20
  -1  -7  -8  148.80    9.05
  -1  -7  -8  153.62    8.21
   1   7   8  149.73    8.12
   1   7   8  143.39    9.22
  -1  -7  -9 1016.82   51.26
  -1  -7  -9  887.39   45.09
   1   7   9  763.71   39.00
   1   7   9  842.98   42.47
  -1  -7 -10  280.94   15.65
  -1  -7 -10  324.67   16.92
   1   7  10  284.74   15.73
   1   7  10  286.86   14.89
  -1  -7 -11  416.71   21.40
  -1  -7 -11  358.51   19.12
   1   7  11  349.71   18.02
   1   7  11  325.26   18.02
  -1  -8  13   28.00    6.68
  -1  -8  13   31.47    3.89
   1   8 -13   27.24    3.72
   1   8 -13   27.32    7.02
  -1  -8  12    8.29    5.16
  -1  -8  12   18.86    3.30
   1   8 -12   11.50    3.13
   1   8 -12   16.92    5.84
  -1  -8  11    2.20    2.79
  -1  -8  11    9.47    5.16
   1   8 -11   -1.18    5.58
   1   8 -11   -0.59    3.21
  -1  -8  10    8.12    5.50
  -1  -8  10   13.37    2.79
   1   8 -10   14.21    3.05
   1   8 -10    6.60    4.82
  -1  -8   9  450.89   23.01
  -1  -8   9  406.56   21.40
   1   8  -9  413.16   21.66
   1   8  -9  443.86   22.67
  -1  -8   8   16.33    4.48
  -1  -8   8   25.55    2.62
   1   8  -8   30.62    2.96
   1   8  -8   22.33    4.57
  -1  -8   7  352.00   17.93
  -1  -8   7  370.86   19.63
   1   8  -7  373.31   19.03
   1   8  -7  375.51   19.88
  -1  -8   6  364.94   18.53
  -1  -8   6  387.52   20.30
   1   8  -6  386.51   19.71
   1   8  -6  426.01   22.33
  -1  -8   5  177.39   10.07
  -1  -8   5  168.85    8.80
   1   8  -5  181.96    9.56
   1   8  -5  182.30   10.41
  -1  -8   4    7.02    3.21
  -1  -8   4    6.85    1.69
   1   8  -4    8.37    1.86
   1   8  -4    4.74    3.21
  -1  -8   3  503.59   25.46
  -1  -8   3  448.86   23.01
   1   8  -3  475.93   24.36
   1   8  -3  492.84   24.96
  -1  -8   2  708.64   35.70
  -1  -8   2  664.82   33.67
  -1  -8   1  612.46   31.13
  -1  -8   1  636.23   32.15
   1   8  -1  694.43   35.11
   1   8  -1  644.52   32.65
   1   8   0    4.40    2.28
   1   8   0    3.21    2.54
  -1  -8  -1    2.11    2.28
  -1  -8  -1    3.47    2.28
   1   8   1    2.71    2.20
   1   8   1    1.44    2.28
  -1  -8  -2  468.23   23.77
  -1  -8  -2  400.55   20.56
   1   8   2  392.94   20.22
   1   8   2  455.71   23.18
  -1  -8  -3  723.70   36.71
  -1  -8  -3  702.38   35.36
   1   8   3  667.78   33.92
   1   8   3  672.01   33.84
  -1  -8  -4  102.61    5.84
  -1  -8  -4  111.24    7.19
   1   8   4   96.69    5.41
   1   8   4  107.10    7.11
  -1  -8  -5   62.85    5.58
  -1  -8  -5   61.50    3.89
   1   8   5   52.96    3.47
   1   8   5   58.62    4.99
  -1  -8  -6   87.64    5.16
  -1  -8  -6   91.53    6.34
   1   8   6   87.89    5.16
   1   8   6   88.99    6.77
  -1  -8  -7   72.84    4.65
  -1  -8  -7   74.10    6.34
   1   8   7   68.86    4.23
   1   8   7   72.75    6.18
  -1  -8  -8  104.98    6.09
  -1  -8  -8   88.74    7.11
   1   8   8   85.44    7.02
   1   8   8   94.07    5.50
  -1  -8  -9   57.78    6.01
  -1  -8  -9   76.56    4.82
   1   8   9   72.41    7.02
   1   8   9   71.90    4.74
  -1  -8 -10  119.70    9.14
  -1  -8 -10  108.87    6.51
   1   8  10  106.17    6.34
   1   8  10  129.09    9.47
  -1  -9  11   35.95    3.47
  -1  -9  11   35.87    6.68
   1   9 -11   35.53    4.99
   1   9 -11   30.03    3.47
  -1  -9  10    1.35    5.08
  -1  -9  10    8.29    2.62
   1   9 -10    8.71    4.48
   1   9 -10   11.00    2.71
  -1  -9   9  210.81   11.08
  -1  -9   9  212.08   12.10
   1   9  -9  225.61   11.84
   1   9  -9  233.65   13.28
  -1  -9   8  117.84    8.29
  -1  -9   8  130.87    7.11
   1   9  -8  132.64    7.28
   1   9  -8  129.17    8.46
  -1  -9   7   12.18    4.48
  -1  -9   7    4.06    2.03
   1   9  -7    6.26    2.11
   1   9  -7   10.83    4.06
  -1  -9   6   90.09    5.16
  -1  -9   6  103.63    7.53
   1   9  -6  123.00    8.21
   1   9  -6  102.02    5.75
  -1  -9   5   30.96    4.15
  -1  -9   5   30.28    2.54
   1   9  -5   31.89    2.79
   1   9  -5   29.44    4.48
  -1  -9   4   40.18    2.96
  -1  -9   4   35.19    4.23
   1   9  -4   46.19    4.06
   1   9  -4   38.91    3.05
  -1  -9   3    0.17    3.05
  -1  -9   3    1.86    2.11
   1   9  -3   -0.42    1.95
   1   9  -3   -1.10    2.96
  -1  -9   2  421.45   21.57
  -1  -9   2  355.55   18.36
  -1  -9   1  715.66   36.12
  -1  -9   1  665.84   33.75
   1   9  -1  640.04   32.48
   1   9  -1  750.52   37.98
  -1  -9   0  103.71    6.26
  -1  -9   0  102.95    6.18
   1   9   0   97.88    5.92
   1   9   0   94.07    5.84
   1   9   1  133.57    7.53
   1   9   1  109.13    6.43
  -1  -9  -2   29.27    3.30
  -1  -9  -2   34.51    3.38
   1   9   2   26.65    3.47
   1   9   2   36.38    3.38
  -1  -9  -3  840.53   42.64
  -1  -9  -3  872.16   43.90
   1   9   3  866.24   43.65
   1   9   3  806.18   40.94
  -1  -9  -4  148.21    8.12
  -1  -9  -4  141.36    8.46
   1   9   4  150.07    9.05
   1   9   4  147.70    8.04
  -1  -9  -5  464.08   23.60
  -1  -9  -5  518.73   26.99
   1   9   5  458.50   23.94
   1   9   5  430.24   21.83
  -1  -9  -6   79.77    6.09
  -1  -9  -6   79.77    4.99
   1   9   6   70.97    4.48
   1   9   6   67.59    6.26
  -1  -9  -7  259.11   13.45
  -1  -9  -7  252.94   13.96
   1   9   7  222.31   12.44
   1   9   7  252.34   13.11
  -1  -9  -8    1.10    5.41
  -1  -9  -8    1.69    2.79
   1   9   8    5.08    4.06
   1   9   8    1.18    2.62
  -1 -10   9  161.07   10.57
  -1 -10   9  135.01    7.28
   1  10  -9  140.00    7.70
   1  10  -9  149.05    9.47
  -1 -10   8  582.94   29.44
  -1 -10   8  601.89   31.13
   1  10  -8  629.12   31.72
   1  10  -8  613.22   31.55
  -1 -10   7  384.65   20.64
  -1 -10   7  372.13   18.95
   1  10  -7  396.83   20.22
   1  10  -7  411.72   21.83
  -1 -10   6  118.01    8.37
  -1 -10   6  107.18    6.01
   1  10  -6  104.14    5.92
   1  10  -6  127.91    8.63
  -1 -10   5   70.81    6.68
  -1 -10   5   58.62    3.98
   1  10  -5   79.69    6.60
   1  10  -5   76.13    4.74
  -1 -10   4  296.08   15.31
  -1 -10   4  286.77   15.57
   1  10  -4  307.33   16.33
   1  10  -4  286.69   14.80
   1  10  -2  169.53    9.39
   1  10  -2  150.32    8.54
  -1 -10   1   14.80    3.21
  -1 -10   1   14.30    2.88
   1  10  -1   14.89    3.21
   1  10  -1   14.30    3.13
  -1 -10   0  219.94   11.67
  -1 -10   0  230.26   12.35
   1  10   0  224.43   12.01
   1  10   0  211.40   11.34
  -1 -10  -1    1.61    3.64
  -1 -10  -1    3.38    2.96
   1  10   1   -1.10    3.21
   1  10   1   -1.27    2.79
  -1 -10  -2   57.19    4.65
  -1 -10  -2   45.93    4.57
  -1 -10  -3    3.89    3.89
  -1 -10  -3    1.27    3.13
   1  10   3   -1.52    4.23
   1  10   3    0.51    2.88
  -1 -10  -4  427.54   22.33
  -1 -10  -4  442.17   22.59
   1  10   4  413.07   21.66
   1  10   4  409.27   20.98
  -1 -10  -5   17.85    3.30
  -1 -10  -5   14.80    5.24
   1  10   5   22.92    3.21
   1  10   5   16.58    4.57
  -1 -10  -6   25.72    5.67
  -1 -10  -6   24.36    3.47
   1  10   6   27.24    4.99
   1  10   6   18.27    2.96
  -1 -11   6   37.81    3.47
  -1 -11   6   36.21    6.77
   1  11  -6   26.48    6.18
   1  11  -6   35.36    3.38
  -1 -11   5    0.68    6.26
  -1 -11   5    4.99    2.96
   1  11  -5    4.99    5.50
  -1 -11   4    2.54    5.41
  -1 -11   4    1.61    2.62
   1  11  -4   -2.37    5.16
   1  11  -4   11.59    3.47
  -1 -11   3  716.51   36.54
  -1 -11   3  755.09   38.15
   1  11  -3  698.24   35.61
   1  11  -3  783.85   39.59
  -1 -11   2  408.00   21.15
  -1 -11   2  421.95   21.57
   1  11  -2  435.24   22.25
   1  11  -2  384.48   19.96
  -1 -11   1  178.24   10.07
  -1 -11   1  194.31   10.57
   1  11  -1  172.40    9.56
   1  11  -1  179.17   10.15
  -1 -11   0  170.88    9.56
  -1 -11   0  181.03   10.07
   1  11   0  166.99    9.39
   1  11   0  163.52    9.22
  -1 -11  -1  206.83   11.42
  -1 -11  -1  201.00   11.08
   1  11   1  200.66   11.08
   1  11   1  181.62   10.15
  -1 -11  -2    0.51    4.31
  -1 -11  -2    5.84    4.48
   1  11   2    4.15    4.15
   1  11   2   -3.81    4.15
  -1 -11  -3  143.47    9.22
   1  11   3  149.82    9.56
  -2  12   2  198.80   11.00
   2 -12  -2  184.16   10.49
  -2  12   1   37.48    3.98
  -2  12   1   35.95    4.57
   2 -12  -1   38.66    4.31
   2 -12  -1   33.92    4.65
  -2  12   0   29.02    4.15
  -2  12   0   24.28    3.64
   2 -12   0   28.17    4.23
   2 -12   0   16.41    3.47
  -2  12  -1  145.76    8.97
  -2  12  -1  151.93    8.63
   2 -12   1  147.02    8.88
   2 -12   1  144.74    8.46
  -2  12  -2   60.06    5.58
  -2  12  -2   75.54    5.24
   2 -12   2   71.06    6.18
   2 -12   2   68.01    5.08
  -2  12  -3    0.51    4.65
  -2  12  -3    1.69    3.38
   2 -12   3    6.68    3.38
   2 -12   3    1.27    5.58
  -2  12  -4    6.60    3.81
   2 -12   4   -2.37    3.38
  -2  11   6  412.56   21.91
  -2  11   6  409.27   20.98
   2 -11  -6  419.33   22.16
   2 -11  -6  425.17   21.83
  -2  11   5  134.67    8.88
  -2  11   5  130.44    7.53
   2 -11  -5  147.02    9.47
   2 -11  -5  160.31    8.97
  -2  11   4   74.95    6.01
  -2  11   4   80.79    5.33
   2 -11  -4   87.98    5.92
   2 -11  -4   74.36    6.01
  -2  11   3   18.19    3.21
  -2  11   3   14.38    3.72
   2 -11  -3   24.36    3.72
   2 -11  -3   20.39    3.98
   2 -11  -2  252.09   13.37
   2 -11  -2  300.22   15.73
  -2  11   1  664.91   33.75
  -2  11   1  641.22   32.48
   2 -11  -1  645.79   32.74
   2 -11  -1  693.25   35.19
  -2  11   0  274.42   14.47
  -2  11   0  310.97   16.24
   2 -11   0  294.47   15.57
   2 -11   0  319.76   16.50
  -2  11  -1   35.95    4.06
  -2  11  -1   45.93    4.15
   2 -11   1   40.86    4.31
   2 -11   1   47.03    3.98
  -2  11  -2   31.47    3.64
  -2  11  -2   19.03    4.15
   2 -11   2   28.17    3.38
   2 -11   2   28.51    4.31
  -2  11  -3   15.57    2.88
  -2  11  -3    3.05    4.31
   2 -11   3   10.66    2.37
   2 -11   3    9.90    4.65
  -2  11  -4   27.58    2.96
  -2  11  -4   28.34    5.33
   2 -11   4   30.71    5.58
   2 -11   4   27.75    3.13
  -2  11  -5   72.24    6.77
  -2  11  -5   67.17    4.40
   2 -11   5   71.99    4.57
   2 -11   5   71.48    7.19
  -2  11  -6   57.69    3.98
  -2  11  -6   56.34    6.09
   2 -11   6   51.26    6.68
   2 -11   6   52.36    3.72
  -2  11  -7   47.88    5.33
  -2  11  -7   50.59    3.64
   2 -11   7   47.20    3.55
   2 -11   7   43.06    6.09
  -2  11  -8    7.44    2.96
  -2  10   9   42.21    6.09
   2 -10  -9   49.23    6.09
  -2  10   8  275.69   15.14
  -2  10   8  272.98   14.04
   2 -10  -8  282.04   15.48
   2 -10  -8  282.21   14.63
  -2  10   7   59.05    3.98
  -2  10   7   56.34    5.33
   2 -10  -7   63.19    4.15
   2 -10  -7   60.82    5.58
  -2  10   6    2.71    3.98
  -2  10   6   -1.35    2.37
   2 -10  -6    4.91    4.48
   2 -10  -6    3.21    2.62
  -2  10   5    4.57    4.57
  -2  10   5    4.23    2.45
   2 -10  -5   10.07    2.62
   2 -10  -5    3.64    4.48
  -2  10   4   22.16    3.89
  -2  10   4   21.99    2.96
   2 -10  -4   25.21    3.05
   2 -10  -4   24.70    3.81
  -2  10   2   55.07    4.23
  -2  10   2   43.65    3.72
  -2  10   1  234.41   12.44
  -2  10   1  222.31   11.76
   2 -10  -1  230.01   12.27
   2 -10  -1  202.94   10.91
  -2  10   0  320.10   16.58
  -2  10   0  366.12   18.86
   2 -10   0  350.73   18.10
   2 -10   0  312.24   16.24
   2 -10   1   36.12    3.81
   2 -10   1   36.63    3.30
  -2  10  -2   25.89    2.96
  -2  10  -2   15.40    3.21
   2 -10   2   28.42    3.72
   2 -10   2   20.39    2.45
  -2  10  -3  110.14    7.11
  -2  10  -3  110.48    6.18
   2 -10   3  109.97    6.18
   2 -10   3  103.54    6.94
  -2  10  -4  547.24   27.66
  -2  10  -4  581.41   29.95
   2 -10   4  552.31   28.59
   2 -10   4  532.43   26.90
  -2  10  -5   26.48    5.16
  -2  10  -5   22.59    2.54
   2 -10   5   19.79    5.08
   2 -10   5   24.70    2.45
  -2  10  -6  532.86   27.66
  -2  10  -6  483.96   24.53
   2 -10   6  475.84   24.11
   2 -10   6  495.13   25.97
  -2  10  -7   82.23    4.91
  -2  10  -7   76.47    6.26
   2 -10   7   82.06    4.91
   2 -10   7   77.83    5.84
  -2  10  -8  228.15   11.93
  -2  10  -8  226.20   13.11
   2 -10   8  211.91   12.52
   2 -10   8  207.26   10.91
  -2  10  -9  141.61    7.78
  -2  10  -9  138.73    9.47
   2 -10   9  129.51    9.56
   2 -10   9  143.30    7.95
  -2  10 -10   31.38    3.55
   2 -10  10   31.98    3.64
  -2   9  10    0.00    2.54
  -2   9  10    1.52    5.33
   2  -9 -10   -3.38    2.71
   2  -9 -10   -1.44    5.84
  -2   9   9   14.89    2.45
  -2   9   9   13.79    5.08
   2  -9  -9   15.48    2.62
   2  -9  -9   11.34    5.41
  -2   9   8  123.93    8.29
  -2   9   8  125.20    6.94
   2  -9  -8  146.60    9.39
   2  -9  -8  133.15    7.36
  -2   9   7  505.28   25.63
  -2   9   7  530.32   27.32
   2  -9  -7  542.08   27.41
   2  -9  -7  552.23   28.42
  -2   9   6  187.80   10.83
  -2   9   6  188.48    9.90
   2  -9  -6  210.30   12.01
   2  -9  -6  190.17    9.98
  -2   9   5    1.18    1.78
  -2   9   5    0.25    3.55
   2  -9  -5    4.31    2.11
   2  -9  -5    2.45    3.72
  -2   9   4  139.83    8.04
  -2   9   4  143.81    7.78
   2  -9  -4  153.62    8.29
   2  -9  -4  152.18    8.71
  -2   9   3  380.33   19.63
  -2   9   3  423.56   21.57
   2  -9  -3  434.39   22.16
   2  -9  -3  394.38   20.22
  -2   9   2   76.64    4.82
  -2   9   2   66.74    4.48
   2  -9  -2   78.08    4.91
   2  -9  -2   72.50    4.74
  -2   9   1  243.21   12.77
  -2   9   1  226.20   12.01
   2  -9  -1  242.02   12.86
   2  -9  -1  226.80   12.01
  -2   9   0   24.53    3.05
  -2   9   0   22.25    2.79
   2  -9   0   26.31    2.96
   2  -9   0   22.08    2.88
   2  -9   1  243.97   12.94
   2  -9   1  263.76   13.70
  -2   9  -2  263.93   13.62
  -2   9  -2  227.90   12.10
   2  -9   2  251.24   12.94
   2  -9   2  245.58   13.03
  -2   9  -3    5.33    1.78
  -2   9  -3    4.15    3.05
   2  -9   3    0.68    1.78
   2  -9   3    1.78    3.38
  -2   9  -4  226.46   12.44
  -2   9  -4  202.18   10.49
   2  -9   4  196.17   11.17
   2  -9   4  194.57   10.15
  -2   9  -5 1409.33   70.64
  -2   9  -5 1437.25   72.50
   2  -9   5 1377.19   69.03
   2  -9   5 1345.04   67.93
  -2   9  -6   64.97    5.75
  -2   9  -6   59.38    3.81
   2  -9   6   54.31    3.64
   2  -9   6   70.13    6.18
  -2   9  -7  658.90   33.25
  -2   9  -7  656.87   33.58
   2  -9   7  601.55   30.96
   2  -9   7  635.05   32.06
  -2   9  -8   20.30    4.82
  -2   9  -8   18.19    2.71
   2  -9   8   25.29    5.41
   2  -9   8   27.41    2.96
  -2   9  -9  400.98   20.47
  -2   9  -9  365.02   19.37
   2  -9   9  340.74   18.53
   2  -9   9  400.38   20.47
  -2   9 -10  380.50   19.54
  -2   9 -10  353.43   19.03
   2  -9  10  363.58   19.37
   2  -9  10  383.21   19.63
  -2   9 -11  401.06   20.56
  -2   9 -11  354.53   19.46
   2  -9  11  388.29   20.05
   2  -9  11  363.33   19.54
  -2   8  12    2.45    6.26
  -2   8  12    3.13    3.13
   2  -8 -12   -2.62    3.38
   2  -8 -12   10.74    6.51
  -2   8  11    7.61    5.41
  -2   8  11    2.11    2.54
   2  -8 -11   19.46    6.18
   2  -8 -11    6.51    3.13
  -2   8  10  442.76   23.26
  -2   8  10  500.03   25.38
   2  -8 -10  516.78   26.99
   2  -8 -10  495.80   25.21
  -2   8   9    5.16    2.03
  -2   8   9   12.18    4.82
   2  -8  -9    7.87    4.91
   2  -8  -9    1.86    2.28
  -2   8   8   80.36    6.18
  -2   8   8   84.17    4.91
   2  -8  -8   91.02    5.33
   2  -8  -8   95.34    6.60
  -2   8   7   89.75    5.16
  -2   8   7   89.67    6.34
   2  -8  -7   91.78    5.24
   2  -8  -7   83.66    6.43
  -2   8   6 1299.36   65.14
  -2   8   6 1356.04   68.35
   2  -8  -6 1409.33   70.64
   2  -8  -6 1461.78   73.68
  -2   8   5   70.13    5.08
  -2   8   5   71.57    4.23
   2  -8  -5   87.81    6.01
   2  -8  -5   82.31    4.74
  -2   8   4    6.77    1.61
  -2   8   4    7.87    2.79
   2  -8  -4    6.85    1.78
   2  -8  -4    6.68    2.96
  -2   8   3  143.13    7.87
  -2   8   3  152.95    8.12
   2  -8  -3  157.94    8.63
   2  -8  -3  165.97    8.80
  -2   8   2 2640.18  132.14
  -2   8   2 2376.24  119.02
   2  -8  -2 2692.62  134.76
   2  -8  -2 2428.69  121.65
  -2   8   1  143.89    7.87
  -2   8   1  148.46    8.04
   2  -8  -1  148.55    8.12
   2  -8  -1  156.67    8.46
  -2   8   0  568.30   28.85
  -2   8   0  489.54   24.87
   2  -8   0  460.78   23.52
   2  -8   0  478.63   24.36
  -2   8  -1    8.97    1.78
  -2   8  -1    6.51    2.28
   2  -8   1    7.44    2.45
   2  -8   1    6.60    1.78
  -2   8  -2  399.79   20.30
  -2   8  -2  370.61   19.03
   2  -8   2  363.16   18.70
   2  -8   2  382.53   19.46
  -2   8  -3   52.79    4.15
  -2   8  -3   53.72    3.38
   2  -8   3   47.63    3.13
   2  -8   3   44.67    4.15
  -2   8  -4 1433.02   72.16
  -2   8  -4 1350.12   67.68
   2  -8   4 1385.65   69.87
   2  -8   4 1275.68   63.95
  -2   8  -5   78.84    4.57
  -2   8  -5   94.24    6.51
   2  -8   5   80.70    4.65
   2  -8   5   80.36    6.09
  -2   8  -6  603.92   30.54
  -2   8  -6  539.20   27.75
   2  -8   6  548.93   27.75
   2  -8   6  509.68   26.48
  -2   8  -7   21.91    4.06
  -2   8  -7   21.99    2.71
   2  -8   7   18.95    4.31
   2  -8   7   26.73    2.79
  -2   8  -8   11.00    2.62
  -2   8  -8    5.67    4.15
   2  -8   8   13.96    2.79
   2  -8   8    4.15    4.23
  -2   8  -9   52.45    5.08
  -2   8  -9   49.66    4.06
   2  -8   9   42.30    3.81
   2  -8   9   33.41    5.33
  -2   8 -10  256.66   13.54
  -2   8 -10  241.77   13.79
   2  -8  10  227.90   12.94
   2  -8  10  234.66   12.44
  -2   8 -11  164.03   10.74
  -2   8 -11  167.92    9.14
   2  -8  11  175.62   10.83
   2  -8  11  166.14    9.14
  -2   8 -12  246.17   12.94
  -2   8 -12  243.04   14.30
   2  -8  12  251.16   14.47
   2  -8  12  244.65   12.94
  -2   7  13  199.56   10.83
  -2   7  13  188.48   11.25
   2  -7 -13  204.13   12.18
   2  -7 -13  201.50   11.00
  -2   7  12  283.98   14.89
  -2   7  12  288.30   16.07
   2  -7 -12  312.15   16.24
   2  -7 -12  303.44   16.75
  -2   7  11  302.00   16.58
  -2   7  11  294.13   15.40
   2  -7 -11  327.46   17.00
   2  -7 -11  327.38   18.02
  -2   7  10  395.90   21.06
  -2   7  10  401.14   20.56
   2  -7 -10  416.12   22.08
   2  -7 -10  445.39   22.84
  -2   7   9  557.22   28.76
  -2   7   9  657.04   33.25
  -2   7   8   21.57    2.54
  -2   7   8   18.27    3.98
   2  -7  -8   27.49    2.88
   2  -7  -8   21.23    4.40
  -2   7   7    1.44    2.88
  -2   7   7    1.61    1.61
   2  -7  -7    2.79    1.86
   2  -7  -7    3.30    3.81
  -2   7   6  114.54    6.18
  -2   7   6  123.68    7.44
   2  -7  -6  123.08    6.68
   2  -7  -6  124.44    7.78
  -2   7   5  640.71   32.31
  -2   7   5  715.75   36.38
   2  -7  -5  710.00   35.78
   2  -7  -5  740.96   37.64
  -2   7   4  271.29   14.21
  -2   7   4  276.79   14.13
   2  -7  -4  286.27   14.97
   2  -7  -4  290.50   14.89
  -2   7   3  173.93    9.05
  -2   7   3  177.22    9.47
   2  -7  -3  183.06    9.56
   2  -7  -3  161.74    8.71
  -2   7   2  639.78   32.40
  -2   7   2  642.66   32.40
   2  -7  -2  649.17   32.82
   2  -7  -2  662.03   33.41
  -2   7   1 4749.10  237.37
  -2   7   1 4728.80  236.44
   2  -7  -1 4750.79  237.46
   2  -7  -1 4631.52  231.53
  -2   7   0  488.78   24.87
  -2   7   0  420.69   21.49
   2  -7   0  412.90   21.15
   2  -7   0  383.63   19.54
  -2   7  -1  148.29    8.04
  -2   7  -1  137.21    7.28
   2  -7   1  129.51    7.19
   2  -7   1  137.47    7.28
  -2   7  -2   49.66    3.05
  -2   7  -2   45.51    3.30
   2  -7   2   49.06    3.55
   2  -7   2   53.55    3.21
  -2   7  -3  920.38   46.27
  -2   7  -3  954.22   48.13
   2  -7   3  895.85   45.26
   2  -7   3  852.71   42.80
  -2   7  -4 1511.69   76.05
  -2   7  -4 1503.23   75.37
   2  -7   4 1506.62   75.46
   2  -7   4 1592.90   80.20
  -2   7  -5  986.36   49.99
  -2   7  -5  983.83   49.49
   2  -7   5  924.61   46.87
   2  -7   5  960.14   48.30
  -2   7  -6  666.18   33.67
  -2   7  -6  619.82   31.64
   2  -7   6  660.34   33.41
   2  -7   6  552.14   28.42
  -2   7  -7  672.94   34.01
  -2   7  -7  624.39   31.89
   2  -7   7  653.49   33.08
   2  -7   7  609.08   31.22
  -2   7  -8   56.09    4.74
  -2   7  -8   51.09    3.72
   2  -7   8   60.06    5.24
   2  -7   8   68.86    4.57
  -2   7  -9  138.40    7.70
  -2   7  -9  147.95    9.14
   2  -7   9  133.74    7.44
   2  -7   9  146.69    9.39
  -2   7 -10  174.09   10.24
  -2   7 -10  168.09    9.14
   2  -7  10  167.41    9.22
   2  -7  10  165.47    9.90
  -2   7 -11   -0.68    2.54
  -2   7 -11    4.91    4.99
   2  -7  11    7.95    4.40
   2  -7  11    1.27    2.62
  -2   7 -12   81.72    7.36
  -2   7 -12   86.96    5.50
   2  -7  12   83.75    6.26
   2  -7  12   78.25    5.16
  -2   7 -13   95.08    6.01
  -2   7 -13  103.71    7.36
   2  -7  13   95.42    8.04
   2  -7  13   90.85    5.92
  -2   6  14  163.69    9.14
  -2   6  14  179.09   10.83
   2  -6 -14  181.96   11.25
   2  -6 -14  170.12    9.47
  -2   6  13    7.53    3.13
  -2   6  13   13.87    5.33
   2  -6 -13    3.81    2.71
   2  -6 -13   10.49    5.67
  -2   6  12  384.56   20.30
  -2   6  12  390.23   20.05
   2  -6 -12  407.66   20.98
   2  -6 -12  420.35   22.33
  -2   6  11   26.56    3.98
  -2   6  11   28.34    3.13
   2  -6 -11   34.60    5.08
   2  -6 -11   31.89    3.30
  -2   6  10  108.28    7.19
  -2   6  10   99.91    6.01
   2  -6 -10  102.36    6.09
   2  -6 -10  110.56    7.78
  -2   6   9  125.62    7.02
  -2   6   9  117.50    7.53
   2  -6  -9  123.25    6.94
   2  -6  -9  116.15    7.87
  -2   6   8 1303.59   65.73
  -2   6   8 1511.69   75.80
   2  -6  -8 1377.19   69.45
   2  -6  -8 1584.44   79.43
  -2   6   7  278.65   14.38
  -2   6   7  257.76   13.79
   2  -6  -7  274.25   14.72
   2  -6  -7  322.98   16.66
  -2   6   6  335.25   17.09
  -2   6   6  313.59   16.50
  -2   6   5  496.65   25.46
  -2   6   5  496.31   25.04
   2  -6  -5  531.00   27.24
   2  -6  -5  530.07   26.82
  -2   6   4   38.57    2.54
   2  -6  -4   49.32    3.13
  -2   6   3  126.30    6.85
   2  -6  -3  133.57    7.19
  -2   6   2   50.93    3.21
  -2   6   2   54.56    3.21
   2  -6  -2   63.53    3.81
   2  -6  -2   55.24    3.30
  -2   6   1  884.01   44.41
  -2   6   1 1018.51   51.18
   2  -6  -1  916.15   46.02
   2  -6  -1  938.99   47.12
  -2   6   0 1378.03   69.20
  -2   6   0 1235.07   61.84
   2  -6   0 1302.75   65.22
   2  -6   0 1383.11   69.37
  -2   6  -1 1190.24   59.64
  -2   6  -1 1095.49   55.07
   2  -6   1 1149.63   57.69
   2  -6   1 1157.24   57.95
  -2   6  -2  386.26   19.54
  -2   6  -2  369.00   18.86
   2  -6   2  382.20   19.29
   2  -6   2  348.27   17.85
  -2   6  -3    1.18    1.35
   2  -6   3    0.59    1.35
  -2   6  -4 1004.98   50.84
  -2   6  -4 1079.42   54.22
  -2   6  -5  310.97   16.33
  -2   6  -5  317.23   16.33
   2  -6   5  307.84   16.16
   2  -6   5  317.99   16.41
  -2   6  -6  830.80   42.13
  -2   6  -6  904.31   45.51
   2  -6   6  851.01   43.23
   2  -6   6  895.85   45.17
  -2   6  -7  551.47   28.00
  -2   6  -7  587.25   30.20
   2  -6   7  550.88   27.92
   2  -6   7  600.45   30.88
  -2   6  -8  813.79   41.03
  -2   6  -8  851.01   43.31
   2  -6   8  876.39   44.58
   2  -6   8  788.84   39.84
  -2   6  -9  198.80   10.49
  -2   6  -9  217.41   12.27
   2  -6   9  190.17   10.15
   2  -6   9  215.04   12.01
  -2   6 -10  914.46   46.10
  -2   6 -10 1010.90   51.35
   2  -6  10  878.93   44.33
   2  -6  10  927.15   47.29
  -2   6 -11  829.19   42.30
  -2   6 -11  788.67   39.84
   2  -6  11  790.61   40.52
   2  -6  11  753.56   38.07
  -2   6 -12   23.52    5.08
  -2   6 -12   21.15    3.13
   2  -6  12   19.29    5.41
   2  -6  12   13.20    3.13
  -2   6 -13   12.94    5.58
  -2   6 -13    4.31    2.96
   2  -6  13   10.66    4.91
   2  -6  13    4.57    3.38
  -2   6 -14   93.98    6.18
  -2   6 -14  108.96    8.12
   2  -6  14  106.00    8.46
   2  -6  14   97.11    6.43
  -2   5  15  173.42    9.73
  -2   5  15  167.50   10.15
   2  -5 -15  187.04   11.00
   2  -5 -15  167.33    9.56
  -2   5  14   49.57    4.31
  -2   5  14   55.07    5.50
   2  -5 -14   54.90    4.31
   2  -5 -14   59.55    6.77
  -2   5  13    2.11    4.74
  -2   5  13   -2.79    3.05
   2  -5 -13    0.17    2.79
   2  -5 -13    2.37    5.08
  -2   5  12    9.98    3.38
  -2   5  12    6.85    2.62
   2  -5 -12    7.78    4.31
   2  -5 -12    8.54    2.79
  -2   5  11  207.17   11.67
  -2   5  11  188.98   10.15
   2  -5 -11  187.04   10.07
   2  -5 -11  202.86   11.59
  -2   5  10   10.41    2.20
  -2   5  10    4.99    3.89
   2  -5 -10    4.99    1.95
   2  -5 -10    7.87    3.81
  -2   5   9  412.65   21.40
  -2   5   9  360.03   18.44
   2  -5  -9  388.62   20.47
   2  -5  -9  380.25   19.46
  -2   5   8    7.53    2.03
  -2   5   8   13.45    3.47
   2  -5  -8   10.41    3.30
   2  -5  -8   14.63    2.20
  -2   5   7  984.67   49.49
  -2   5   7  931.38   47.12
   2  -5  -7  967.75   48.98
   2  -5  -7  997.36   50.16
  -2   5   6 1349.27   67.93
  -2   5   6 1388.19   69.62
   2  -5  -6 1430.48   71.82
   2  -5  -6 1427.10   71.82
  -2   5   5  768.87   38.74
  -2   5   5  771.33   39.00
   2  -5  -5  812.44   41.03
   2  -5  -5  922.92   46.44
  -2   5   4   26.31    2.45
  -2   5   4   25.38    2.03
   2  -5  -4   25.46    2.28
   2  -5  -4   27.58    1.95
  -2   5   3 2369.48  118.52
  -2   5   3 2674.86  133.74
   2  -5  -3 2756.92  137.80
   2  -5  -3 2488.75  124.52
  -2   5   2 2569.12  128.50
  -2   5   2 2786.52  139.33
   2  -5  -2 2807.67  140.34
   2  -5  -2 2891.42  144.57
  -2   5   1 1656.35   82.90
  -2   5   1 1433.87   71.82
   2  -5  -1 1411.87   70.64
   2  -5  -1 1482.09   74.19
  -2   5   0 3858.33  192.79
  -2   5   0 4243.23  212.08
   2  -5   0 4083.35  204.13
   2  -5   0 3728.90  186.28
   2  -5   1  122.41    6.51
   2  -5   1  134.59    6.94
  -2   5  -2  579.13   29.27
  -2   5  -2  631.75   31.72
   2  -5   2  615.00   30.96
   2  -5   2  542.50   27.49
  -2   5  -3  330.51   16.75
  -2   5  -3  320.36   16.58
   2  -5   3  340.74   17.34
   2  -5   3  313.76   16.24
  -2   5  -4  598.08   30.45
  -2   5  -4  637.75   32.15
   2  -5   4  607.72   30.62
   2  -5   4  576.59   29.35
  -2   5  -5    0.59    1.44
  -2   5  -5   -2.54    2.54
   2  -5   5    0.68    1.44
   2  -5   5    0.17    2.54
  -2   5  -6  165.04    9.31
  -2   5  -7    1.86    1.86
  -2   5  -7    2.37    3.13
   2  -5   7    7.19    2.96
   2  -5   7    5.92    2.11
  -2   5  -8  591.65   30.03
  -2   5  -8  611.28   31.38
   2  -5   8  614.57   31.55
   2  -5   8  566.44   28.76
  -2   5  -9    6.01    2.54
  -2   5  -9    6.26    2.79
   2  -5   9    3.89    3.64
   2  -5   9    1.61    2.71
  -2   5 -10  235.93   13.11
  -2   5 -10  242.02   12.94
   2  -5  10  232.38   12.69
   2  -5  10  215.88   11.59
  -2   5 -11  639.45   32.57
  -2   5 -11  624.47   32.15
   2  -5  11  619.06   31.89
   2  -5  11  637.92   32.48
  -2   5 -12  291.26   15.40
  -2   5 -12  281.19   15.23
   2  -5  12  280.26   15.48
   2  -5  12  281.53   14.89
  -2   5 -13  330.68   17.26
  -2   5 -13  296.59   16.41
   2  -5  13  307.58   16.24
   2  -5  13  297.09   16.24
  -2   5 -14    2.54    5.16
  -2   5 -14    2.45    4.15
   2  -5  14    3.98    3.89
   2  -5  14    3.13    5.67
  -2   4  15    7.95    5.58
  -2   4  15    9.47    3.30
   2  -4 -15    0.08    5.50
   2  -4 -15    4.91    3.30
  -2   4  14  474.49   24.87
  -2   4  14  455.20   23.43
   2  -4 -14  467.13   24.02
   2  -4 -14  478.12   25.04
  -2   4  13  550.54   28.09
  -2   4  13  619.40   31.89
   2  -4 -13  624.22   31.81
   2  -4 -13  636.82   32.82
  -2   4  12  201.00   11.34
  -2   4  12  196.51   10.66
   2  -4 -12  202.60   11.76
   2  -4 -12  203.11   11.00
  -2   4  11  167.75    9.22
  -2   4  11  177.31   10.32
   2  -4 -11  188.22   10.91
   2  -4 -11  176.46    9.64
  -2   4  10   36.46    3.05
  -2   4  10   38.83    4.31
   2  -4 -10   42.80    4.91
   2  -4 -10   30.45    2.96
  -2   4   9 1395.80   70.47
  -2   4   9 1230.84   61.84
   2  -4  -9 1298.52   65.22
   2  -4  -9 1373.80   69.37
  -2   4   8  335.33   17.17
  -2   4   8  355.38   18.61
   2  -4  -8  357.07   18.86
   2  -4  -8  319.76   16.50
  -2   4   7   62.09    4.23
  -2   4   7   61.67    3.89
   2  -4  -7   60.65    3.81
   2  -4  -7   61.42    4.57
  -2   4   6  113.69    6.18
  -2   4   6  120.04    6.77
   2  -4  -6  112.09    6.26
   2  -4  -6  111.24    6.01
  -2   4   5  516.61   26.22
  -2   4   5  578.71   29.18
   2  -4  -5  529.56   26.90
   2  -4  -5  550.88   27.83
  -2   4   4 3719.59  186.02
  -2   4   4 3623.16  181.12
   2  -4  -4 3667.15  183.40
   2  -4  -4 3953.92  197.61
  -2   4   3  539.12   27.15
  -2   4   3  477.36   24.11
   2  -4  -3  555.27   27.92
   2  -4  -3  504.01   25.46
  -2   4   2 2522.59  126.13
  -2   4   2 2594.50  129.68
   2  -4  -2 2754.38  137.63
   2  -4  -2 2751.84  137.55
  -2   4   1 2962.48  148.04
  -2   4   1 2531.05  126.55
   2  -4  -1 2635.95  131.71
   2  -4  -1 2473.53  123.68
  -2   4   0 2376.24  118.85
  -2   4   0 2108.93  105.40
   2  -4   0 2214.67  110.73
   2  -4   0 2134.30  106.67
  -2   4  -1   91.95    4.82
  -2   4  -1   87.72    4.74
   2  -4   1   87.39    4.57
   2  -4   1   81.97    4.48
  -2   4  -2  302.59   15.31
  -2   4  -2  269.26   13.87
   2  -4   2  297.18   15.06
   2  -4   2  252.26   12.94
  -2   4  -3  351.83   17.76
  -2   4  -3  344.64   17.68
   2  -4   3  343.62   17.60
   2  -4   3  344.30   17.43
  -2   4  -4 1136.10   57.19
  -2   4  -4 1114.95   55.92
   2  -4   4 1120.02   56.34
   2  -4   4 1085.34   54.48
  -2   4  -5 4244.92  212.42
  -2   4  -5 3705.21  185.26
   2  -4   5 3939.54  196.93
   2  -4   5 4053.74  202.86
  -2   4  -6  118.01    6.60
  -2   4  -6  121.31    7.11
   2  -4   6  121.31    7.11
   2  -4   6  114.96    6.43
  -2   4  -7   11.93    3.38
   2  -4   7   12.44    3.05
  -2   4  -8  199.22   11.17
  -2   4  -8  195.07   10.57
   2  -4   8  182.98   10.15
   2  -4   8  184.41   10.15
  -2   4  -9  871.32   44.07
  -2   4  -9  849.32   43.23
   2  -4   9  860.32   43.82
   2  -4   9  900.08   45.60
  -2   4 -10   -2.28    3.05
  -2   4 -10   -1.78    3.55
   2  -4  10    0.34    3.72
   2  -4  10   -0.85    3.05
  -2   4 -11   38.07    3.89
  -2   4 -11   27.66    4.48
   2  -4  11   45.85    4.48
   2  -4  11   40.35    4.40
  -2   4 -12    9.05    4.15
  -2   4 -12    3.13    3.64
   2  -4  12   11.08    3.98
   2  -4  12    6.09    4.65
  -2   4 -13  253.19   14.04
  -2   4 -13  281.70   14.97
   2  -4  13  266.72   14.80
   2  -4  13  298.87   15.99
  -2   4 -14   52.53    5.92
  -2   4 -14   50.50    5.41
   2  -4  14   59.64    5.24
   2  -4  14   58.45    5.84
  -2   4 -15  139.50    8.54
  -2   4 -15  123.51    9.14
   2  -4  15  126.21    8.21
   2  -4  15  121.14    8.71
  -2   3  16  241.43   13.62
  -2   3  16  229.08   12.69
   2  -3 -16  247.69   14.04
   2  -3 -16  266.81   14.38
  -2   3  15   81.97    6.09
  -2   3  15   79.26    6.85
   2  -3 -15   90.18    7.19
   2  -3 -15   98.55    6.51
  -2   3  14    7.44    3.89
  -2   3  14    5.50    4.74
   2  -3 -14   12.69    4.74
   2  -3 -14    9.05    4.06
  -2   3  13  352.67   18.78
  -2   3  13  347.77   18.19
   2  -3 -13  366.04   19.20
   2  -3 -13  335.92   18.10
  -2   3  12  314.94   16.58
  -2   3  12  287.20   15.48
   2  -3 -12  285.17   15.65
   2  -3 -12  294.56   15.57
  -2   3  11  423.65   22.16
  -2   3  11  468.82   24.11
   2  -3 -11  464.42   23.86
   2  -3 -11  439.38   23.01
  -2   3  10  530.07   27.15
  -2   3  10  506.29   26.05
   2  -3 -10  536.16   27.66
   2  -3 -10  556.71   28.42
  -2   3   9  406.05   21.23
  -2   3   9  422.46   21.66
   2  -3  -9  408.25   21.32
   2  -3  -9  449.95   23.09
  -2   3   8 4513.93  225.87
  -2   3   8 4795.63  239.91
   2  -3  -8 4302.45  215.38
   2  -3  -8 4640.82  232.13
  -2   3   7 3540.25  177.14
  -2   3   7 3424.36  171.47
   2  -3  -7 3393.06  169.95
   2  -3  -7 3568.17  178.49
  -2   3   6   91.11    5.08
  -2   3   6   95.08    5.50
   2  -3  -6   92.21    5.41
   2  -3  -6   88.32    4.99
  -2   3   5  289.40   14.89
  -2   3   5  289.82   14.80
   2  -3  -5  292.53   14.89
   2  -3  -5  308.34   15.82
  -2   3   4   74.02    4.23
  -2   3   4   71.90    3.98
   2  -3  -4   68.61    3.98
   2  -3  -4   73.51    3.98
  -2   3   3 6332.70  316.38
   2  -3  -3 4964.82  248.03
  -2   3   2  833.59   41.79
  -2   3   2  745.10   37.39
   2  -3  -2  778.18   39.00
   2  -3  -2  882.31   44.16
   2  -3  -1   50.67    2.79
   2  -3  -1   52.70    2.88
  -2   3   0 1287.52   64.46
  -2   3   0 1220.69   61.08
   2  -3   0 1226.61   61.42
   2  -3   0 1229.15   61.50
  -2   3  -1  128.08    6.60
  -2   3  -1  109.55    5.75
  -2   3  -2  124.44    6.43
  -2   3  -2  116.40    6.18
   2  -3   2  121.31    6.26
   2  -3   2  116.99    6.18
  -2   3  -3  599.60   30.12
  -2   3  -3  545.63   27.58
   2  -3   3  580.40   29.27
   2  -3   3  594.95   29.95
  -2   3  -4  633.52   32.06
  -2   3  -4  678.19   34.18
   2  -3   4  659.24   33.33
   2  -3   4  652.39   32.91
  -2   3  -5  944.07   47.54
  -2   3  -5  867.09   43.82
   2  -3   5  964.37   48.64
   2  -3   5  911.92   45.93
  -2   3  -6 1954.97   97.96
  -2   3  -6 2052.25  103.04
   2  -3   6 2015.87  101.09
   2  -3   6 2109.77  105.74
  -2   3  -7  598.42   30.37
  -2   3  -7  672.78   34.35
   2  -3   7  673.54   34.09
   2  -3   7  636.57   32.57
  -2   3  -8 1681.73   84.59
  -2   3  -8 1630.97   81.97
   2  -3   8 1647.89   82.90
   2  -3   8 1734.18   87.30
  -2   3  -9  278.57   14.97
  -2   3  -9  304.71   15.99
   2  -3   9  289.73   15.48
   2  -3   9  306.23   16.07
  -2   3 -10  479.65   24.79
  -2   3 -10  515.01   26.39
   2  -3  10  503.25   25.97
   2  -3  10  476.69   24.79
  -2   3 -11  378.47   19.63
  -2   3 -11  390.74   20.47
   2  -3  11  414.76   21.57
   2  -3  11  383.46   20.13
  -2   3 -12   13.03    4.31
  -2   3 -12    5.16    3.72
   2  -3  12    7.36    3.72
   2  -3  12    5.75    3.13
  -2   3 -13  214.95   11.93
  -2   3 -13  245.75   13.79
   2  -3  13  223.84   12.60
   2  -3  13  226.97   12.60
  -2   3 -14  612.54   31.38
  -2   3 -14  649.85   33.41
   2  -3  14  620.58   32.15
   2  -3  14  635.47   32.48
  -2   3 -15   90.35    7.70
  -2   3 -15   85.61    6.94
   2  -3  15   84.42    6.68
   2  -3  15   84.17    7.78
  -2   2  16   -2.88    4.57
  -2   2  16   -5.75    5.08
   2  -2 -16   -1.27    4.74
   2  -2 -16    2.20    4.74
  -2   2  15  169.61   10.07
  -2   2  15  190.93   11.00
   2  -2 -15  181.28   10.49
   2  -2 -15  164.54   10.15
  -2   2  14  236.61   13.28
  -2   2  14  236.36   12.94
   2  -2 -14  260.21   14.04
   2  -2 -14  240.08   13.37
  -2   2  13   31.81    3.89
  -2   2  13   29.52    4.15
   2  -2 -13   27.66    4.57
   2  -2 -13   32.82    3.30
  -2   2  12   78.93    5.92
  -2   2  12   82.23    5.67
   2  -2 -12   74.19    5.16
   2  -2 -12   86.71    5.75
  -2   2  11    8.21    3.05
  -2   2  11    0.17    3.55
   2  -2 -11   -1.18    3.38
   2  -2 -11    8.12    3.13
  -2   2  10  360.03   18.70
  -2   2  10  374.75   19.63
   2  -2 -10  345.23   17.93
   2  -2 -10  348.36   18.44
  -2   2   9  207.42   11.17
   2  -2  -9  199.81   10.83
  -2   2   8 1090.42   54.99
  -2   2   8 1100.57   55.49
   2  -2  -8 1120.02   56.51
   2  -2  -8 1078.57   54.31
  -2   2   7 2638.48  132.14
  -2   2   7 2594.50  129.94
   2  -2  -7 2652.02  132.81
   2  -2  -7 2680.78  134.34
  -2   2   6  890.77   44.92
  -2   2   6  879.78   44.33
   2  -2  -6  883.16   44.50
   2  -2  -6  849.32   42.80
  -2   2   5   67.42    4.06
  -2   2   5   60.99    3.64
   2  -2  -5   65.14    3.81
   2  -2  -5   68.86    3.89
  -2   2   4  291.60   14.89
  -2   2   4  338.04   17.17
   2  -2  -4  305.55   15.57
   2  -2  -4  322.39   16.33
  -2   2   3 1998.95   99.91
  -2   2   3 1971.04   98.64
   2  -2  -3 1897.44   94.91
   2  -2  -3 1882.21   94.07
  -2   2   2 1532.84   76.64
  -2   2   2 1766.32   88.32
   2  -2  -2 1768.86   88.40
   2  -2  -2 1526.07   76.39
  -2   2   0  490.39   24.62
  -2   2   0  538.19   26.99
   2  -2   0  541.99   27.15
   2  -2   0  488.70   24.53
  -2   2  -1 1274.83   63.78
  -2   2  -1 1334.05   66.74
   2  -2   1 1304.44   65.22
   2  -2   1 1213.92   60.74
  -2   2  -2  946.61   47.46
  -2   2  -2  850.17   42.64
   2  -2   2  951.68   47.71
   2  -2   2  826.74   41.54
  -2   2  -3  123.85    6.51
  -2   2  -3  122.91    6.60
   2  -2   3  125.20    6.60
   2  -2   3  120.97    6.43
  -2   2  -4  245.49   12.77
  -2   2  -4  233.31   12.01
   2  -2   4  249.04   12.86
   2  -2   4  249.55   12.86
  -2   2  -5  554.17   28.17
  -2   2  -5  544.45   27.49
   2  -2   5  528.46   26.90
   2  -2   5  514.58   26.05
  -2   2  -6  326.19   17.00
  -2   2  -6  308.94   15.90
   2  -2   6  313.08   16.16
   2  -2   6  314.01   16.24
  -2   2  -7  978.75   49.57
  -2   2  -7 1018.51   51.35
   2  -2   7 1016.82   51.35
   2  -2   7  989.75   49.91
  -2   2  -8  163.52    9.22
   2  -2   8  160.22    9.39
  -2   2  -9  743.83   37.90
  -2   2  -9  691.81   35.19
   2  -2   9  690.46   35.36
   2  -2   9  708.30   36.12
  -2   2 -10  633.27   32.31
  -2   2 -10  717.44   36.63
   2  -2  10  661.52   33.92
   2  -2  10  657.80   33.58
  -2   2 -11  940.68   47.54
  -2   2 -11  988.90   50.16
   2  -2  11 1001.59   50.93
   2  -2  11  962.68   48.73
  -2   2 -12  213.26   12.10
  -2   2 -12  205.65   11.25
   2  -2  12  178.83   10.24
   2  -2  12  213.52   12.01
  -2   2 -13  209.29   12.10
  -2   2 -13  195.16   10.91
   2  -2  13  186.28   10.66
   2  -2  13  185.77   11.25
  -2   2 -14  351.06   18.36
  -2   2 -14  332.54   18.02
   2  -2  14  360.20   18.95
   2  -2  14  333.13   17.60
  -2   2 -15  326.45   17.76
  -2   2 -15  320.44   17.26
   2  -2  15  307.92   16.41
   2  -2  15  327.12   17.93
  -2   1  16   24.19    4.74
  -2   1  16   28.42    4.31
   2  -1 -16   28.34    4.40
   2  -1 -16   18.36    5.50
  -2   1  15   29.02    4.74
  -2   1  15   23.26    4.65
   2  -1 -15   13.79    4.48
   2  -1 -15   25.04    5.24
  -2   1  14 1070.96   54.06
  -2   1  14 1127.64   57.10
   2  -1 -14 1134.40   57.52
   2  -1 -14 1119.18   56.59
  -2   1  13  694.09   35.53
  -2   1  13  661.27   33.75
   2  -1 -13  670.58   34.26
   2  -1 -13  622.78   32.06
  -2   1  12  194.90   11.08
  -2   1  12  193.13   10.66
   2  -1 -12  181.88   10.07
   2  -1 -12  180.27   10.41
  -2   1  11   55.49    4.91
  -2   1  11   62.94    4.65
   2  -1 -11   60.40    4.74
   2  -1 -11   59.72    4.74
  -2   1  10 1350.96   68.18
  -2   1  10 1260.45   63.53
   2  -1 -10 1333.20   67.25
   2  -1 -10 1315.44   66.32
  -2   1   9  176.97    9.81
  -2   1   9  150.58    8.46
   2  -1  -9  170.20    9.56
   2  -1  -9  156.08    8.80
  -2   1   8  479.56   24.53
  -2   1   8  491.32   25.12
   2  -1  -8  469.67   24.02
   2  -1  -8  487.35   24.96
  -2   1   7  120.97    6.77
  -2   1   7  106.08    6.09
   2  -1  -7  103.37    6.01
   2  -1  -7  109.97    6.18
  -2   1   6  288.21   14.89
  -2   1   6  272.39   14.04
   2  -1  -6  269.18   13.87
   2  -1  -6  275.69   14.21
  -2   1   5   19.63    1.78
  -2   1   5   15.90    1.69
   2  -1  -5   19.37    1.78
   2  -1  -5   18.53    1.61
  -2   1   4   84.68    4.57
  -2   1   4   85.69    4.65
   2  -1  -4   84.09    4.57
   2  -1  -4   84.85    4.57
  -2   1   3  213.18   10.83
  -2   1   3  219.01   11.08
   2  -1  -3  212.75   10.83
   2  -1  -3  212.08   10.74
  -2   1   1  161.07    8.12
  -2   1   1  143.81    7.28
   2  -1  -1  154.05    7.78
   2  -1  -1  143.30    7.19
  -2   1   0 1572.60   78.67
  -2   1   0 1567.53   78.42
   2  -1   0 1423.72   71.23
  -2   1  -1  539.20   27.07
  -2   1  -1  502.23   25.21
   2  -1   1  498.09   25.04
   2  -1   1  513.40   25.72
  -2   1  -2  585.31   29.44
  -2   1  -2  596.13   29.95
   2  -1   2  557.30   28.00
   2  -1   2  581.24   29.18
  -2   1  -3 6772.59  338.29
  -2   1  -4 3371.91  168.68
  -2   1  -4 3366.84  168.34
   2  -1   4 3342.31  167.16
   2  -1   4 3430.28  171.56
  -2   1  -5  377.80   19.29
  -2   1  -5  365.95   18.86
   2  -1   5  363.67   18.61
   2  -1   5  385.49   19.71
  -2   1  -6  290.33   15.14
  -2   1  -6  289.90   15.06
   2  -1   6  311.64   16.16
   2  -1   6  298.79   15.57
  -2   1  -7   46.19    3.47
  -2   1  -7   39.59    3.64
   2  -1   7   38.66    3.55
   2  -1   7   37.90    3.38
  -2   1  -8 1501.54   75.63
  -2   1  -8 1500.70   75.63
   2  -1   8 1509.16   76.13
   2  -1   8 1455.86   73.43
  -2   1  -9  509.85   26.31
  -2   1  -9  498.43   25.72
   2  -1   9  498.43   25.80
   2  -1   9  517.88   26.73
  -2   1 -10  240.50   13.20
  -2   1 -10  225.53   12.27
   2  -1  10  224.85   12.44
   2  -1  10  234.16   12.86
  -2   1 -11  600.79   30.79
  -2   1 -11  552.06   28.42
   2  -1  11  621.09   31.89
   2  -1  11  592.83   30.37
  -2   1 -12  105.57    7.02
  -2   1 -12   88.40    6.43
   2  -1  12   78.67    5.92
   2  -1  12   88.06    6.43
  -2   1 -13    1.95    4.23
  -2   1 -13   -3.98    3.64
   2  -1  13    3.30    3.72
   2  -1  13    8.37    4.57
  -2   1 -14  107.60    7.36
  -2   1 -14  120.63    8.12
   2  -1  14   98.13    7.19
   2  -1  14  100.75    7.11
  -2   1 -15   15.23    4.48
  -2   1 -15   13.62    5.08
   2  -1  15   18.78    4.15
   2  -1  15   11.59    5.33
  -2   0  17  330.59   17.68
  -2   0  17  361.47   19.20
   2   0 -17  348.10   18.70
   2   0 -17  377.71   20.13
  -2   0  16   81.38    5.92
  -2   0  16   97.11    6.68
   2   0 -16   97.88    7.19
   2   0 -16   95.76    7.19
  -2   0  15    5.92    3.64
  -2   0  15    5.24    3.89
   2   0 -15    3.55    4.48
   2   0 -15    1.44    3.89
  -2   0  14  213.35   11.76
  -2   0  14  222.14   12.44
   2   0 -14  207.85   11.76
   2   0 -14  238.05   13.20
  -2   0  13 1231.69   62.18
  -2   0  13 1257.91   63.45
   2   0 -13 1260.45   63.70
   2   0 -13 1219.84   61.67
  -2   0  12  960.14   48.64
  -2   0  12  923.77   46.87
   2   0 -12  958.45   48.64
   2   0 -12  878.93   44.67
  -2   0  11  458.25   23.69
  -2   0  11  470.00   24.28
   2   0 -11  460.36   23.86
   2   0 -11  442.09   23.01
  -2   0  10    5.50    3.30
  -2   0  10   12.35    2.79
   2   0 -10    8.37    3.30
   2   0 -10    7.61    3.13
  -2   0   9 3235.72  162.17
  -2   0   9 3060.61  153.37
   2   0  -9 3070.76  153.79
   2   0  -9 3225.57  161.66
  -2   0   8    6.60    2.45
  -2   0   8    3.55    2.37
   2   0  -8    4.82    2.45
   2   0  -8    3.98    1.95
  -2   0   7  817.52   41.28
  -2   0   7  799.92   40.44
   2   0  -7  787.06   39.76
   2   0  -7  823.61   41.62
  -2   0   6  933.07   47.03
  -2   0   6  900.08   45.26
   2   0  -6  975.37   49.06
   2   0  -6  973.68   48.98
  -2   0   5 1258.76   63.11
  -2   0   5 1198.70   60.15
   2   0  -5 1273.14   63.87
   2   0  -5 1243.53   62.35
  -2   0   4    9.22    1.18
  -2   0   4    9.14    1.18
   2   0  -4   11.00    1.27
   2   0  -4   11.84    1.27
  -2   0   3 1838.23   91.95
  -2   0   3 1856.84   92.80
   2   0  -3 1816.23   90.85
   2   0  -3 1789.16   89.50
   2   0  -2 1542.99   77.15
   2   0  -2 1563.30   78.25
  -2   0  -1  148.46    7.53
  -2   0  -1  129.60    6.60
   2   0   1  130.87    6.68
   2   0   1  138.40    7.02
  -2   0  -2   75.46    4.06
  -2   0  -2   75.12    4.06
   2   0   2   82.65    4.40
   2   0   2   71.90    3.89
  -2   0  -3   44.58    2.71
  -2   0  -3   36.71    2.28
   2   0   3   37.73    2.37
   2   0   3   38.24    2.45
  -2   0  -5  365.45   18.78
  -2   0  -5  335.33   17.26
   2   0   5  362.99   18.61
   2   0   5  342.01   17.51
  -2   0  -6  473.13   24.11
  -2   0  -6  474.32   24.28
   2   0   6  457.82   23.35
   2   0   6  464.59   23.77
  -2   0  -7   80.11    4.99
  -2   0  -7   81.38    5.33
   2   0   7   79.26    4.91
   2   0   7   79.77    5.24
  -2   0  -8  733.26   37.31
   2   0   8  747.39   38.07
  -2   0  -9 1116.64   56.34
  -2   0  -9 1109.87   56.09
   2   0   9 1178.39   59.55
   2   0   9 1136.94   57.44
  -2   0 -10  888.24   45.00
  -2   0 -10  897.54   45.60
   2   0  10  928.00   47.12
   2   0  10  860.32   43.65
  -2   0 -11  257.17   13.79
  -2   0 -11  246.51   13.45
   2   0  11  269.60   14.72
   2   0  11  260.46   14.04
  -2   0 -12   40.27    4.82
  -2   0 -12   33.84    3.98
   2   0  12   42.80    4.23
   2   0  12   45.26    5.16
  -2   0 -13  135.69    8.29
  -2   0 -13  144.57    9.22
   2   0  13  143.05    9.05
   2   0  13  129.77    8.46
  -2   0 -14  125.88    8.54
  -2   0 -14  123.34    8.12
   2   0  14  114.37    7.61
   2   0  14  123.93    8.29
  -2   0 -15   35.44    5.41
  -2   0 -15   32.40    5.67
   2   0  15   26.56    5.24
   2   0  15   31.55    5.16
  -2  -1  17  227.22   12.60
  -2  -1  17  234.24   13.03
   2   1 -17  246.42   14.04
   2   1 -17  232.29   13.11
  -2  -1  16  448.18   23.52
  -2  -1  16  453.76   23.52
   2   1 -16  449.87   23.35
   2   1 -16  468.06   24.53
  -2  -1  15  120.80    7.44
  -2  -1  15  112.26    8.04
   2   1 -15  105.91    7.19
   2   1 -15  114.96    7.70
  -2  -1  14    1.10    3.55
  -2  -1  14    4.31    3.13
   2   1 -14    1.61    4.40
   2   1 -14    3.21    3.81
  -2  -1  13  211.99   11.67
  -2  -1  13  226.20   12.69
   2   1 -13  218.00   12.01
   2   1 -13  224.09   12.60
  -2  -1  12  437.01   22.76
  -2  -1  12  420.60   21.83
   2   1 -12  441.24   23.09
   2   1 -12  401.91   20.98
  -2  -1  11   28.09    3.98
  -2  -1  11   21.15    2.88
   2   1 -11   22.16    3.55
   2   1 -11   25.04    3.55
  -2  -1  10  122.58    7.36
  -2  -1  10  119.95    7.19
   2   1 -10  123.59    7.28
   2   1 -10  123.34    7.53
  -2  -1   9  851.01   43.06
   2   1  -9  868.78   43.90
  -2  -1   8 4788.02  239.57
  -2  -1   8 4805.78  240.33
   2   1  -8 4684.81  234.33
   2   1  -8 4840.46  242.11
  -2  -1   7  298.70   15.48
  -2  -1   7  282.71   14.55
   2   1  -7  279.16   14.47
   2   1  -7  283.30   14.80
  -2  -1   6  264.02   13.54
  -2  -1   6  274.34   14.30
   2   1  -6  283.56   14.63
   2   1  -6  277.05   14.21
  -2  -1   5  254.88   13.03
  -2  -1   5  273.49   14.13
   2   1  -5  260.80   13.45
   2   1  -5  260.13   13.28
  -2  -1   4  124.44    6.51
  -2  -1   4  118.18    6.26
   2   1  -4  114.79    6.09
   2   1  -4  118.94    6.26
  -2  -1   3  840.95   42.13
  -2  -1   3  788.50   39.59
   2   1  -3  745.44   37.39
   2   1  -3  873.01   43.74
  -2  -1   1    8.97    0.68
  -2  -1   1    9.56    0.76
   2   1  -1    9.39    0.68
   2   1  -1    9.05    0.76
   2   1   0 1794.24   89.67
  -2  -1  -1  438.28   21.99
  -2  -1  -1  404.87   20.39
   2   1   1  411.38   20.73
   2   1   1  432.11   21.74
  -2  -1  -2 1346.73   67.42
  -2  -1  -2 1236.76   61.92
   2   1   2 1234.23   61.84
   2   1   2 1372.96   68.77
  -2  -1  -3  551.47   27.83
  -2  -1  -3  595.20   30.03
   2   1   3  559.59   28.25
   2   1   3  571.35   28.76
  -2  -1  -4  957.60   48.22
  -2  -1  -4  982.98   49.49
   2   1   4  957.60   48.13
   2   1   4  958.45   48.22
  -2  -1  -5   74.36    4.48
  -2  -1  -5   72.75    4.48
   2   1   5   75.20    4.65
   2   1   5   80.87    4.65
  -2  -1  -6  246.76   12.94
  -2  -1  -6  252.94   13.37
   2   1   6  248.96   13.03
   2   1   6  245.66   12.77
  -2  -1  -7  575.41   29.35
  -2  -1  -7  580.74   29.52
   2   1   7  537.00   27.49
   2   1   7  593.93   30.37
  -2  -1  -8 2467.60  123.68
  -2  -1  -8 2464.22  123.68
   2   1   8 2413.46  121.05
   2   1   8 2436.30  122.32
  -2  -1  -9   21.74    3.81
  -2  -1  -9   26.99    3.30
   2   1   9   25.38    2.96
   2   1   9   29.18    3.72
  -2  -1 -10  229.00   12.52
  -2  -1 -10  225.53   12.10
   2   1  10  228.57   12.69
   2   1  10  232.72   12.60
  -2  -1 -11  498.85   25.63
  -2  -1 -11  493.69   25.55
   2   1  11  497.16   25.89
   2   1  11  470.43   24.36
  -2  -1 -12   63.70    4.91
  -2  -1 -12   62.51    5.24
   2   1  12   60.57    5.50
   2   1  12   57.61    4.99
  -2  -1 -13    4.74    4.82
  -2  -1 -13   -0.85    3.64
   2   1  13   -0.68    3.89
   2   1  13    2.45    4.15
  -2  -1 -14  524.91   27.15
  -2  -1 -14  516.53   26.82
   2   1  14  501.98   26.31
   2   1  14  496.06   25.55
  -2  -1 -15  242.19   13.54
  -2  -1 -15  232.89   13.54
   2   1  15  235.17   13.37
   2   1  15  229.00   13.11
  -2  -2  17    2.62    4.82
   2   2 -17    3.55    5.24
  -2  -2  16  126.38    8.29
  -2  -2  16  113.44    8.37
   2   2 -16  112.85    8.37
   2   2 -16  114.62    7.87
  -2  -2  15 1321.36   66.66
  -2  -2  15 1294.29   65.48
   2   2 -15 1318.82   66.58
   2   2 -15 1277.37   64.63
  -2  -2  14  300.39   15.99
  -2  -2  14  295.82   16.07
   2   2 -14  292.36   15.90
   2   2 -14  275.86   14.80
  -2  -2  13   89.25    6.60
  -2  -2  13   98.30    6.34
   2   2 -13  102.87    7.11
   2   2 -13  101.51    6.43
  -2  -2  12  776.32   39.34
  -2  -2  12  773.61   39.51
   2   2 -12  768.11   39.00
   2   2 -12  778.60   39.76
  -2  -2  11   69.03    4.65
  -2  -2  11   80.87    5.84
   2   2 -11   82.39    5.50
   2   2 -11   80.96    5.58
  -2  -2  10  125.62    7.28
  -2  -2  10  134.93    7.87
   2   2 -10  122.24    7.11
   2   2 -10  120.80    7.44
  -2  -2   9   81.04    5.16
  -2  -2   9   74.27    5.33
   2   2  -9   65.31    4.40
   2   2  -9   82.39    5.75
  -2  -2   8 1372.11   68.94
  -2  -2   8 1279.91   64.46
   2   2  -8 1336.58   67.34
   2   2  -8 1356.89   68.18
  -2  -2   7 2651.17  132.73
  -2  -2   7 2487.91  124.69
   2   2  -7 2532.74  126.81
   2   2  -7 2586.88  129.60
  -2  -2   6  216.98   11.50
  -2  -2   6  220.28   11.42
   2   2  -6  221.55   11.50
   2   2  -6  220.28   11.59
  -2  -2   5   95.00    5.16
  -2  -2   5   92.38    5.41
   2   2  -5   85.61    4.91
   2   2  -5   93.65    5.08
  -2  -2   4   55.92    3.13
  -2  -2   4   48.30    3.05
   2   2  -4   49.57    2.79
   2   2  -4   45.60    2.79
  -2  -2   3  102.70    5.33
  -2  -2   3   94.15    5.08
   2   2  -3   98.64    5.24
   2   2  -3   98.64    5.16
  -2  -2   1 3651.92  182.47
  -2  -2  -2  764.81   38.41
  -2  -2  -2  822.93   41.28
   2   2   2  810.83   40.69
   2   2   2  778.52   39.17
  -2  -2  -3 2595.34  129.77
  -2  -2  -3 2615.64  130.87
   2   2   3 2529.36  126.55
   2   2   3 2624.10  131.21
  -2  -2  -4 5492.68  274.51
  -2  -2  -4 5338.72  266.81
   2   2   4 5436.00  271.63
   2   2   4 5165.30  258.18
  -2  -2  -5    1.18    1.78
  -2  -2  -5    1.61    1.86
   2   2   5    1.78    2.28
   2   2   5   -0.25    1.52
  -2  -2  -6    5.58    2.45
  -2  -2  -6    6.26    2.11
   2   2   6    6.43    2.03
   2   2   6    3.05    2.62
  -2  -2  -7  605.18   30.88
  -2  -2  -7  602.73   30.88
   2   2   7  556.37   28.68
   2   2   7  588.94   30.12
  -2  -2  -8 1169.09   59.22
  -2  -2  -8 1246.07   62.77
   2   2   8 1140.33   57.69
   2   2   8 1158.94   58.45
  -2  -2  -9   47.88    4.15
  -2  -2  -9   53.63    4.57
   2   2   9   50.50    4.74
   2   2   9   48.73    4.06
  -2  -2 -10  664.49   33.84
  -2  -2 -10  645.11   33.16
   2   2  10  597.32   30.62
   2   2  10  649.77   33.16
  -2  -2 -11   14.72    4.31
  -2  -2 -11   13.87    3.38
   2   2  11   18.53    3.89
   2   2  11   14.63    3.55
  -2  -2 -12   19.63    4.06
  -2  -2 -12   26.82    4.40
   2   2  12   16.07    4.23
   2   2  12   15.06    3.64
  -2  -2 -13   91.53    6.77
  -2  -2 -13   93.48    6.68
   2   2  13   86.12    6.18
   2   2  13   89.16    7.28
  -2  -2 -14    3.55    4.48
  -2  -2 -14   -0.76    5.41
   2   2  14    3.30    5.41
   2   2  14    5.50    4.23
  -2  -3  16   72.41    6.77
  -2  -3  16   73.94    6.26
   2   3 -16   92.21    7.44
   2   3 -16   94.58    6.68
  -2  -3  15    5.58    4.15
  -2  -3  15    7.78    4.82
   2   3 -15    1.44    4.40
   2   3 -15   -0.76    4.40
  -2  -3  14  649.09   33.25
  -2  -3  14  624.13   32.15
   2   3 -14  611.53   31.55
   2   3 -14  668.55   34.09
  -2  -3  13   22.16    3.47
  -2  -3  13   23.60    3.89
   2   3 -13   14.47    3.81
   2   3 -13   26.22    4.65
  -2  -3  12  219.01   12.27
  -2  -3  12  234.75   12.77
   2   3 -12  219.69   11.93
   2   3 -12  202.60   11.50
  -2  -3  11    0.34    2.54
  -2  -3  11    4.48    2.96
   2   3 -11    4.31    3.21
   2   3 -11   -1.78    3.55
  -2  -3  10  515.68   26.39
  -2  -3  10  476.35   24.62
   2   3 -10  526.68   27.07
   2   3 -10  492.76   25.63
  -2  -3   9 1317.13   66.32
  -2  -3   9 1318.82   66.49
   2   3  -9 1246.07   63.02
   2   3  -9 1296.82   65.39
  -2  -3   8  585.22   29.69
   2   3  -8  557.14   28.34
  -2  -3   7 2597.03  130.02
  -2  -3   7 2556.43  128.24
   2   3  -7 2656.25  133.15
   2   3  -7 2592.80  129.77
  -2  -3   6  284.74   14.55
  -2  -3   6  301.07   15.73
   2   3  -6  270.02   13.87
   2   3  -6  276.54   14.38
  -2  -3   5    6.18    1.86
  -2  -3   5    4.40    1.18
   2   3  -5    5.92    1.27
   2   3  -5    5.50    1.78
  -2  -3   4  849.32   42.64
  -2  -3   4  796.11   40.18
   2   3  -4  812.95   40.94
   2   3  -4  841.54   42.21
  -2  -3   3 2295.03  114.88
  -2  -3   3 2534.43  126.72
   2   3  -3 2221.44  111.16
   2   3  -3 2488.75  124.44
  -2  -3   2   69.87    3.72
  -2  -3   2   66.66    3.72
   2   3  -2   70.55    3.72
   2   3  -2   70.30    3.81
  -2  -3   1   25.55    1.78
  -2  -3   1   27.58    1.69
   2   3  -1   25.38    1.61
   2   3  -1   26.73    1.78
  -2  -3   0   87.05    4.57
  -2  -3   0   93.65    4.91
   2   3   0   85.69    4.48
   2   3   0   92.55    4.91
  -2  -3  -2  813.29   40.86
  -2  -3  -2  691.05   34.77
   2   3   2  625.83   31.55
   2   3   2  706.53   35.53
  -2  -3  -3   40.27    2.62
  -2  -3  -3   40.86    2.96
   2   3   3   42.47    2.88
   2   3   3   39.67    2.54
  -2  -3  -4 1389.03   69.62
  -2  -3  -4 1330.66   66.83
   2   3   4 1334.89   67.08
   2   3   4 1377.19   69.03
  -2  -3  -5 2339.87  117.16
  -2  -3  -5 2583.50  129.43
   2   3   5 2322.10  116.23
   2   3   5 2487.06  124.61
  -2  -3  -6  893.31   45.00
  -2  -3  -6 1015.13   51.35
   2   3   6  875.55   44.07
   2   3   6  938.15   47.54
  -2  -3  -7  140.17    7.70
  -2  -3  -7  144.15    8.71
   2   3   7  130.27    7.19
   2   3   7  151.76    9.14
  -2  -3  -8    7.44    3.21
  -2  -3  -8    9.90    2.28
   2   3   8    6.18    2.28
   2   3   8    8.37    3.72
  -2  -3  -9 3421.82  171.47
  -2  -3  -9 3289.01  164.62
   2   3   9 3276.32  163.94
   2   3   9 3284.78  164.62
  -2  -3 -10  142.79    8.04
  -2  -3 -10  146.43    9.05
   2   3  10  155.40    9.22
   2   3  10  138.31    7.95
  -2  -3 -11   15.82    4.74
  -2  -3 -11    7.78    2.88
   2   3  11   10.24    4.57
   2   3  11    9.73    3.21
  -2  -3 -12   18.78    3.55
  -2  -3 -12   18.86    4.57
   2   3  12   22.92    4.82
   2   3  12   20.13    3.64
  -2  -3 -13   97.62    6.51
  -2  -3 -13  110.23    7.53
   2   3  13   90.18    7.53
   2   3  13  100.07    6.51
  -2  -3 -14  107.77    7.02
  -2  -3 -14  126.13    8.97
   2   3  14  114.20    8.88
   2   3  14  127.23    7.78
  -2  -4  16  185.43   10.57
  -2  -4  16  187.21   11.08
   2   4 -16  190.34   10.91
   2   4 -16  185.85   11.67
  -2  -4  15    0.76    3.72
  -2  -4  15   -0.59    4.48
   2   4 -15    9.90    4.31
   2   4 -15    7.53    5.41
  -2  -4  14  129.17    7.78
  -2  -4  14  118.60    8.46
   2   4 -14  126.38    7.87
   2   4 -14  121.56    8.37
  -2  -4  13   27.49    3.72
  -2  -4  13   22.42    4.15
   2   4 -13   30.54    4.06
   2   4 -13   24.70    4.57
  -2  -4  12   77.91    5.33
  -2  -4  12   77.15    6.18
   2   4 -12   70.97    5.24
   2   4 -12   69.96    5.50
  -2  -4  11  177.56   10.41
  -2  -4  11  177.14    9.73
   2   4 -11  175.19    9.73
   2   4 -11  172.40    9.98
  -2  -4  10    3.72    3.47
  -2  -4  10    1.95    2.37
   2   4 -10    5.41    3.30
   2   4 -10    5.50    2.62
  -2  -4   9  396.66   20.30
  -2  -4   9  425.76   22.16
   2   4  -9  390.57   20.05
   2   4  -9  431.43   22.59
  -2  -4   8  606.96   31.13
  -2  -4   8  549.10   27.92
   2   4  -8  607.81   31.13
   2   4  -8  553.41   28.17
  -2  -4   7    7.44    1.78
   2   4  -7    9.05    1.69
  -2  -4   6 2778.91  138.99
  -2  -4   6 2766.22  138.65
   2   4  -6 2788.22  139.66
   2   4  -6 2713.77  135.77
  -2  -4   5    1.02    1.35
  -2  -4   5    4.48    2.54
   2   4  -5    3.72    1.44
   2   4  -5    1.69    2.11
  -2  -4   4  968.60   48.56
  -2  -4   4  931.38   46.95
   2   4  -4  972.83   48.81
   2   4  -4  950.84   47.88
  -2  -4   3 1243.53   62.26
  -2  -4   3 1159.78   58.20
   2   4  -3 1334.05   66.74
   2   4  -3 1222.38   61.33
  -2  -4   2 6123.75  305.98
   2   4  -2 6369.92  318.24
  -2  -4   1  164.70    8.63
  -2  -4   1  152.86    7.87
   2   4  -1  134.59    6.94
   2   4  -1  151.08    7.87
  -2  -4   0  262.58   13.37
  -2  -4   0  255.56   13.03
   2   4   0  251.58   12.86
   2   4   0  231.28   11.76
  -2  -4  -1 1355.19   67.84
  -2  -4  -1 1282.44   64.29
   2   4   1 1259.60   63.02
   2   4   1 1159.78   58.12
  -2  -4  -2 3045.38  152.35
  -2  -4  -2 3267.86  163.35
   2   4   2 2789.91  139.58
   2   4   2 3126.59  156.33
   2   4   3  121.48    6.85
   2   4   3  121.22    6.43
  -2  -4  -4   14.47    1.95
  -2  -4  -4   12.44    2.54
   2   4   4   18.44    1.95
   2   4   4   14.80    2.45
  -2  -4  -5   16.16    2.11
   2   4   5   17.43    2.28
  -2  -4  -6  372.89   19.03
  -2  -4  -6  335.84   17.68
   2   4   6  325.43   17.26
   2   4   6  333.89   17.17
  -2  -4  -7  156.08    9.14
  -2  -4  -7  136.53    7.53
   2   4   7  139.07    7.53
   2   4   7  142.37    8.80
  -2  -4  -8  153.11    8.29
  -2  -4  -8  159.97    9.56
   2   4   8  157.18    9.22
   2   4   8  156.84    8.54
  -2  -4  -9  143.56    7.87
  -2  -4  -9  154.98    9.47
   2   4   9  147.19    8.71
   2   4   9  137.72    7.70
  -2  -4 -10  794.51   40.61
  -2  -4 -10  739.60   37.39
   2   4  10  697.39   35.28
   2   4  10  796.11   40.69
  -2  -4 -11   43.74    5.67
  -2  -4 -11   40.86    3.72
   2   4  11   34.51    3.13
   2   4  11   31.81    5.33
  -2  -4 -12   12.69    4.74
  -2  -4 -12   14.47    3.30
   2   4  12   16.50    4.82
   2   4  12   19.96    3.30
   2   4  13  220.03   12.52
   2   4  13  247.61   13.20
  -2  -5  15  328.31   17.09
  -2  -5  15  333.72   17.93
   2   5 -15  363.50   19.79
   2   5 -15  334.40   17.51
  -2  -5  14  202.09   12.18
  -2  -5  14  191.44   10.41
   2   5 -14  181.62   10.07
   2   5 -14  200.83   11.84
  -2  -5  13  213.94   11.50
  -2  -5  13  250.74   14.04
   2   5 -13  232.72   13.28
   2   5 -13  220.11   11.76
  -2  -5  12    7.36    3.89
  -2  -5  12    9.31    2.79
   2   5 -12    7.95    2.62
   2   5 -12   11.50    4.65
  -2  -5  11   16.83    2.62
  -2  -5  11   15.40    3.81
   2   5 -11   13.87    2.71
   2   5 -11   11.59    4.57
  -2  -5  10  313.08   16.16
  -2  -5  10  367.22   19.46
   2   5 -10  373.82   19.71
   2   5 -10  311.22   16.07
  -2  -5   9 1119.18   56.68
  -2  -5   9  974.52   49.06
   2   5  -9 1061.65   53.89
   2   5  -9  990.59   49.91
  -2  -5   8   37.22    2.88
  -2  -5   8   32.57    4.06
   2   5  -8   38.57    4.06
   2   5  -8   33.50    2.79
  -2  -5   7  250.23   13.37
  -2  -5   7  270.95   14.04
   2   5  -7  239.40   12.94
   2   5  -7  251.75   13.11
  -2  -5   6  155.57    8.88
   2   5  -6  160.56    9.22
  -2  -5   5 1365.35   68.44
   2   5  -5 1418.64   71.06
  -2  -5   4  269.85   13.70
  -2  -5   4  265.54   14.04
   2   5  -4  269.01   14.04
   2   5  -4  273.24   13.96
  -2  -5   3  755.00   38.07
  -2  -5   3  839.26   42.13
   2   5  -3  750.18   37.81
   2   5  -3  822.68   41.28
  -2  -5   2   90.52    4.82
  -2  -5   2   90.18    5.16
   2   5  -2   91.02    4.91
   2   5  -2   88.57    4.99
  -2  -5   1 4357.43  217.83
  -2  -5   1 4222.93  211.06
   2   5  -1 4484.32  224.09
   2   5  -1 5161.92  258.01
  -2  -5   0  454.44   23.01
  -2  -5   0  483.03   24.45
   2   5   0  437.27   22.08
   2   5   0  482.27   24.45
  -2  -5  -1 1047.27   52.62
  -2  -5  -1 1119.18   56.17
   2   5   1 1023.59   51.43
   2   5   1 1045.58   52.45
  -2  -5  -2    4.65    1.44
  -2  -5  -2    4.15    1.86
   2   5   2    4.40    1.27
   2   5   2    3.47    1.78
  -2  -5  -3 1367.04   68.77
  -2  -5  -3 1263.83   63.36
   2   5   3 1184.31   59.38
   2   5   3 1305.28   65.73
  -2  -5  -4  812.27   41.28
  -2  -5  -4  833.67   41.87
   2   5   4  785.45   39.84
   2   5   4  796.45   40.10
   2   5   5  263.43   14.13
   2   5   5  306.57   15.73
  -2  -5  -6   55.58    4.91
  -2  -5  -6   62.60    4.06
   2   5   6   58.88    3.98
   2   5   6   54.65    4.40
  -2  -5  -7  400.13   20.47
  -2  -5  -7  375.43   19.88
   2   5   7  347.93   18.36
   2   5   7  367.98   18.86
  -2  -5  -8   31.22    4.82
  -2  -5  -8   40.86    3.38
   2   5   8   36.54    3.30
   2   5   8   41.28    5.08
  -2  -5  -9   -1.86    4.06
  -2  -5  -9   -0.34    2.45
   2   5   9   -4.31    2.20
   2   5   9    0.25    4.74
  -2  -5 -10   12.01    4.57
  -2  -5 -10   19.29    3.05
   2   5  10   30.88    5.50
   2   5  10   18.36    2.62
  -2  -5 -11  314.18   16.33
  -2  -5 -11  340.66   18.53
   2   5  11  296.76   16.33
   2   5  11  308.26   16.07
  -2  -5 -12  213.43   11.59
  -2  -5 -12  240.84   13.79
   2   5  12  203.87   11.00
   2   5  12  226.29   13.11
  -2  -6  15   -2.62    3.55
  -2  -6  15    7.28    6.43
   2   6 -15    2.28    3.30
   2   6 -15   -3.98    6.60
  -2  -6  14  707.88   35.78
  -2  -6  14  762.28   39.08
   2   6 -14  752.12   38.66
   2   6 -14  721.92   36.46
  -2  -6  13   70.13    4.65
  -2  -6  13   79.18    7.11
   2   6 -13   69.54    5.75
   2   6 -13   65.31    4.65
  -2  -6  12  129.51    7.36
  -2  -6  12  125.11    8.71
   2   6 -12  122.75    7.02
   2   6 -12  136.03    8.80
  -2  -6  11  281.11   14.63
  -2  -6  11  284.83   15.48
   2   6 -11  267.66   13.96
   2   6 -11  290.07   15.82
  -2  -6  10  255.30   13.37
  -2  -6  10  260.13   14.30
   2   6 -10  258.77   14.47
   2   6 -10  246.59   12.94
  -2  -6   9  813.37   41.45
  -2  -6   9  863.70   43.57
   2   6  -9  809.73   41.28
   2   6  -9  853.55   43.06
  -2  -6   8 2081.86  104.64
  -2  -6   8 2308.57  115.56
   2   6  -8 2076.78  104.39
   2   6  -8 2300.95  115.22
  -2  -6   7  251.58   13.03
  -2  -6   7  235.85   12.77
   2   6  -7  224.34   12.27
   2   6  -7  249.13   12.94
  -2  -6   6  247.78   12.77
  -2  -6   6  257.42   13.79
   2   6  -6  246.25   13.28
   2   6  -6  252.60   13.03
  -2  -6   5   96.78    5.33
  -2  -6   5  102.36    6.34
  -2  -6   4 1290.06   64.97
  -2  -6   4 1271.45   63.70
   2   6  -4 1317.13   66.32
   2   6  -4 1296.82   65.05
  -2  -6   3  120.46    6.43
  -2  -6   3  115.22    6.51
   2   6  -3  125.03    6.68
   2   6  -3  116.06    6.51
  -2  -6   2   60.40    3.64
  -2  -6   2   58.29    3.81
   2   6  -2   68.86    4.06
   2   6  -2   61.58    4.06
  -2  -6   1  114.71    6.34
  -2  -6   1  122.75    6.85
   2   6  -1  132.05    7.28
   2   6  -1  122.83    6.85
  -2  -6   0  400.21   20.47
  -2  -6   0  432.87   21.99
   2   6   0  423.05   21.49
   2   6   0  397.08   20.39
  -2  -6  -1  171.64    9.05
  -2  -6  -1  171.13    9.22
   2   6   1  177.14    9.31
   2   6   1  163.77    8.80
  -2  -6  -2  350.90   18.10
  -2  -6  -2  354.36   18.02
   2   6   2  343.28   17.43
   2   6   2  319.93   16.66
  -2  -6  -3  258.52   13.28
  -2  -6  -3  275.18   14.63
   2   6   3  237.37   12.18
   2   6   3  266.81   14.21
  -2  -6  -4  655.77   33.08
  -2  -6  -4  699.17   35.61
   2   6   4  637.92   32.15
   2   6   4  661.52   33.75
  -2  -6  -5  851.86   42.80
  -2  -6  -5  820.65   41.62
   2   6   5  735.80   37.48
   2   6   5  801.70   40.35
  -2  -6  -6   72.50    5.50
  -2  -6  -6   70.81    4.23
   2   6   6   61.16    5.16
   2   6   6   66.66    4.06
   2   6   7  153.03    8.37
   2   6   7  142.03    8.80
  -2  -6  -8 1294.29   64.97
  -2  -6  -8 1122.56   56.93
   2   6   8 1086.19   54.65
   2   6   8 1058.27   53.63
  -2  -6  -9  365.70   19.79
  -2  -6  -9  364.94   18.86
   2   6   9  333.72   17.17
   2   6   9  298.70   16.24
  -2  -6 -10  283.22   15.90
  -2  -6 -10  285.25   14.97
   2   6  10  268.08   14.13
   2   6  10  272.56   14.89
  -2  -6 -11   87.89    7.36
  -2  -6 -11   86.62    5.84
   2   6  11   68.69    5.16
   2   6  11   72.24    6.94
  -2  -7  14   48.30    7.19
  -2  -7  14   51.35    4.31
   2   7 -14   44.75    5.84
   2   7 -14   48.81    4.40
  -2  -7  13   46.53    6.85
  -2  -7  13   47.71    4.15
   2   7 -13   52.36    4.15
   2   7 -13   51.77    6.18
  -2  -7  12   14.97    5.75
  -2  -7  12   19.54    3.30
   2   7 -12   20.89    3.05
   2   7 -12   18.36    5.16
  -2  -7  11  705.34   35.70
  -2  -7  11  617.03   32.06
   2   7 -11  631.07   32.48
   2   7 -11  719.56   36.38
  -2  -7  10   47.71    4.65
  -2  -7  10   51.35    3.98
   2   7 -10   50.76    4.15
   2   7 -10   45.34    5.33
  -2  -7   9  472.80   24.02
  -2  -7   9  421.11   22.16
   2   7  -9  411.21   21.49
   2   7  -9  467.21   23.77
  -2  -7   8  137.72    7.53
  -2  -7   8  136.79    8.46
   2   7  -8  145.59    7.95
   2   7  -8  128.41    8.04
  -2  -7   7  728.69   36.71
  -2  -7   7  676.50   34.60
   2   7  -7  828.43   42.21
   2   7  -7  763.80   38.49
  -2  -7   6  302.51   15.40
  -2  -7   6  343.96   18.27
   2   7  -6  325.94   16.66
   2   7  -6  357.49   18.86
  -2  -7   5   38.83    2.71
  -2  -7   5   45.00    4.40
   2   7  -5   49.99    4.65
   2   7  -5   38.83    2.79
  -2  -7   4  731.74   37.14
  -2  -7   4  754.66   37.90
   2   7  -4  731.40   37.14
   2   7  -4  783.76   39.42
  -2  -7   3  503.08   25.46
  -2  -7   3  462.22   23.60
   2   7  -3  478.72   24.45
   2   7  -3  507.82   25.63
  -2  -7   2  666.09   33.58
  -2  -7   2  576.34   29.27
  -2  -7   1   63.19    4.15
  -2  -7   1   65.90    4.31
   2   7  -1   64.97    4.31
   2   7  -1   74.27    4.74
   2   7   0    4.40    2.37
   2   7   0    1.78    2.20
  -2  -7  -1  249.89   13.03
  -2  -7  -1  296.76   15.31
   2   7   1  247.27   12.94
   2   7   1  267.82   13.79
  -2  -7  -2  848.48   42.80
  -2  -7  -2  908.54   45.68
   2   7   2  781.22   39.51
   2   7   2  866.24   43.57
  -2  -7  -3   96.61    5.41
  -2  -7  -3   98.81    6.34
   2   7   3   92.12    6.09
   2   7   3   87.81    4.91
  -2  -7  -4   46.70    3.13
  -2  -7  -4   47.12    4.31
   2   7   4   36.80    2.79
   2   7   4   39.42    4.48
  -2  -7  -5  171.56    9.05
  -2  -7  -5  168.09    9.64
   2   7   5  157.34    8.37
   2   7   5  146.94    8.97
  -2  -7  -6    6.34    2.03
  -2  -7  -6   -2.62    4.15
   2   7   6    2.28    2.03
   2   7   6    9.05    4.15
  -2  -7  -7   29.86    2.79
  -2  -7  -7   29.02    4.82
   2   7   7   28.93    4.82
   2   7   7   30.03    2.88
  -2  -7  -8   -1.52    2.37
  -2  -7  -8   -3.13    5.33
   2   7   8   -1.69    4.23
   2   7   8    2.28    2.54
  -2  -7  -9  780.21   39.34
  -2  -7  -9  830.04   42.55
   2   7   9  752.72   37.98
   2   7   9  746.37   38.32
   2   7  10  205.73   12.35
   2   7  10  215.12   11.50
  -2  -8  13  306.23   17.68
  -2  -8  13  345.65   18.02
   2   8 -13  333.64   18.70
   2   8 -13  353.69   18.44
  -2  -8  12    2.45    6.09
  -2  -8  12    8.04    3.05
   2   8 -12   10.15    4.65
   2   8 -12    9.14    3.38
  -2  -8  11  164.45   10.66
  -2  -8  11  167.75    9.14
   2   8 -11  160.47   10.07
   2   8 -11  159.12    8.88
  -2  -8  10  198.46   11.42
  -2  -8  10  203.79   10.83
   2   8 -10  210.30   11.17
   2   8 -10  195.16   11.67
  -2  -8   9   46.02    5.84
  -2  -8   9   38.41    3.30
   2   8  -9   41.62    5.24
   2   8  -9   40.69    3.30
  -2  -8   8    2.45    2.11
  -2  -8   8    2.45    3.72
   2   8  -8    1.86    4.06
   2   8  -8    0.68    2.37
  -2  -8   7   13.96    2.11
  -2  -8   7    4.74    4.48
   2   8  -7    7.95    4.15
   2   8  -7    9.56    2.20
  -2  -8   6   12.94    4.40
  -2  -8   6   10.83    1.95
   2   8  -6   13.54    4.06
   2   8  -6    9.31    2.03
  -2  -8   5   40.01    4.65
  -2  -8   5   42.64    2.96
   2   8  -5   42.13    3.05
   2   8  -5   51.60    4.82
  -2  -8   4    9.64    3.47
  -2  -8   4   10.74    1.95
   2   8  -4    8.54    1.95
   2   8  -4    9.90    3.30
  -2  -8   3  439.80   22.59
  -2  -8   3  476.69   24.19
   2   8  -3  439.55   22.59
   2   8  -3  455.54   23.09
  -2  -8   2  264.86   13.70
  -2  -8   2  236.69   12.52
   2   8  -2  237.37   12.52
   2   8  -2  286.35   14.97
  -2  -8   1   25.12    3.05
  -2  -8   1   31.13    2.96
   2   8  -1   27.66    3.13
   2   8  -1   27.75    3.13
  -2  -8   0   11.17    2.79
  -2  -8   0    4.57    2.03
   2   8   0    3.47    2.62
   2   8   0    5.84    2.62
  -2  -8  -1    5.75    2.54
  -2  -8  -1    5.75    2.45
   2   8   1   18.86    2.96
   2   8   1    9.64    2.62
  -2  -8  -2 1416.10   71.06
  -2  -8  -2 1300.21   65.39
   2   8   2 1228.30   61.84
   2   8   2 1351.81   67.84
  -2  -8  -3  735.80   37.39
  -2  -8  -3  738.00   37.22
   2   8   3  714.31   36.38
   2   8   3  705.43   35.53
  -2  -8  -4  123.08    6.77
  -2  -8  -4  132.39    8.29
   2   8   4  131.97    8.46
   2   8   4  114.88    6.34
  -2  -8  -5   11.59    4.65
  -2  -8  -5   17.68    2.37
   2   8   5   25.63    4.31
   2   8   5   16.07    2.37
  -2  -8  -6  181.20   10.41
  -2  -8  -6  193.47   10.24
   2   8   6  186.28   11.00
   2   8   6  184.16    9.73
  -2  -8  -7  280.60   15.40
  -2  -8  -7  302.08   15.57
   2   8   7  282.88   15.40
   2   8   7  288.63   14.89
  -2  -8  -8    6.60    2.62
  -2  -8  -8    7.61    6.01
   2   8   8   11.00    4.74
   2   8   8    7.36    2.45
  -2  -8  -9  213.60   11.42
  -2  -8  -9  209.12   13.03
   2   8   9  206.49   11.00
   2   8   9  211.23   12.44
  -2  -9  11   56.93    4.23
  -2  -9  11   51.43    7.44
   2   9 -11   66.91    4.65
   2   9 -11   67.51    7.61
  -2  -9  10  125.37    9.22
  -2  -9  10  133.57    7.44
   2   9 -10  125.03    9.14
   2   9 -10  137.63    7.61
  -2  -9   9  208.44   12.52
  -2  -9   9  212.84   11.08
   2   9  -9  222.31   11.67
   2   9  -9  243.88   13.79
  -2  -9   8  172.15   10.57
  -2  -9   8  182.13    9.64
   2   9  -8  186.19    9.81
   2   9  -8  170.96   10.07
  -2  -9   7  121.31    6.68
  -2  -9   7  138.31    9.05
   2   9  -7  131.12    7.19
   2   9  -7  146.26    9.56
  -2  -9   6    0.00    5.16
  -2  -9   6    2.96    2.11
   2   9  -6    3.89    2.28
   2   9  -6    5.08    4.57
  -2  -9   5   34.18    4.57
  -2  -9   5   31.05    2.88
   2   9  -5   26.90    4.74
   2   9  -5   32.48    2.96
  -2  -9   4  177.22    9.47
  -2  -9   4  178.24   10.15
   2   9  -4  170.96    9.73
   2   9  -4  178.92    9.47
  -2  -9   3   51.77    4.31
  -2  -9   3   64.46    4.40
  -2  -9   2   53.21    3.98
  -2  -9   2   43.57    3.98
   2   9  -2   52.62    4.23
   2   9  -2   51.77    4.31
  -2  -9   1   52.03    4.06
  -2  -9   1   47.71    3.89
   2   9  -1   52.45    3.98
   2   9  -1   52.70    4.23
  -2  -9   0   74.44    4.91
  -2  -9   0   61.25    4.15
   2   9   0   63.78    4.65
   2   9   0   70.04    5.08
   2   9   1   39.42    3.98
   2   9   1   45.00    3.89
  -2  -9  -2   41.79    4.31
  -2  -9  -2   42.55    3.98
   2   9   2   43.74    3.72
   2   9   2   41.37    4.23
  -2  -9  -3  308.85   16.50
  -2  -9  -3  291.00   15.14
   2   9   3  268.25   13.96
   2   9   3  293.12   15.73
  -2  -9  -4  363.25   19.20
  -2  -9  -4  347.85   17.93
   2   9   4  338.04   17.93
   2   9   4  318.33   16.41
  -2  -9  -5  101.34    6.09
  -2  -9  -5  109.55    7.95
   2   9   5  100.24    5.75
   2   9   5   99.82    7.36
  -2  -9  -6    1.44    2.79
  -2  -9  -6    9.39    5.24
   2   9   6    3.89    5.41
   2   9   6    9.47    2.62
  -2  -9  -7  324.50   16.75
  -2  -9  -7  318.75   17.17
   2   9   7  305.05   16.92
   2   9   7  311.47   16.07
  -2 -10   9  111.07    6.34
  -2 -10   9   92.46    7.70
   2  10  -9  112.00    6.51
   2  10  -9  117.50    8.88
  -2 -10   8  363.16   18.53
  -2 -10   8  354.87   19.12
   2  10  -8  357.32   19.29
   2  10  -8  384.14   19.63
  -2 -10   7  136.87    7.53
  -2 -10   7  141.53    9.39
   2  10  -7  140.09    7.61
   2  10  -7  150.49    9.98
  -2 -10   6   85.02    7.61
  -2 -10   6   76.13    4.74
   2  10  -6   75.88    4.65
   2  10  -6   83.75    7.44
  -2 -10   5   17.93    2.62
  -2 -10   5   14.13    5.58
   2  10  -5   20.30    5.24
   2  10  -5   16.58    2.79
  -2 -10   4  329.83   17.09
  -2 -10   4  323.06   17.43
   2  10  -4  344.38   18.27
   2  10  -4  385.07   19.79
  -2 -10   3  600.28   30.71
  -2 -10   3  663.89   33.58
   2  10  -3  668.38   33.84
   2  10  -3  618.55   31.64
  -2 -10   2   53.97    4.91
  -2 -10   2   63.02    4.48
   2  10  -2   55.07    4.74
   2  10  -2   65.48    4.74
  -2 -10   1    7.19    2.96
  -2 -10   1   14.13    3.72
   2  10  -1    5.50    3.47
   2  10  -1   15.65    3.05
  -2 -10   0   75.03    5.16
  -2 -10   0   85.69    5.92
   2  10   0   84.76    5.92
   2  10   0   73.00    4.99
  -2 -10  -1  519.91   26.65
  -2 -10  -1  555.95   28.42
   2  10   1  559.59   28.59
   2  10   1  476.35   24.45
  -2 -10  -2    5.50    3.72
  -2 -10  -2    1.52    4.31
   2  10   2    8.63    3.47
   2  10   2    3.64    4.23
  -2 -10  -3  213.43   11.59
  -2 -10  -3  212.58   11.93
   2  10   3  204.72   11.08
   2  10   3  208.35   12.10
  -2 -10  -4    9.90    3.81
  -2 -10  -4    7.36    4.82
   2  10   4    5.84    3.30
   2  10   4    5.58    5.24
  -2 -11   4   -3.21    5.84
  -2 -11   4    0.51    3.38
   2  11  -4   -5.24    5.58
   2  11  -4   -0.93    3.38
  -2 -11   3  159.12    9.05
  -2 -11   3  160.05   10.07
   2  11  -3  170.54    9.64
   2  11  -3  152.95    9.47
  -2 -11   2  368.74   19.54
  -2 -11   2  367.39   19.03
   2  11  -2  357.75   18.95
   2  11  -2  373.40   19.29
  -2 -11   1    0.51    3.38
  -2 -11   1    5.08    4.31
   2  11  -1    0.25    3.64
   2  11  -1    0.51    4.06
  -2 -11   0   18.19    4.57
  -2 -11   0   19.88    4.15
   2  11   0   14.97    4.74
   2  11   0   15.82    4.23
  -3  12   3  207.00   11.76
   3 -12  -3  213.68   12.01
  -3  12   2  324.59   17.09
  -3  12   2  282.71   14.97
   3 -12  -2  314.94   16.58
   3 -12  -2  323.15   17.09
  -3  12   1  177.65    9.81
  -3  12   1  172.06    9.81
   3 -12  -1  177.90    9.98
   3 -12  -1  183.48   10.32
  -3  12   0    8.37    3.55
  -3  12   0    7.78    4.06
   3 -12   0    3.05    3.21
   3 -12   0   -0.25    4.15
   3 -12   1   88.57    6.43
   3 -12   1   89.50    6.01
  -3  12  -2   76.64    6.43
  -3  12  -2   78.00    5.50
   3 -12   2   74.19    6.68
   3 -12   2   84.09    5.58
  -3  12  -3   -0.08    5.08
  -3  12  -3   -3.05    3.55
   3 -12   3    2.88    3.21
   3 -12   3    1.61    6.26
  -3  11   7  132.64    8.71
   3 -11  -7  142.63    9.64
  -3  11   6  180.69    9.90
  -3  11   6  174.18   10.32
   3 -11  -6  198.63   11.76
   3 -11  -6  191.52   10.41
  -3  11   5  118.01    7.02
  -3  11   5  120.63    7.87
   3 -11  -5  122.32    8.29
   3 -11  -5  117.84    7.19
  -3  11   4   74.36    5.75
  -3  11   4   80.28    5.50
   3 -11  -4   76.81    6.09
   3 -11  -4   83.41    5.75
  -3  11   3    0.68    3.38
  -3  11   3    4.15    3.55
   3 -11  -3    5.08    3.64
   3 -11  -3    9.39    3.72
  -3  11   2  319.00   16.58
  -3  11   2  264.69   14.04
   3 -11  -2  283.39   14.89
   3 -11  -2  324.59   17.00
  -3  11   1  957.60   48.30
  -3  11   1  911.08   45.93
   3 -11  -1  937.30   47.37
   3 -11  -1  955.07   48.13
   3 -11   0  201.33   10.74
   3 -11   0  181.12   10.07
  -3  11  -1   -2.37    3.13
  -3  11  -1    0.59    3.64
   3 -11   1    5.24    2.79
   3 -11   1    3.55    3.47
  -3  11  -2   46.87    4.99
  -3  11  -2   60.99    4.65
   3 -11   2   57.10    4.31
   3 -11   2   47.29    5.16
  -3  11  -3  289.40   15.65
  -3  11  -3  295.82   15.14
   3 -11   3  272.39   14.13
   3 -11   3  300.90   16.50
  -3  11  -4  713.97   35.95
  -3  11  -4  730.98   37.48
   3 -11   4  731.31   37.64
   3 -11   4  680.05   34.35
  -3  11  -5  158.28    8.54
  -3  11  -5  173.50   10.74
   3 -11   5  143.98    9.73
   3 -11   5  152.95    8.37
  -3  11  -6    5.75    2.45
  -3  11  -6    4.40    5.16
   3 -11   6    5.92    5.08
   3 -11   6    9.56    2.54
  -3  11  -7   94.49    7.70
  -3  11  -7  107.27    6.26
   3 -11   7   99.14    5.75
   3 -11   7   97.54    7.61
  -3  10   9  121.98    8.37
  -3  10   9  129.68    7.28
   3 -10  -9  127.57    9.14
   3 -10  -9  122.41    7.02
  -3  10   8  759.40   38.24
  -3  10   8  776.23   39.59
   3 -10  -8  837.48   42.13
   3 -10  -8  858.63   43.74
  -3  10   7  324.16   17.51
  -3  10   7  287.53   14.80
   3 -10  -7  345.57   18.61
   3 -10  -7  334.99   17.26
  -3  10   6  100.75    5.92
  -3  10   6  101.01    7.19
   3 -10  -6  106.59    7.28
   3 -10  -6  105.23    6.18
  -3  10   5   19.20    4.31
  -3  10   5   13.96    2.79
   3 -10  -5   15.90    4.48
   3 -10  -5   21.15    3.05
  -3  10   4  112.34    7.19
  -3  10   4  115.56    6.68
   3 -10  -4  106.25    6.68
   3 -10  -4  111.83    6.60
   3 -10  -3  281.70   14.80
   3 -10  -3  330.93   17.17
  -3  10   2    0.17    2.79
  -3  10   2    0.93    2.88
   3 -10  -2    0.00    2.71
   3 -10  -2    4.99    2.62
  -3  10   1    0.34    2.62
  -3  10   1    3.98    2.88
   3 -10  -1    2.71    2.71
   3 -10  -1    4.57    2.71
  -3  10   0  127.99    7.36
  -3  10   0  153.88    8.54
   3 -10   0  122.07    7.19
   3 -10   0  147.45    8.12
   3 -10   1  121.48    7.28
   3 -10   1  146.94    7.95
  -3  10  -2   47.29    4.57
  -3  10  -2   53.46    3.38
  -3  10  -3   17.43    2.37
  -3  10  -3   15.82    3.64
   3 -10   3   17.00    4.40
   3 -10   3   18.10    2.28
  -3  10  -4  594.02   30.03
  -3  10  -4  600.19   30.96
   3 -10   4  576.76   29.86
   3 -10   4  545.12   27.58
  -3  10  -5  186.28    9.81
  -3  10  -5  207.26   12.01
   3 -10   5  180.69    9.56
   3 -10   5  194.14   11.50
  -3  10  -6    9.22    2.37
  -3  10  -6   16.75    4.91
   3 -10   6    7.19    2.11
   3 -10   6    9.05    4.91
  -3  10  -7   24.02    2.88
  -3  10  -7   29.61    4.57
   3 -10   7   26.14    5.58
   3 -10   7   31.05    2.88
  -3  10  -8  369.17   18.86
  -3  10  -8  351.06   19.03
   3 -10   8  379.15   19.37
   3 -10   8  361.98   19.46
  -3  10  -9  359.69   18.44
  -3  10  -9  357.07   19.54
   3 -10   9  348.53   17.93
   3 -10   9  376.19   20.30
  -3   9  11   98.64    8.29
  -3   9  11  106.59    6.34
   3  -9 -11  112.51    8.63
   3  -9 -11  112.26    6.68
  -3   9  10   33.84    5.84
  -3   9  10   43.65    3.47
   3  -9 -10   42.80    3.55
   3  -9 -10   57.44    6.09
  -3   9   9  299.72   16.33
  -3   9   9  311.31   15.99
   3  -9  -9  310.54   16.75
   3  -9  -9  311.14   16.07
  -3   9   8  191.94   10.15
  -3   9   8  184.58   10.57
   3  -9  -8  202.18   11.67
   3  -9  -8  216.98   11.42
  -3   9   7  382.45   19.54
  -3   9   7  393.87   20.81
   3  -9  -7  413.50   21.06
   3  -9  -7  437.69   22.92
  -3   9   6  634.79   32.48
  -3   9   6  569.49   28.76
   3  -9  -6  583.36   29.44
   3  -9  -6  639.95   32.74
  -3   9   5    2.11    3.81
  -3   9   5   -0.51    1.86
   3  -9  -5    3.81    2.11
   3  -9  -5    2.20    3.21
  -3   9   4   18.70    3.47
  -3   9   4   13.79    2.20
   3  -9  -4   22.25    2.54
   3  -9  -4   15.99    3.30
   3  -9  -3  437.35   22.33
   3  -9  -3  405.29   20.81
  -3   9   2  732.84   37.05
  -3   9   2  636.74   32.23
   3  -9  -2  738.08   37.39
   3  -9  -2  623.12   31.55
  -3   9   1   13.87    2.62
  -3   9   1   12.69    2.62
   3  -9  -1    9.73    2.71
   3  -9  -1    9.81    2.62
   3  -9   0  439.04   22.50
   3  -9   0  484.81   24.70
  -3   9  -1   11.42    2.62
  -3   9  -1   16.07    2.45
   3  -9   1   10.41    2.28
   3  -9   1    3.05    2.79
  -3   9  -2  144.06    8.21
  -3   9  -2  155.65    8.29
   3  -9   2  139.24    8.12
   3  -9   2  151.25    8.04
  -3   9  -3    7.36    1.86
  -3   9  -3    9.14    3.21
   3  -9   3   14.55    4.06
   3  -9   3   11.08    1.95
  -3   9  -4   23.35    3.89
  -3   9  -4   23.60    2.45
   3  -9   4   18.53    4.48
   3  -9   4   24.02    2.37
  -3   9  -5   47.71    4.91
  -3   9  -5   51.60    3.55
   3  -9   5   59.05    5.75
   3  -9   5   44.50    3.21
  -3   9  -6  117.50    7.70
  -3   9  -6  141.10    7.61
   3  -9   6  126.81    6.94
   3  -9   6  125.28    8.12
  -3   9  -7   40.44    4.91
  -3   9  -7   45.85    3.55
   3  -9   7   41.45    3.38
   3  -9   7   38.24    4.82
  -3   9  -8    5.24    2.54
  -3   9  -8   -0.25    4.91
   3  -9   8    4.48    2.54
   3  -9   8    2.88    5.33
  -3   9  -9  438.03   22.33
  -3   9  -9  393.78   20.89
   3  -9   9  390.65   21.06
   3  -9   9  425.42   21.74
  -3   9 -10  415.19   21.32
  -3   9 -10  412.06   21.99
   3  -9  10  372.21   20.13
   3  -9  10  403.26   20.73
  -3   9 -11  164.70    9.31
  -3   9 -11  171.30   11.08
   3  -9  11  167.58   11.25
   3  -9  11  173.59    9.56
  -3   8  12    3.21    6.09
  -3   8  12   16.41    3.30
   3  -8 -12   -5.08    6.18
   3  -8 -12    5.84    3.47
  -3   8  11   65.90    6.85
  -3   8  11   66.15    4.65
   3  -8 -11   99.14    5.84
   3  -8 -11   82.90    7.78
  -3   8  10  255.56   14.30
  -3   8  10  260.63   13.54
   3  -8 -10  252.68   13.20
   3  -8 -10  249.38   14.21
  -3   8   9  448.94   23.60
  -3   8   9  462.47   23.52
   3  -8  -9  487.77   24.79
   3  -8  -9  484.64   25.21
  -3   8   8   56.42    4.99
  -3   8   8   58.71    3.81
   3  -8  -8   58.37    5.50
   3  -8  -8   55.75    3.72
  -3   8   7   59.98    3.72
  -3   8   7   62.43    5.41
   3  -8  -7   66.74    4.15
   3  -8  -7   74.44    5.58
  -3   8   6  193.80   10.07
  -3   8   6  204.72   11.42
   3  -8  -6  212.50   11.84
   3  -8  -6  212.67   11.08
  -3   8   5   93.39    6.18
  -3   8   5   86.37    4.82
   3  -8  -5   91.28    5.92
   3  -8  -5   92.71    5.24
  -3   8   4  862.86   43.57
  -3   8   4  870.47   43.74
   3  -8  -4  899.23   45.43
   3  -8  -4  914.46   45.93
  -3   8   3   18.86    2.20
  -3   8   3   21.91    2.79
   3  -8  -3   20.89    2.37
   3  -8  -3   15.65    2.62
  -3   8   2  814.47   41.11
  -3   8   2  883.16   44.50
   3  -8  -2  790.78   39.93
   3  -8  -2  876.39   44.16
  -3   8   1 2362.71  118.26
  -3   8   1 2470.99  123.68
   3  -8  -1 2369.48  118.69
   3  -8  -1 2419.39  121.14
  -3   8   0  151.00    8.21
  -3   8   0  178.41    9.47
   3  -8   0  143.13    7.87
   3  -8   0  165.38    8.88
  -3   8  -1   12.77    2.37
  -3   8  -1   13.45    1.86
   3  -8   1   12.52    1.95
   3  -8   1   14.80    2.62
  -3   8  -2  109.89    6.51
  -3   8  -2  109.13    5.92
   3  -8   2  105.57    6.43
   3  -8   2  100.07    5.50
  -3   8  -3  951.68   48.13
  -3   8  -3  857.78   43.14
   3  -8   3  841.03   42.30
   3  -8   3  889.93   45.09
  -3   8  -4  239.57   12.35
  -3   8  -4  263.51   14.21
   3  -8   4  257.59   14.04
   3  -8   4  219.94   11.42
  -3   8  -5  412.90   21.49
  -3   8  -5  401.06   20.39
   3  -8   5  377.37   19.20
   3  -8   5  415.78   21.83
  -3   8  -6   77.66    5.75
  -3   8  -6   80.96    4.82
   3  -8   6   77.15    5.58
   3  -8   6   78.16    4.82
  -3   8  -7  307.67   16.41
  -3   8  -7  331.61   17.09
   3  -8   7  298.45   16.07
   3  -8   7  319.85   16.50
  -3   8  -8   68.01    5.67
  -3   8  -8   76.64    4.91
   3  -8   8   59.30    6.09
   3  -8   8   77.07    4.99
  -3   8  -9   66.24    6.43
  -3   8  -9   80.28    5.24
   3  -8   9   79.43    5.24
   3  -8   9   71.23    6.09
  -3   8 -10   73.85    7.19
  -3   8 -10   75.88    5.08
   3  -8  10   69.87    4.82
   3  -8  10   55.41    5.92
  -3   8 -11  109.13    8.63
  -3   8 -11  101.77    6.18
   3  -8  11   99.65    6.26
   3  -8  11  100.33    7.95
  -3   8 -12  114.54    9.56
  -3   8 -12  111.83    6.68
   3  -8  12  115.81    7.11
   3  -8  12  131.46    9.39
  -3   7  13  222.31   13.11
  -3   7  13  255.90   13.54
   3  -7 -13  230.86   13.03
   3  -7 -13  238.47   12.69
  -3   7  12  628.79   32.57
  -3   7  12  664.57   33.67
   3  -7 -12  656.19   33.92
   3  -7 -12  683.86   34.68
  -3   7  11    6.26    4.91
  -3   7  11   10.41    2.62
   3  -7 -11   11.59    3.13
   3  -7 -11    7.36    5.67
  -3   7  10   11.34    4.82
  -3   7  10   12.69    2.71
   3  -7 -10    6.85    4.99
   3  -7 -10   14.80    2.79
  -3   7   9  161.41    8.63
  -3   7   9  155.57    9.39
   3  -7  -9  188.98   10.15
   3  -7  -9  161.32    9.56
  -3   7   8 2411.77  120.97
  -3   7   8 2583.50  129.26
  -3   7   7   -0.34    2.88
  -3   7   7    2.37    1.78
   3  -7  -7    2.88    1.86
   3  -7  -7    4.74    3.72
  -3   7   6  107.10    5.84
  -3   7   6  102.10    6.51
   3  -7  -6  109.72    6.01
   3  -7  -6  114.37    7.19
  -3   7   5   13.87    1.78
  -3   7   5   12.27    3.05
   3  -7  -5   14.72    1.78
   3  -7  -5    9.47    3.13
  -3   7   4  774.03   39.17
  -3   7   4  795.01   39.93
   3  -7  -4  878.08   44.33
   3  -7  -4  839.34   42.21
  -3   7   3   73.94    4.57
  -3   7   3   74.87    4.23
   3  -7  -3   76.64    4.48
   3  -7  -3   84.34    5.08
  -3   7   2  233.39   12.10
  -3   7   2  238.81   12.52
   3  -7  -2  234.75   12.18
   3  -7  -2  221.55   11.67
  -3   7   1  342.18   17.60
  -3   7   1  346.92   17.76
   3  -7  -1  338.63   17.43
   3  -7  -1  318.92   16.41
  -3   7   0  639.28   32.23
  -3   7   0  668.21   33.75
   3  -7   0  655.10   33.16
   3  -7   0  682.42   34.43
  -3   7  -1  762.28   38.32
  -3   7  -1  725.82   36.63
   3  -7   1  696.12   35.19
   3  -7   1  752.12   37.90
  -3   7  -2    1.18    1.44
  -3   7  -2   -0.42    2.37
   3  -7   2    1.27    2.37
   3  -7   2    1.02    1.35
  -3   7  -3  706.61   35.61
  -3   7  -3  753.99   38.32
   3  -7   3  666.09   33.58
   3  -7   3  716.51   36.46
  -3   7  -4 2205.36  110.40
  -3   7  -4 2244.28  112.59
   3  -7   4 2097.93  105.32
   3  -7   4 2109.77  105.57
  -3   7  -5  721.59   36.38
  -3   7  -5  641.48   32.82
   3  -7   5  720.91   36.38
   3  -7   5  656.36   33.58
  -3   7  -6  422.72   21.57
  -3   7  -6  358.59   18.78
   3  -7   6  359.52   19.03
   3  -7   6  398.01   20.30
  -3   7  -7  255.14   13.79
  -3   7  -7  279.16   14.55
   3  -7   7  245.41   13.62
   3  -7   7  260.89   13.62
  -3   7  -8  511.12   26.48
  -3   7  -8  512.64   26.05
   3  -7   8  509.93   25.97
   3  -7   8  506.38   26.48
  -3   7  -9  277.64   15.31
  -3   7  -9  265.79   13.87
   3  -7   9  260.30   13.62
   3  -7   9  264.69   14.55
  -3   7 -10  220.11   12.77
  -3   7 -10  192.28   10.41
   3  -7  10  217.32   12.60
   3  -7  10  205.73   11.00
  -3   7 -11  159.97    8.80
  -3   7 -11  178.24   11.08
   3  -7  11  150.49    8.37
   3  -7  11  183.06   11.34
  -3   7 -12   17.26    6.01
  -3   7 -12   30.45    3.47
   3  -7  12   25.89    3.55
   3  -7  12   29.02    5.33
  -3   7 -13   12.27    5.84
  -3   7 -13    2.96    3.38
   3  -7  13   -0.85    3.55
   3  -7  13    2.37    5.75
  -3   6  14   58.54    6.51
  -3   6  14   50.42    4.40
   3  -6 -14   56.34    4.40
   3  -6 -14   64.29    6.34
  -3   6  13   47.37    5.16
  -3   6  13   34.51    3.72
   3  -6 -13   57.52    6.43
   3  -6 -13   44.33    3.89
  -3   6  12    3.89    4.74
  -3   6  12    2.54    2.71
   3  -6 -12    5.16    4.31
   3  -6 -12    2.88    2.79
  -3   6  11  596.56   30.28
  -3   6  11  556.54   28.93
   3  -6 -11  628.70   32.40
   3  -6 -11  606.54   30.71
  -3   6  10   29.10    4.82
  -3   6  10   18.02    2.79
   3  -6 -10   18.53    3.64
   3  -6 -10   12.94    2.62
  -3   6   9  110.65    6.18
  -3   6   9   93.39    6.26
   3  -6  -9  111.41    6.34
   3  -6  -9  107.52    7.36
  -3   6   8   19.46    2.54
  -3   6   8   17.00    3.55
  -3   6   7 2145.30  107.69
  -3   6   7 2442.23  122.24
  -3   6   6   24.28    3.30
  -3   6   6   30.37    2.28
   3  -6  -6   27.41    3.55
  -3   6   5   77.40    5.16
  -3   6   5   71.99    4.15
   3  -6  -5   79.69    4.57
   3  -6  -5   80.87    5.41
  -3   6   4   14.04    2.28
  -3   6   4   17.43    1.78
   3  -6  -4   16.50    1.78
   3  -6  -4   21.66    2.37
  -3   6   3 3030.15  151.51
  -3   6   3 2564.04  128.33
   3  -6  -3 3164.66  158.19
   3  -6  -3 2940.48  147.11
  -3   6   2  153.79    8.04
  -3   6   2  154.81    8.12
   3  -6  -2  151.68    8.04
   3  -6  -2  143.64    7.53
  -3   6   1  727.25   36.63
  -3   6   1  658.39   33.25
   3  -6  -1  648.92   32.74
   3  -6  -1  664.82   33.50
  -3   6   0   38.32    2.37
  -3   6   0   39.59    2.88
   3  -6   0   44.67    2.79
   3  -6   0   45.77    3.05
  -3   6  -1  727.34   36.71
  -3   6  -1  808.13   40.52
   3  -6   1  743.16   37.31
   3  -6   1  693.92   35.02
  -3   6  -2  700.86   35.53
  -3   6  -2  723.02   36.29
   3  -6   2  671.51   34.01
   3  -6   2  650.87   32.74
   3  -6   3  311.14   15.82
  -3   6  -4   -0.25    1.86
  -3   6  -4   -3.13    2.79
   3  -6   4    1.10    2.96
  -3   6  -5  815.15   41.37
  -3   6  -5  908.54   45.77
   3  -6   5  776.57   39.51
   3  -6   5  879.78   44.33
  -3   6  -6   30.62    3.81
  -3   6  -6   24.45    2.37
   3  -6   6   24.02    2.54
   3  -6   6   23.09    3.64
  -3   6  -7   45.93    3.30
  -3   6  -7   50.25    4.40
   3  -6   7   46.27    4.99
   3  -6   7   52.70    3.72
  -3   6  -8  123.51    7.70
  -3   6  -8  119.36    6.77
   3  -6   8  116.23    6.68
   3  -6   8  128.58    8.21
  -3   6  -9 1143.71   57.95
  -3   6  -9 1062.50   53.46
   3  -6   9 1077.73   54.65
   3  -6   9  984.67   49.57
  -3   6 -10  129.01    8.54
  -3   6 -10  110.90    6.43
   3  -6  10  115.98    6.77
   3  -6  10  134.67    8.46
  -3   6 -11  279.84   14.63
  -3   6 -11  300.48   16.50
   3  -6  11  272.05   14.38
   3  -6  11  302.59   16.50
  -3   6 -12   67.93    4.99
  -3   6 -12   68.86    6.43
   3  -6  12   55.66    6.01
   3  -6  12   68.01    4.91
  -3   6 -13  174.18    9.64
  -3   6 -13  189.49   11.76
   3  -6  13  165.72    9.39
   3  -6  13  184.25   11.59
  -3   5  15    6.09    5.50
  -3   5  15    4.23    3.64
   3  -5 -15   10.83    3.55
   3  -5 -15    6.60    6.01
  -3   5  14  492.59   25.72
  -3   5  14  477.11   24.45
   3  -5 -14  501.47   26.22
   3  -5 -14  468.14   23.94
  -3   5  13  219.44   12.44
  -3   5  13  193.47   10.49
   3  -5 -13  201.16   10.83
   3  -5 -13  208.61   11.93
   3  -5 -12   34.26    3.38
   3  -5 -12   48.13    5.92
  -3   5  11  124.69    7.02
  -3   5  11  151.25    9.05
   3  -5 -11  133.74    7.44
   3  -5 -11  137.97    8.88
  -3   5  10  490.14   25.38
  -3   5  10  483.37   24.62
   3  -5 -10  526.77   27.32
   3  -5 -10  477.19   24.28
  -3   5   9  383.63   19.63
  -3   5   9  381.01   19.96
   3  -5  -9  401.23   21.23
   3  -5  -9  378.90   19.37
  -3   5   8   45.51    4.23
  -3   5   8   33.75    2.79
   3  -5  -8   39.00    3.05
   3  -5  -8   43.82    4.48
  -3   5   7   69.96    4.91
  -3   5   7   67.00    4.15
   3  -5  -7   72.07    4.31
   3  -5  -7   60.48    4.99
  -3   5   6  197.27   10.57
   3  -5  -6  219.94   11.76
  -3   5   5  192.79    9.98
  -3   5   5  197.78   10.41
   3  -5  -5  223.75   11.59
   3  -5  -5  198.54   10.66
  -3   5   4   26.73    1.95
  -3   5   4   24.11    2.28
   3  -5  -4   27.07    2.45
   3  -5  -4   33.41    2.20
  -3   5   3  464.76   23.52
  -3   5   3  509.68   25.72
   3  -5  -3  510.36   25.80
   3  -5  -3  547.49   27.58
  -3   5   2  966.91   48.47
  -3   5   2  941.53   47.20
   3  -5  -2 1010.90   50.67
   3  -5  -2  982.98   49.23
  -3   5   1  547.41   27.58
  -3   5   1  518.14   26.14
   3  -5  -1  501.73   25.29
   3  -5  -1  487.85   24.62
  -3   5   0  740.70   37.14
  -3   5   0  758.47   38.15
   3  -5   0  727.42   36.46
   3  -5   0  735.04   36.97
  -3   5  -1   12.01    1.27
  -3   5  -1   14.38    1.78
   3  -5   1   11.25    1.18
   3  -5   1   12.77    1.61
  -3   5  -2 4266.92  213.18
  -3   5  -2 4225.47  211.32
   3  -5   2 4110.42  205.39
   3  -5   2 3735.67  186.87
  -3   5  -3 1415.26   70.89
  -3   5  -3 1247.76   62.85
   3  -5   3 1314.59   66.07
   3  -5   3 1344.20   67.34
  -3   5  -4 1406.80   70.47
  -3   5  -4 1308.67   65.90
   3  -5   4 1307.82   65.81
   3  -5   4 1383.96   69.37
  -3   5  -5  788.25   39.67
  -3   5  -5  904.31   45.85
   3  -5   5  912.77   46.27
   3  -5   5  820.56   41.28
  -3   5  -6 1993.03   99.91
  -3   5  -6 2223.13  111.58
   3  -5   6 2125.84  106.76
   3  -5   6 1991.34   99.82
  -3   5  -7  341.08   17.51
  -3   5  -7  372.72   19.54
   3  -5   7  344.80   17.76
   3  -5   7  348.36   18.44
  -3   5  -8  352.84   18.19
  -3   5  -8  401.48   21.06
   3  -5   8  370.18   19.63
   3  -5   8  361.39   18.70
  -3   5  -9  768.11   39.17
  -3   5  -9  766.25   38.83
   3  -5   9  745.86   38.15
   3  -5   9  731.74   37.14
  -3   5 -10  326.87   17.09
  -3   5 -10  305.81   16.50
   3  -5  10  305.13   16.41
   3  -5  10  306.57   16.07
  -3   5 -11    2.88    3.30
  -3   5 -11    7.28    3.81
   3  -5  11    4.31    4.65
   3  -5  11    4.06    3.47
  -3   5 -12   10.49    3.72
  -3   5 -12   13.79    5.16
   3  -5  12    9.98    3.55
   3  -5  12    5.50    4.40
  -3   5 -13    1.10    4.06
  -3   5 -13    0.51    4.74
   3  -5  13    3.89    5.58
   3  -5  13   -3.98    3.81
  -3   5 -14  388.88   20.30
  -3   5 -14  370.10   20.13
   3  -5  14  373.91   19.54
   3  -5  14  353.94   19.46
  -3   4  16   11.84    4.57
  -3   4  16   15.90    5.67
   3  -4 -16   18.61    5.58
   3  -4 -16   23.26    4.57
  -3   4  15  290.07   15.40
  -3   4  15  322.22   17.51
   3  -4 -15  301.24   16.41
   3  -4 -15  285.67   15.23
  -3   4  14   71.82    5.33
  -3   4  14   82.73    6.68
   3  -4 -14   85.10    6.43
   3  -4 -14   85.95    5.75
  -3   4  13  494.28   25.80
  -3   4  13  507.48   25.97
   3  -4 -13  507.48   25.97
   3  -4 -13  523.72   27.24
  -3   4  12   16.16    3.13
  -3   4  12   20.47    3.89
   3  -4 -12   19.37    4.74
   3  -4 -12   21.99    3.21
  -3   4  11   12.27    2.54
  -3   4  11    8.97    3.98
   3  -4 -11   10.74    3.98
   3  -4 -11   13.87    2.88
  -3   4  10  427.20   22.25
  -3   4  10  407.24   20.89
   3  -4 -10  438.79   22.50
   3  -4 -10  448.26   23.52
  -3   4   9 1092.95   55.32
  -3   4   9 1058.27   53.21
   3  -4  -9 1073.50   54.39
   3  -4  -9 1023.59   51.52
  -3   4   8  291.93   15.73
  -3   4   8  244.48   12.69
  -3   4   7  171.81    9.47
  -3   4   7  171.47    9.05
   3  -4  -7  167.67    8.80
   3  -4  -7  197.27   10.66
  -3   4   6    0.68    1.52
  -3   4   6    1.10    2.03
   3  -4  -6    3.13    1.35
   3  -4  -6    0.42    1.86
  -3   4   5   78.33    4.40
  -3   4   5   75.46    4.40
   3  -4  -5   79.10    4.40
   3  -4  -5   79.94    4.82
  -3   4   4  737.41   37.05
  -3   4   4  703.48   35.44
   3  -4  -4  797.13   40.01
   3  -4  -4  717.61   36.21
   3  -4  -3   42.72    2.71
   3  -4  -3   45.85    2.62
  -3   4   2  771.67   38.74
  -3   4   2  772.77   38.74
   3  -4  -2  791.71   39.76
   3  -4  -2  817.85   41.03
  -3   4   0  822.00   41.20
  -3   4   0  810.49   40.69
   3  -4   0  831.30   41.70
   3  -4   0  820.65   41.11
  -3   4  -1  192.54    9.81
  -3   4  -1  180.52    9.39
   3  -4   1  171.39    8.88
   3  -4   1  179.76    9.22
  -3   4  -2  471.86   24.02
  -3   4  -2  487.01   24.53
   3  -4   2  485.48   24.45
   3  -4   2  453.68   23.01
  -3   4  -3 1052.35   52.96
  -3   4  -3 1113.26   55.75
   3  -4   3 1066.73   53.46
   3  -4   3 1087.88   54.65
  -3   4  -4  871.32   44.07
  -3   4  -4  806.01   40.52
   3  -4   4  850.17   42.97
   3  -4   4  800.09   40.27
  -3   4  -5  468.82   24.19
  -3   4  -5  400.13   20.30
   3  -4   5  398.61   20.30
   3  -4   5  448.18   23.01
  -3   4  -6  541.65   27.49
  -3   4  -6  527.27   27.15
   3  -4   6  547.66   28.09
   3  -4   6  525.24   26.73
  -3   4  -7 1134.40   57.19
  -3   4  -7 1154.71   58.37
   3  -4   7 1162.32   58.62
   3  -4   7 1087.88   55.07
  -3   4  -8   42.04    4.23
  -3   4  -8   41.45    3.89
   3  -4   8   40.01    4.40
   3  -4   8   43.65    3.89
  -3   4  -9 1818.77   91.36
  -3   4  -9 1678.34   84.51
   3  -4   9 1773.09   89.08
   3  -4   9 1729.95   87.13
  -3   4 -10 1168.24   58.96
  -3   4 -10 1156.40   58.45
   3  -4  10 1074.34   54.48
   3  -4  10 1204.62   60.82
  -3   4 -11   24.36    3.89
  -3   4 -11   20.22    4.40
   3  -4  11   19.71    4.23
   3  -4  11   19.37    3.72
  -3   4 -12   -2.37    4.65
  -3   4 -12    1.18    3.81
   3  -4  12    2.71    3.89
   3  -4  12   -0.85    4.06
  -3   4 -13  200.32   11.42
  -3   4 -13  188.73   11.67
   3  -4  13  194.40   11.59
   3  -4  13  200.83   11.25
  -3   4 -14  292.95   15.82
  -3   4 -14  268.08   15.65
   3  -4  14  279.16   15.23
   3  -4  14  279.50   15.73
  -3   3  16  219.10   12.10
  -3   3  16  207.34   12.01
   3  -3 -16  218.51   12.35
   3  -3 -16  218.25   12.69
  -3   3  15   75.88    6.85
  -3   3  15   91.62    6.26
   3  -3 -15   78.93    6.60
   3  -3 -15   77.15    6.01
  -3   3  14   17.93    4.06
  -3   3  14   21.74    4.40
   3  -3 -14   20.39    3.72
   3  -3 -14   25.04    5.16
  -3   3  13  418.15   21.57
  -3   3  13  394.29   20.73
   3  -3 -13  388.20   20.56
   3  -3 -13  404.44   21.06
  -3   3  12   15.06    3.30
  -3   3  12   20.22    3.72
   3  -3 -12   19.12    4.06
   3  -3 -12   23.18    3.38
  -3   3  11   56.51    4.65
  -3   3  11   60.57    4.65
   3  -3 -11   63.70    5.33
   3  -3 -11   62.94    4.57
  -3   3  10   72.07    5.16
  -3   3  10   71.14    4.65
   3  -3 -10   64.21    4.74
   3  -3 -10   61.75    5.33
  -3   3   9  555.19   28.59
  -3   3   9  623.37   31.72
   3  -3  -9  569.57   29.35
   3  -3  -9  615.34   31.30
  -3   3   8 2897.34  145.16
  -3   3   8 3118.98  156.16
   3  -3  -8 3107.13  155.65
   3  -3  -8 3159.58  158.11
  -3   3   7 1293.44   65.05
  -3   3   7 1223.23   61.50
   3  -3  -7 1285.83   64.71
   3  -3  -7 1241.84   62.35
  -3   3   6  361.89   18.61
  -3   3   6  347.09   17.68
   3  -3  -6  353.69   18.19
   3  -3  -6  327.80   16.66
  -3   3   5    0.59    1.52
  -3   3   5    1.95    1.10
   3  -3  -5    1.52    1.02
   3  -3  -5    2.62    1.78
  -3   3   4 2550.51  127.65
  -3   3   4 2729.00  136.45
   3  -3  -4 2538.66  127.06
   3  -3  -4 2745.07  137.21
  -3   3   3 5249.90  262.33
   3  -3  -3 5809.91  290.33
  -3   3   2 1984.57   99.23
  -3   3   2 1796.77   89.84
   3  -3  -2 2013.33  100.67
   3  -3  -2 1949.04   97.45
  -3   3   0 3199.34  159.88
   3  -3   0 3075.83  153.79
  -3   3  -1   40.86    2.54
  -3   3  -1   45.26    2.54
   3  -3   1   43.99    2.54
   3  -3   1   42.97    2.62
  -3   3  -2  119.87    6.18
  -3   3  -2  114.03    6.18
   3  -3   2  125.45    6.68
   3  -3   2  115.72    6.01
  -3   3  -3 1334.89   66.83
  -3   3  -3 1414.41   70.97
   3  -3   3 1372.96   68.94
   3  -3   3 1301.90   65.22
  -3   3  -4   60.57    4.06
  -3   3  -4   63.95    3.81
   3  -3   4   67.51    4.06
   3  -3   4   63.87    4.06
   3  -3   5   23.60    2.45
   3  -3   5   19.71    2.28
  -3   3  -6    4.48    2.11
  -3   3  -6    4.74    2.88
   3  -3   6    3.30    2.20
   3  -3   6    5.75    2.28
  -3   3  -7  598.84   30.45
  -3   3  -7  562.30   28.93
   3  -3   7  586.91   29.86
   3  -3   7  575.75   29.61
  -3   3  -8  631.66   32.40
  -3   3  -8  662.96   33.75
   3  -3   8  713.72   36.46
   3  -3   8  707.80   36.04
  -3   3  -9  121.82    7.61
  -3   3  -9  124.44    7.53
   3  -3   9  130.36    7.70
   3  -3   9  116.57    7.53
  -3   3 -10  351.91   18.61
  -3   3 -10  311.56   16.50
   3  -3  10  328.14   17.51
   3  -3  10  333.81   17.60
  -3   3 -11  171.89   10.07
  -3   3 -11  151.42    8.97
   3  -3  11  161.15    9.39
   3  -3  11  164.70    9.90
  -3   3 -12   26.48    4.40
  -3   3 -12   31.64    4.57
   3  -3  12   28.76    4.48
   3  -3  12   33.41    5.24
  -3   3 -13  421.36   21.99
  -3   3 -13  455.62   24.02
   3  -3  13  421.79   21.99
   3  -3  13  452.15   24.02
  -3   3 -14  420.18   22.08
  -3   3 -14  391.42   21.15
   3  -3  14  403.43   21.15
   3  -3  14  377.29   20.22
  -3   2  16    1.27    4.74
  -3   2  16    7.87    5.50
   3  -2 -16    9.14    5.24
   3  -2 -16    5.58    4.23
  -3   2  15  542.33   28.09
  -3   2  15  580.57   29.86
   3  -2 -15  559.59   28.76
   3  -2 -15  529.56   27.41
  -3   2  14  566.02   28.93
  -3   2  14  555.36   28.68
   3  -2 -14  568.39   29.52
   3  -2 -14  583.61   29.95
  -3   2  13  109.13    7.44
  -3   2  13   96.18    6.26
   3  -2 -13  109.80    7.28
   3  -2 -13   98.55    6.43
  -3   2  12   90.26    6.01
  -3   2  12   97.45    6.51
   3  -2 -12   92.04    6.51
   3  -2 -12   90.60    5.84
  -3   2  11   26.39    3.30
  -3   2  11   26.90    4.15
   3  -2 -11   30.45    4.06
   3  -2 -11   32.48    3.72
  -3   2  10 1235.07   62.18
  -3   2  10 1203.77   60.82
   3  -2 -10 1190.24   60.23
   3  -2 -10 1248.61   62.94
  -3   2   9  197.61   10.83
  -3   2   9  200.66   10.91
   3  -2  -9  202.60   11.08
   3  -2  -9  207.85   11.17
  -3   2   8  186.87   10.07
  -3   2   8  178.92    9.73
   3  -2  -8  182.13    9.98
   3  -2  -8  179.09    9.56
  -3   2   7  538.10   27.32
  -3   2   7  546.14   27.75
   3  -2  -7  536.66   27.15
   3  -2  -7  533.11   27.15
  -3   2   6 1278.21   64.21
  -3   2   6 1338.28   67.17
   3  -2  -6 1293.44   64.88
   3  -2  -6 1223.23   61.50
  -3   2   5 1043.89   52.45
  -3   2   5 1079.42   54.22
   3  -2  -5 1094.65   54.90
   3  -2  -5 1032.89   51.94
  -3   2   4   47.46    2.88
  -3   2   4   44.67    2.62
   3  -2  -4   42.72    2.54
   3  -2  -4   44.24    2.79
  -3   2   3 3113.06  155.65
   3  -2  -3 3044.53  152.18
  -3   2   1  109.80    5.58
  -3   2   1  108.87    5.50
   3  -2  -1  109.46    5.58
   3  -2  -1  109.97    5.58
  -3   2  -1 1809.46   90.52
  -3   2  -1 1688.49   84.51
   3  -2   1 1639.43   82.06
   3  -2   1 1811.16   90.60
  -3   2  -2  776.99   39.08
  -3   2  -2  880.62   44.16
   3  -2   2  836.04   41.96
   3  -2   2  813.62   40.86
  -3   2  -3 1805.23   90.43
  -3   2  -3 1765.47   88.40
   3  -2   3 1788.32   89.50
   3  -2   3 1612.36   80.79
  -3   2  -4  507.23   25.63
  -3   2  -4  539.46   27.41
   3  -2   4  507.48   25.63
   3  -2   4  532.69   26.99
  -3   2  -5  188.39    9.90
  -3   2  -5  193.55   10.41
   3  -2   5  188.81    9.98
   3  -2   5  191.10   10.24
  -3   2  -6  239.06   12.52
  -3   2  -6  250.57   13.28
   3  -2   6  237.46   12.44
   3  -2   6  257.67   13.62
  -3   2  -7  252.43   13.54
  -3   2  -7  248.37   13.11
   3  -2   7  257.25   13.54
   3  -2   7  251.24   13.62
  -3   2  -8   11.93    2.79
  -3   2  -8   21.32    3.38
   3  -2   8    6.01    2.88
   3  -2   8   17.00    3.47
  -3   2  -9   11.42    3.21
  -3   2  -9   12.77    3.72
   3  -2   9   18.44    3.30
   3  -2   9   10.07    3.05
  -3   2 -10   74.36    5.67
  -3   2 -10   72.50    5.24
   3  -2  10   73.09    5.92
   3  -2  10   71.23    5.41
  -3   2 -11  214.87   12.10
  -3   2 -11  202.26   11.17
   3  -2  11  191.94   10.91
   3  -2  11  233.73   12.94
  -3   2 -12   78.84    5.92
  -3   2 -12   76.22    5.67
   3  -2  12   70.38    5.67
   3  -2  12   72.33    6.43
  -3   2 -13  297.77   16.33
  -3   2 -13  305.55   16.16
   3  -2  13  281.70   15.23
   3  -2  13  307.33   16.66
  -3   2 -14  235.68   12.94
  -3   2 -14  244.39   13.96
   3  -2  14  230.01   13.28
   3  -2  14  230.43   12.86
  -3   1  17    2.20    5.24
  -3   1  17   -1.35    5.16
   3  -1 -17    3.05    5.50
   3  -1 -17    3.89    4.74
  -3   1  16  119.70    7.95
  -3   1  16  117.59    8.12
   3  -1 -16  116.57    8.04
   3  -1 -16  127.65    8.29
  -3   1  15   18.61    4.65
  -3   1  15   15.99    4.48
   3  -1 -15   20.13    4.40
   3  -1 -15   18.61    4.40
  -3   1  14  288.47   15.73
  -3   1  14  259.11   13.87
   3  -1 -14  266.64   14.47
   3  -1 -14  293.79   15.99
  -3   1  13  382.11   20.13
  -3   1  13  397.51   20.81
   3  -1 -13  349.03   18.36
   3  -1 -13  372.89   19.71
  -3   1  12  337.11   17.68
  -3   1  12  365.19   19.20
   3  -1 -12  325.26   17.17
   3  -1 -12  340.66   18.10
  -3   1  11   28.09    3.64
  -3   1  11   27.32    3.30
   3  -1 -11   21.83    3.89
   3  -1 -11   31.98    3.89
  -3   1  10  726.41   36.88
  -3   1  10  725.98   37.14
   3  -1 -10  723.36   36.80
   3  -1 -10  745.10   38.07
  -3   1   9 2928.64  146.77
  -3   1   9 2996.32  150.07
   3  -1  -9 2810.21  140.85
   3  -1  -9 2922.72  146.43
  -3   1   8   63.36    4.23
  -3   1   8   69.54    4.65
   3  -1  -8   67.76    4.31
   3  -1  -8   68.27    4.40
  -3   1   7 3572.40  178.75
  -3   1   7 3440.43  172.15
   3  -1  -7 3426.05  171.39
   3  -1  -7 3428.59  171.56
  -3   1   6   39.67    2.79
  -3   1   6   36.80    2.71
   3  -1  -6   34.68    2.45
   3  -1  -6   33.08    2.62
  -3   1   5  900.93   45.26
  -3   1   5  855.24   42.97
   3  -1  -5  877.24   44.16
   3  -1  -5  818.11   41.11
  -3   1   4  773.19   38.83
  -3   1   4  790.28   39.67
   3  -1  -4  786.81   39.51
   3  -1  -4  777.93   39.08
  -3   1   3   11.84    0.93
  -3   1   3   11.17    1.02
   3  -1  -3   10.49    1.02
   3  -1  -3   10.41    0.93
   3  -1  -2  127.91    6.43
   3  -1  -2  109.30    5.58
   3  -1  -1   16.50    0.93
   3  -1  -1   15.82    0.85
  -3   1   0  109.97    5.58
  -3   1   0  116.32    5.92
   3  -1   0  109.80    5.58
   3  -1   0  100.58    5.16
  -3   1  -1   53.72    2.96
  -3   1  -1   53.89    2.88
   3  -1   1   51.52    2.79
   3  -1   1   48.90    2.62
  -3   1  -2   93.73    4.99
  -3   1  -2   88.65    4.82
   3  -1   2   87.47    4.65
   3  -1   2   91.95    4.91
  -3   1  -3 1848.38   92.63
  -3   1  -3 1864.45   93.39
   3  -1   3 1746.86   87.47
   3  -1   3 1832.30   91.78
  -3   1  -4 6245.57  312.15
  -3   1  -4 6420.68  320.95
   3  -1   4 6177.89  308.77
   3  -1   4 6226.96  311.22
  -3   1  -5   24.11    2.79
  -3   1  -5   25.46    2.54
   3  -1   5   22.50    2.54
   3  -1   5   26.73    2.62
  -3   1  -6   85.36    5.24
  -3   1  -6   89.08    5.67
   3  -1   6  102.53    6.09
   3  -1   6   94.07    5.67
  -3   1  -7 2127.54  106.67
  -3   1  -7 2097.93  105.40
   3  -1   7 2064.94  103.63
   3  -1   7 1941.43   97.54
  -3   1  -8  661.61   33.75
  -3   1  -8  655.35   33.58
   3  -1   8  642.66   32.99
   3  -1   8  665.08   34.01
  -3   1  -9 1587.83   79.94
  -3   1  -9 1625.89   81.89
   3  -1   9 1590.37   80.11
   3  -1   9 1561.60   78.67
  -3   1 -10  222.06   12.18
  -3   1 -10  206.83   11.50
   3  -1  10  193.21   10.74
   3  -1  10  202.69   11.50
  -3   1 -11  319.76   17.00
  -3   1 -11  319.93   17.17
   3  -1  11  323.40   17.17
   3  -1  11  312.66   16.58
  -3   1 -12  278.31   15.14
  -3   1 -12  261.90   14.38
   3  -1  12  243.04   13.45
   3  -1  12  257.67   14.04
  -3   1 -13  260.21   14.30
  -3   1 -13  244.81   13.62
   3  -1  13  244.39   13.28
   3  -1  13  242.87   13.45
  -3   1 -14   21.32    4.57
  -3   1 -14   23.69    5.08
   3  -1  14   11.59    4.82
   3  -1  14   11.42    4.82
  -3   0  17   24.19    4.91
  -3   0  17   32.40    6.01
   3   0 -17   31.55    5.58
   3   0 -17   33.50    4.82
  -3   0  16  440.40   23.01
  -3   0  16  438.53   23.01
   3   0 -16  448.69   23.43
   3   0 -16  458.33   24.02
  -3   0  15   37.39    5.16
  -3   0  15   50.16    4.65
   3   0 -15   56.00    5.33
   3   0 -15   52.11    5.33
  -3   0  14  134.17    8.29
  -3   0  14  128.33    8.12
   3   0 -14  127.57    8.12
   3   0 -14  124.35    8.12
   3   0 -13    7.36    3.38
   3   0 -13   13.45    3.89
  -3   0  12  825.47   41.96
  -3   0  12  803.98   40.86
   3   0 -12  798.99   40.77
   3   0 -12  806.26   41.03
  -3   0  11   11.00    3.13
  -3   0  11    3.64    2.71
   3   0 -11    6.09    3.64
   3   0 -11    8.12    3.64
  -3   0  10   17.26    3.21
  -3   0  10   29.02    3.38
   3   0 -10   18.61    3.72
   3   0 -10   16.66    3.55
  -3   0   9 1086.19   54.82
  -3   0   9 1106.49   55.92
   3   0  -9 1042.20   52.70
   3   0  -9 1131.02   57.02
  -3   0   8 3693.37  184.84
  -3   0   8 3607.08  180.61
   3   0  -8 3484.42  174.43
   3   0  -8 3631.62  181.71
  -3   0   7   40.01    3.05
  -3   0   7   37.39    3.13
   3   0  -7   35.53    2.96
   3   0  -7   39.67    3.13
  -3   0   6   87.22    5.08
  -3   0   6   85.02    4.82
   3   0  -6   89.75    5.16
   3   0  -6   91.53    5.16
  -3   0   5  406.56   20.64
  -3   0   5  397.25   20.13
   3   0  -5  406.30   20.64
   3   0  -5  396.32   20.13
  -3   0   4   73.94    4.06
  -3   0   4   77.32    4.15
   3   0  -4   82.82    4.48
   3   0  -4   75.12    4.06
  -3   0   2    4.48    0.51
  -3   0   2    6.26    0.51
  -3   0   1  261.06   13.37
  -3   0   1  261.90   13.45
   3   0  -1  285.17   14.47
   3   0  -1  273.66   13.87
   3   0   0  275.61   13.87
   3   0   0  314.69   15.82
  -3   0  -1 1617.44   80.96
  -3   0  -1 1839.92   92.04
   3   0   1 1783.24   89.25
   3   0   1 1608.13   80.53
  -3   0  -2  949.14   47.63
  -3   0  -2 1000.75   50.25
   3   0   2  998.21   50.08
   3   0   2 1001.59   50.25
  -3   0  -3    9.73    1.44
  -3   0  -3    7.61    1.44
   3   0   3    8.63    1.52
   3   0   3    7.11    1.35
  -3   0  -4  548.08   27.75
  -3   0  -4  557.39   28.17
   3   0   4  526.60   26.65
   3   0   4  538.44   27.32
  -3   0  -5  692.23   35.02
  -3   0  -5  710.34   35.87
   3   0   5  700.18   35.36
   3   0   5  689.27   34.94
  -3   0  -6  516.02   26.31
  -3   0  -6  501.98   25.63
   3   0   6  522.03   26.65
   3   0   6  494.87   25.29
  -3   0  -7   47.71    3.98
  -3   0  -7   57.35    4.40
   3   0   7   59.13    4.48
   3   0   7   63.36    4.48
  -3   0  -8  814.39   41.45
  -3   0  -8  759.82   38.57
   3   0   8  816.84   41.62
   3   0   8  745.70   37.98
  -3   0  -9  511.29   26.48
  -3   0  -9  477.03   24.53
   3   0   9  475.76   24.62
   3   0   9  534.97   27.66
  -3   0 -10 1503.23   75.63
  -3   0 -10 1443.17   72.75
   3   0  10 1590.37   80.20
   3   0  10 1532.00   77.07
  -3   0 -11    9.73    4.06
  -3   0 -11    3.98    3.64
   3   0  11    8.71    3.05
   3   0  11    9.64    4.57
  -3   0 -12  234.07   13.11
  -3   0 -12  244.98   13.37
   3   0  12  216.73   12.44
   3   0  12  218.42   12.18
  -3   0 -13  261.48   14.38
  -3   0 -13  300.22   16.24
   3   0  13  271.21   14.72
   3   0  13  246.42   13.70
  -3   0 -14  478.63   24.96
  -3   0 -14  477.11   24.96
   3   0  14  474.66   24.96
   3   0  14  464.25   24.36
  -3  -1  17   15.23    5.92
  -3  -1  17   29.95    4.99
   3   1 -17   24.19    4.40
   3   1 -17   34.43    6.09
  -3  -1  16  102.19    7.78
  -3  -1  16   93.81    6.51
   3   1 -16  101.01    7.02
   3   1 -16   92.38    6.94
  -3  -1  15 1725.72   86.88
  -3  -1  15 1626.74   81.80
   3   1 -15 1581.06   79.60
   3   1 -15 1643.66   82.90
  -3  -1  14   56.42    4.65
  -3  -1  14   62.43    5.75
   3   1 -14   59.38    5.24
   3   1 -14   70.21    6.18
  -3  -1  13  374.50   19.54
  -3  -1  13  400.38   21.06
   3   1 -13  372.64   19.46
   3   1 -13  410.37   21.66
  -3  -1  12  267.99   14.30
  -3  -1  12  276.96   14.97
   3   1 -12  255.81   13.79
   3   1 -12  279.16   15.14
  -3  -1  11  590.55   30.20
  -3  -1  11  625.23   32.06
   3   1 -11  602.65   30.79
   3   1 -11  628.79   32.31
  -3  -1  10  380.59   19.96
  -3  -1  10  325.43   17.09
   3   1 -10  381.43   19.96
   3   1 -10  367.73   19.20
  -3  -1   9  541.91   27.92
  -3  -1   9  531.50   27.07
   3   1  -9  521.35   26.82
   3   1  -9  499.78   25.55
  -3  -1   8  124.44    6.77
  -3  -1   8  108.87    6.51
   3   1  -8  117.84    6.85
   3   1  -8  116.40    6.60
  -3  -1   7  753.48   38.15
  -3  -1   7  726.07   36.63
   3   1  -7  755.76   38.15
   3   1  -7  773.87   39.08
  -3  -1   6  229.00   12.01
  -3  -1   6  231.79   11.93
   3   1  -6  228.83   11.93
   3   1  -6  219.18   11.50
  -3  -1   5  619.57   31.22
  -3  -1   5  561.11   28.42
   3   1  -5  589.62   29.78
   3   1  -5  621.17   31.30
  -3  -1   4    4.48    1.02
  -3  -1   4    1.52    1.18
   3   1  -4    3.89    1.18
   3   1  -4    2.96    1.02
   3   1  -3 2234.97  111.83
   3   1  -3 2564.89  128.24
  -3  -1   2 3940.38  197.02
   3   1  -2 4512.24  225.61
  -3  -1   1   45.17    2.45
  -3  -1   1   46.36    2.45
  -3  -1   0  306.23   15.40
  -3  -1   0  285.59   14.38
   3   1   0  294.47   14.80
   3   1   0  289.14   14.63
   3   1   1 1571.75   78.67
   3   1   1 1792.54   89.67
  -3  -1  -2 2838.13  141.95
  -3  -1  -2 2820.36  141.02
   3   1   2 2812.75  140.60
   3   1   2 2805.13  140.34
  -3  -1  -3 1361.96   68.27
  -3  -1  -3 1279.91   64.21
   3   1   3 1325.59   66.41
   3   1   3 1326.43   66.58
  -3  -1  -4  217.07   11.42
  -3  -1  -4  233.99   12.18
   3   1   4  243.72   12.60
   3   1   4  220.54   11.59
  -3  -1  -5  257.08   13.37
  -3  -1  -5  239.32   12.60
   3   1   5  266.30   13.79
   3   1   5  248.20   13.03
  -3  -1  -6  153.37    8.46
  -3  -1  -6  150.58    8.29
   3   1   6  157.09    8.71
   3   1   6  148.38    8.21
  -3  -1  -7 1266.37   63.78
  -3  -1  -7 1299.36   65.56
   3   1   7 1235.92   62.43
   3   1   7 1306.98   65.81
  -3  -1  -8   21.40    3.13
  -3  -1  -8   18.19    3.47
   3   1   8   19.96    3.72
   3   1   8   22.16    3.30
  -3  -1  -9   65.05    4.91
  -3  -1  -9   72.84    5.75
   3   1   9   75.12    5.24
   3   1   9   68.69    5.41
  -3  -1 -10    9.81    3.21
  -3  -1 -10    9.14    3.47
   3   1  10   10.83    4.48
   3   1  10    6.18    3.38
  -3  -1 -11  159.71    9.81
  -3  -1 -11  162.67    9.47
   3   1  11  165.47    9.47
   3   1  11  156.24    9.31
  -3  -1 -12   29.69    4.74
  -3  -1 -12   24.11    4.57
   3   1  12   22.25    5.41
   3   1  12   19.37    3.81
  -3  -1 -13  208.86   12.10
  -3  -1 -13  205.22   11.84
   3   1  13  197.10   11.25
   3   1  13  198.71   11.84
  -3  -1 -14   19.29    6.34
  -3  -1 -14   31.47    5.58
   3   1  14   13.03    5.50
   3   1  14   29.18    5.33
   3   2 -17  102.61    9.64
  -3  -2  16    7.61    6.01
  -3  -2  16   15.73    4.31
   3   2 -16    6.18    4.99
   3   2 -16   12.18    4.99
  -3  -2  15   95.76    7.53
  -3  -2  15  110.56    7.19
   3   2 -15  100.24    7.78
   3   2 -15  106.59    7.19
  -3  -2  14 1207.16   60.99
  -3  -2  14 1246.07   62.94
   3   2 -14 1205.46   61.16
   3   2 -14 1215.61   61.42
  -3  -2  13  420.26   21.91
  -3  -2  13  418.82   21.91
   3   2 -13  420.35   22.16
   3   2 -13  431.85   22.42
  -3  -2  12   36.88    4.31
  -3  -2  12   46.78    4.40
   3   2 -12   46.95    4.99
   3   2 -12   46.53    4.31
  -3  -2  11   52.28    4.40
  -3  -2  11   46.36    4.31
   3   2 -11   60.40    4.82
   3   2 -11   43.74    4.74
  -3  -2  10  401.91   21.06
  -3  -2  10  440.40   22.76
   3   2 -10  401.48   20.98
   3   2 -10  429.14   22.16
  -3  -2   9  864.55   43.65
  -3  -2   9  833.00   42.38
   3   2  -9  821.32   41.54
   3   2  -9  807.62   41.11
  -3  -2   8  311.39   16.41
  -3  -2   8  334.82   17.26
   3   2  -8  337.53   17.43
   3   2  -8  313.00   16.41
  -3  -2   7   42.55    3.05
  -3  -2   7   38.91    3.47
   3   2  -7   45.77    3.30
   3   2  -7   50.59    3.64
  -3  -2   6  783.68   39.67
  -3  -2   6  795.86   40.01
   3   2  -6  787.91   39.67
   3   2  -6  802.37   40.52
  -3  -2   5  102.02    5.41
  -3  -2   5  118.52    6.51
   3   2  -5  113.44    6.26
   3   2  -5  110.73    5.92
  -3  -2   4 1169.93   58.62
  -3  -2   4 1079.42   54.22
   3   2  -4 1015.13   50.93
   3   2  -4 1134.40   56.85
  -3  -2   3    2.20    1.35
  -3  -2   3    5.24    0.76
   3   2  -3    2.71    0.85
   3   2  -3    2.37    1.27
  -3  -2   2  672.44   33.75
  -3  -2   2  731.31   36.63
   3   2  -2  660.51   33.16
   3   2  -2  731.91   36.63
  -3  -2   1  151.08    7.78
  -3  -2   1  144.82    7.44
   3   2  -1  158.95    8.12
   3   2  -1  158.36    8.12
  -3  -2   0  214.02   10.83
  -3  -2   0  204.80   10.41
   3   2   0  207.51   10.49
   3   2   0  195.67    9.98
  -3  -2  -1  871.32   43.65
  -3  -2  -1  901.77   45.26
   3   2   1  858.63   43.14
   3   2   1  840.53   42.13
   3   2   2 3869.33  193.47
   3   2   2 4090.96  204.46
  -3  -2  -3  568.30   28.68
  -3  -2  -3  555.95   28.17
   3   2   3  538.95   27.15
   3   2   3  550.71   27.92
  -3  -2  -4 1573.45   78.93
  -3  -2  -4 1418.64   71.06
   3   2   4 1422.87   71.31
   3   2   4 1540.46   77.32
  -3  -2  -5  481.51   24.45
  -3  -2  -5  493.52   25.29
   3   2   5  479.73   24.36
   3   2   5  544.45   27.83
  -3  -2  -6 1153.02   58.03
  -3  -2  -6 1073.50   54.22
   3   2   6 1035.43   52.28
   3   2   6 1220.69   61.50
  -3  -2  -7  138.90    7.78
  -3  -2  -7  144.15    8.71
   3   2   7  135.43    7.61
   3   2   7  142.37    8.46
  -3  -2  -8  797.55   40.69
  -3  -2  -8  874.70   44.24
   3   2   8  803.47   41.03
   3   2   8  798.06   40.44
  -3  -2  -9  534.21   27.32
  -3  -2  -9  483.79   25.29
   3   2   9  504.35   25.80
   3   2   9  494.45   25.63
  -3  -2 -10    6.68    4.48
  -3  -2 -10    5.92    3.13
   3   2  10    8.63    3.21
   3   2  10    1.35    3.64
  -3  -2 -11   13.79    3.81
  -3  -2 -11   17.17    5.08
   3   2  11   12.18    3.05
   3   2  11    4.40    4.31
  -3  -2 -12   67.34    5.75
  -3  -2 -12   56.93    5.75
   3   2  12   55.83    5.08
   3   2  12   63.61    6.34
  -3  -2 -13   37.81    5.08
  -3  -2 -13   31.38    5.50
   3   2  13   39.34    4.65
   3   2  13   36.38    6.18
  -3  -3  16   11.42    4.74
  -3  -3  16   13.11    5.67
   3   3 -16   13.96    4.91
   3   3 -16   13.54    6.34
  -3  -3  15   71.65    6.26
  -3  -3  15   58.54    5.33
   3   3 -15   76.30    5.67
   3   3 -15   63.61    6.85
  -3  -3  14  107.60    7.02
  -3  -3  14  104.98    7.19
   3   3 -14  108.45    7.19
   3   3 -14  100.75    7.53
  -3  -3  13  283.05   15.48
  -3  -3  13  307.92   16.41
   3   3 -13  313.08   16.66
   3   3 -13  305.72   16.50
  -3  -3  12   62.85    5.41
  -3  -3  12   63.19    4.91
   3   3 -12   52.28    4.91
   3   3 -12   45.00    4.99
  -3  -3  11   21.91    4.23
  -3  -3  11   27.75    3.47
   3   3 -11   27.49    3.81
   3   3 -11   28.42    3.81
  -3  -3  10   65.64    5.33
  -3  -3  10   55.41    4.40
   3   3 -10   54.39    4.82
   3   3 -10   64.63    4.74
  -3  -3   9 1114.10   56.42
  -3  -3   9 1111.56   56.09
   3   3  -9 1127.64   56.85
   3   3  -9 1129.33   57.19
  -3  -3   8  100.50    6.60
  -3  -3   8   96.10    5.50
   3   3  -8  106.42    6.68
   3   3  -8  106.33    6.09
  -3  -3   7  366.38   19.12
  -3  -3   7  323.06   16.50
   3   3  -7  321.80   16.50
   3   3  -7  344.13   17.93
  -3  -3   6   99.91    5.41
  -3  -3   6  104.56    6.26
   3   3  -6  105.66    5.67
   3   3  -6   96.01    5.67
  -3  -3   5 2432.07  121.90
  -3  -3   5 2647.79  132.39
   3   3  -5 2355.94  118.01
   3   3  -5 2595.34  129.85
  -3  -3   4 1605.59   80.36
  -3  -3   4 1495.62   75.03
   3   3  -4 1601.36   80.11
   3   3  -4 1508.31   75.63
  -3  -3   3 2152.07  107.77
  -3  -3   3 2091.16  104.56
   3   3  -3 2171.53  108.62
   3   3  -3 2092.85  104.73
  -3  -3   2  944.07   47.37
  -3  -3   2  960.99   48.13
   3   3  -2  979.60   49.06
   3   3  -2  944.91   47.37
  -3  -3   1 4584.14  229.08
  -3  -3   1 4372.66  218.51
   3   3  -1 4480.94  223.92
  -3  -3   0    2.03    1.02
  -3  -3   0    2.88    1.02
   3   3   0    3.47    0.85
   3   3   0    3.89    1.18
  -3  -3  -1  993.13   49.91
  -3  -3  -1  989.75   49.57
   3   3   1  923.77   46.27
   3   3   1  895.00   45.00
  -3  -3  -2 3040.30  152.02
  -3  -3  -2 3085.99  154.38
   3   3   2 2922.72  146.09
   3   3   2 2906.65  145.50
  -3  -3  -3  442.76   22.42
  -3  -3  -3  392.68   20.05
   3   3   3  370.27   19.03
   3   3   3  404.78   20.47
  -3  -3  -4  287.96   14.97
  -3  -3  -4  303.78   15.57
   3   3   4  293.79   15.06
   3   3   4  278.65   14.55
  -3  -3  -5  155.48    8.88
  -3  -3  -5  170.03    9.05
   3   3   5  166.73    8.88
   3   3   5  146.94    8.37
  -3  -3  -6   59.47    5.41
  -3  -3  -6   49.66    3.47
   3   3   6   50.42    4.99
   3   3   6   50.33    3.55
  -3  -3  -7  666.60   33.67
  -3  -3  -7  762.44   38.91
   3   3   7  653.40   33.08
   3   3   7  749.33   38.32
  -3  -3  -8   59.38    5.58
  -3  -3  -8   56.85    3.98
   3   3   8   61.16    4.15
   3   3   8   60.06    4.99
  -3  -3  -9  906.85   45.68
  -3  -3  -9  954.22   48.56
   3   3   9  955.07   48.56
   3   3   9  900.08   45.43
  -3  -3 -10  227.56   13.03
  -3  -3 -10  200.66   10.74
   3   3  10  202.26   11.84
   3   3  10  197.27   10.66
  -3  -3 -11    0.51    4.40
  -3  -3 -11    4.91    3.21
   3   3  11    4.48    3.30
   3   3  11   -2.28    5.08
  -3  -3 -12   25.97    3.81
  -3  -3 -12   30.28    4.99
   3   3  12   29.61    3.81
   3   3  12   33.92    6.26
  -3  -3 -13  118.85    7.53
  -3  -3 -13  125.54    8.80
   3   3  13  133.66    9.90
   3   3  13  114.29    7.28
  -3  -4  16  527.27   27.07
  -3  -4  16  525.16   27.75
   3   4 -16  543.52   28.76
   3   4 -16  521.10   26.73
  -3  -4  15   46.19    6.51
  -3  -4  15   62.09    5.24
   3   4 -15   69.87    5.58
   3   4 -15   63.61    6.18
  -3  -4  14   47.03    5.84
  -3  -4  14   58.54    4.82
   3   4 -14   51.69    5.75
   3   4 -14   64.63    5.16
  -3  -4  13  329.32   17.26
  -3  -4  13  303.18   16.50
   3   4 -13  316.80   17.26
   3   4 -13  330.76   17.34
  -3  -4  12   54.73    4.31
  -3  -4  12   53.89    4.99
   3   4 -12   54.06    4.48
   3   4 -12   54.31    5.50
  -3  -4  11   35.70    3.47
  -3  -4  11   34.68    4.23
   3   4 -11   28.93    3.30
   3   4 -11   26.65    4.74
  -3  -4  10    3.81    2.37
  -3  -4  10    2.28    3.38
   3   4 -10    5.50    4.15
   3   4 -10    4.65    2.37
  -3  -4   9   17.34    2.37
  -3  -4   9   16.58    3.89
   3   4  -9   18.78    3.98
   3   4  -9   13.03    2.28
  -3  -4   8  977.91   49.23
  -3  -4   8 1051.50   53.21
   3   4  -8  935.61   47.20
   3   4  -8 1022.74   51.86
  -3  -4   7   14.47    3.55
  -3  -4   7    7.28    1.78
   3   4  -7    8.71    3.05
   3   4  -7   11.17    1.86
  -3  -4   6   69.20    4.82
  -3  -4   6   79.94    4.57
   3   4  -6   83.07    4.74
   3   4  -6   70.72    4.74
  -3  -4   5 1197.00   59.98
  -3  -4   5 1191.93   60.06
   3   4  -5 1197.85   60.06
   3   4  -5 1160.63   58.45
  -3  -4   4 1973.58   98.64
  -3  -4   4 2130.07  106.84
   3   4  -4 2117.39  105.91
   3   4  -4 2111.46  105.83
  -3  -4   3  710.50   35.87
  -3  -4   3  718.37   36.04
   3   4  -3  740.37   37.14
   3   4  -3  691.47   34.85
  -3  -4   2  726.32   36.63
  -3  -4   2  810.33   40.61
   3   4  -2  744.76   37.39
   3   4  -2  771.75   38.83
  -3  -4   1 2336.48  116.82
  -3  -4   1 2322.10  116.23
   3   4  -1 2399.93  120.04
   3   4  -1 2378.78  118.94
  -3  -4   0 1896.60   94.91
  -3  -4   0 2083.55  104.22
   3   4   0 1763.78   88.32
   3   4   0 1951.58   97.62
  -3  -4  -1    2.71    1.52
  -3  -4  -1    3.05    1.27
   3   4   1    4.48    1.10
   3   4   1    0.59    1.52
  -3  -4  -2 2608.88  130.61
  -3  -4  -2 2448.15  122.41
   3   4   2 2349.17  117.50
   3   4   2 2372.01  118.77
  -3  -4  -3 3537.72  176.89
  -3  -4  -3 3467.50  173.59
   3   4   3 3351.61  167.75
   3   4   3 3300.01  164.96
  -3  -4  -4   75.88    4.57
  -3  -4  -4   68.27    4.82
   3   4   4   67.84    4.15
   3   4   4   60.82    4.65
  -3  -4  -5   75.29    5.67
  -3  -4  -5   68.69    4.23
   3   4   5   67.08    4.15
   3   4   5   57.86    4.57
  -3  -4  -6    5.16    2.11
  -3  -4  -6    5.58    4.06
   3   4   6    3.81    2.20
   3   4   6    8.88    3.38
  -3  -4  -7  755.51   38.15
  -3  -4  -7  786.81   40.27
   3   4   7  732.41   36.97
   3   4   7  717.86   36.80
  -3  -4  -8   70.21    4.57
  -3  -4  -8   59.38    5.75
   3   4   8   59.47    4.15
   3   4   8   70.04    6.18
  -3  -4  -9   14.80    2.79
  -3  -4  -9   16.58    4.65
   3   4   9   11.42    2.54
   3   4   9   17.26    4.99
  -3  -4 -10   12.01    2.88
  -3  -4 -10    9.31    5.08
   3   4  10    3.05    2.88
   3   4  10    2.11    5.08
  -3  -4 -11    7.02    3.30
  -3  -4 -11   -4.74    5.33
   3   4  11    4.65    2.96
   3   4  11    8.80    5.24
  -3  -4 -12   33.84    6.94
  -3  -4 -12   32.74    4.15
   3   4  12   35.11    5.67
   3   4  12   34.68    3.89
  -3  -5  15  415.95   22.50
  -3  -5  15  375.68   19.54
   3   5 -15  387.02   20.05
   3   5 -15  443.36   23.69
  -3  -5  14  155.65   10.15
  -3  -5  14  147.28    8.29
   3   5 -14  144.91    8.29
   3   5 -14  174.01   10.83
  -3  -5  13    0.42    2.71
  -3  -5  13   -3.72    5.24
   3   5 -13    2.03    4.31
   3   5 -13    2.88    2.88
  -3  -5  12   98.81    7.44
  -3  -5  12   76.81    5.16
   3   5 -12   72.75    4.99
   3   5 -12   84.34    6.85
  -3  -5  11  475.33   24.87
  -3  -5  11  414.85   21.23
   3   5 -11  427.79   21.91
   3   5 -11  489.54   25.55
  -3  -5  10 1091.26   55.32
  -3  -5  10 1004.98   50.59
   3   5 -10 1008.36   50.76
   3   5 -10 1026.12   52.11
  -3  -5   9  138.23    8.71
  -3  -5   9  129.51    7.19
   3   5  -9  119.62    6.77
   3   5  -9  122.83    7.61
  -3  -5   8 1438.94   72.58
  -3  -5   8 1544.68   77.49
   3   5  -8 1441.48   72.75
   3   5  -8 1550.61   77.83
  -3  -5   7  198.71   10.49
  -3  -5   7  179.00    9.98
   3   5  -7  203.70   10.74
   3   5  -7  187.29   10.49
  -3  -5   6    5.92    1.69
  -3  -5   6    5.08    3.05
   3   5  -6    0.42    3.21
   3   5  -6    3.64    1.95
  -3  -5   5   29.95    3.81
  -3  -5   5   26.22    2.03
   3   5  -5   20.13    3.38
   3   5  -5   23.18    2.03
  -3  -5   4  640.63   32.65
  -3  -5   4  617.11   31.05
   3   5  -4  659.07   33.16
   3   5  -4  662.29   33.67
  -3  -5   3   74.36    4.06
  -3  -5   3   68.35    4.31
   3   5  -3   77.23    4.31
   3   5  -3   68.52    4.23
  -3  -5   2   63.45    3.64
  -3  -5   2   55.16    3.55
   3   5  -2   59.64    3.38
   3   5  -2   65.64    3.98
  -3  -5   1   85.36    4.99
  -3  -5   1   79.35    4.48
   3   5  -1   84.93    4.91
   3   5  -1   84.85    4.82
  -3  -5   0 1191.93   59.81
  -3  -5   0 1073.50   53.89
   3   5   0 1164.86   58.45
   3   5   0 1048.96   52.70
  -3  -5  -1  297.77   15.31
   3   5   1  271.63   14.04
  -3  -5  -2    8.97    1.69
  -3  -5  -2   11.84    2.79
   3   5   2    8.54    1.61
   3   5   2    9.14    2.96
  -3  -5  -3  191.52    9.98
  -3  -5  -3  224.09   12.27
   3   5   3  211.74   11.67
   3   5   3  201.08   10.41
  -3  -5  -4  266.81   13.70
  -3  -5  -4  257.84   13.87
   3   5   4  251.07   12.94
   3   5   4  236.10   12.86
   3   5   5   29.95    2.62
   3   5   5   28.93    4.23
  -3  -5  -6   14.55    2.54
  -3  -5  -6   13.20    3.81
   3   5   6   14.55    2.20
   3   5   6   10.24    4.06
  -3  -5  -7  331.35   18.02
  -3  -5  -7  362.15   18.61
   3   5   7  315.45   16.33
   3   5   7  305.81   16.50
  -3  -5  -8 1109.87   55.83
  -3  -5  -8 1087.03   55.24
   3   5   8 1023.59   51.52
   3   5   8  999.90   51.01
  -3  -5  -9   22.84    3.05
  -3  -5  -9   21.23    4.91
   3   5   9   24.11    3.30
   3   5   9   21.66    6.01
  -3  -5 -10  173.25    9.64
  -3  -5 -10  154.38   10.41
   3   5  10  160.64    9.05
   3   5  10  164.11   10.24
  -3  -5 -11   50.84    7.02
  -3  -5 -11   60.23    4.99
   3   5  11   54.48    6.94
   3   5  11   56.85    4.57
  -3  -6  14  138.99    8.04
  -3  -6  14  142.37    9.64
   3   6 -14  143.64   10.15
   3   6 -14  137.38    7.87
  -3  -6  13   15.14    5.16
  -3  -6  13   16.50    3.13
   3   6 -13   19.46    3.21
   3   6 -13    6.94    5.84
  -3  -6  12   17.09    3.05
  -3  -6  12    9.31    4.99
   3   6 -12    7.28    5.24
   3   6 -12   10.32    2.71
  -3  -6  11   68.94    4.82
  -3  -6  11   72.24    6.09
   3   6 -11   71.82    6.68
   3   6 -11   71.23    4.74
  -3  -6  10  533.96   27.15
  -3  -6  10  532.35   27.75
   3   6 -10  519.15   26.99
   3   6 -10  540.64   27.49
  -3  -6   9  625.06   32.15
  -3  -6   9  679.80   34.43
   3   6  -9  648.41   33.41
   3   6  -9  710.42   35.95
  -3  -6   8   37.90    4.15
  -3  -6   8   33.67    2.88
   3   6  -8   39.76    3.21
   3   6  -8   36.80    4.48
  -3  -6   7 1114.95   56.00
  -3  -6   7 1036.28   52.45
   3   6  -7 1174.16   58.96
   3   6  -7 1075.19   54.39
  -3  -6   6  341.34   18.02
  -3  -6   6  318.83   16.33
   3   6  -6  324.67   16.58
   3   6  -6  348.70   18.44
  -3  -6   5  827.92   42.04
  -3  -6   5  764.31   38.41
   3   6  -5  824.45   41.96
   3   6  -5  755.25   38.07
  -3  -6   4  191.69   10.49
  -3  -6   4  206.83   10.74
   3   6  -4  204.21   11.17
   3   6  -4  198.63   10.32
  -3  -6   3  895.85   45.17
  -3  -6   3 1047.27   52.62
   3   6  -3 1022.74   51.35
   3   6  -3  931.38   46.95
  -3  -6   2  317.99   16.41
  -3  -6   2  349.71   17.93
  -3  -6   1  113.86    6.51
  -3  -6   1  119.28    6.68
   3   6  -1  112.59    6.43
   3   6  -1  111.07    6.43
  -3  -6   0    7.28    2.11
  -3  -6   0    3.72    2.20
   3   6   0    6.85    2.28
   3   6   0    5.58    2.11
  -3  -6  -1  115.72    6.34
  -3  -6  -1   99.40    5.92
   3   6   1  107.69    6.01
   3   6   1   95.42    5.75
  -3  -6  -2  170.37    8.97
  -3  -6  -2  172.06    9.64
   3   6   2  150.15    8.71
   3   6   2  157.94    8.29
  -3  -6  -3   65.98    5.33
  -3  -6  -3   61.67    3.72
   3   6   3   67.25    5.16
   3   6   3   59.47    3.64
  -3  -6  -4   91.28    5.16
  -3  -6  -4   97.62    6.68
  -3  -6  -5  120.29    7.53
  -3  -6  -5  115.39    6.34
   3   6   5  102.70    5.75
   3   6   5  108.62    7.28
  -3  -6  -6   46.19    5.41
  -3  -6  -6   37.73    2.96
   3   6   6   38.66    4.65
   3   6   6   38.41    3.05
  -3  -6  -7   40.27    5.41
  -3  -6  -7   31.13    2.96
   3   6   7   33.75    3.05
   3   6   7   24.87    5.41
  -3  -6  -8   50.16    4.31
  -3  -6  -8   50.16    6.94
   3   6   8   44.50    3.55
   3   6   8   46.10    5.67
   3   6   9  611.28   31.13
   3   6   9  575.58   30.03
  -3  -6 -10    7.70    6.34
  -3  -6 -10   11.17    3.30
   3   6  10   14.72    6.51
   3   6  10    5.58    3.55
   3   7 -13    4.65    5.84
   3   7 -13   17.00    3.64
  -3  -7  12  134.59    7.78
  -3  -7  12  112.34    9.05
   3   7 -12  117.16    7.87
   3   7 -12  120.80    7.19
  -3  -7  11  211.74   11.25
  -3  -7  11  196.85   12.27
   3   7 -11  218.08   11.67
   3   7 -11  210.22   12.27
  -3  -7  10  194.65   10.41
  -3  -7  10  168.00   10.41
   3   7 -10  170.96   10.66
   3   7 -10  192.79   10.41
  -3  -7   9   19.96    4.99
  -3  -7   9   21.40    2.79
   3   7  -9   11.67    4.31
   3   7  -9   19.79    2.96
  -3  -7   8  107.69    7.28
  -3  -7   8  103.71    5.92
   3   7  -8  104.22    6.01
   3   7  -8  112.26    7.44
  -3  -7   7    3.47    1.95
  -3  -7   7    9.31    4.06
   3   7  -7   10.32    4.40
   3   7  -7    4.15    2.11
  -3  -7   6  307.08   15.73
  -3  -7   6  317.14   17.00
   3   7  -6  334.91   17.93
   3   7  -6  323.06   16.50
  -3  -7   5  225.44   11.67
  -3  -7   5  251.84   13.70
   3   7  -5  236.86   12.27
   3   7  -5  265.79   14.38
  -3  -7   4  359.27   18.78
  -3  -7   4  359.10   18.27
   3   7  -4  357.49   18.19
   3   7  -4  363.92   19.03
  -3  -7   3  988.90   49.74
  -3  -7   3  857.78   43.31
   3   7  -3  840.02   42.47
  -3  -7   2  352.16   18.19
  -3  -7   2  394.80   20.22
   3   7  -2  355.38   18.36
   3   7  -2  421.02   21.57
  -3  -7   1   68.44    4.48
  -3  -7   1   54.48    3.98
   3   7  -1   57.19    4.15
   3   7  -1   59.38    4.31
  -3  -7   0  193.47   10.41
  -3  -7   0  169.44    9.22
   3   7   0  165.55    8.97
   3   7   0  193.13   10.32
  -3  -7  -1  181.54    9.73
  -3  -7  -1  171.13    9.39
   3   7   1  186.02    9.90
   3   7   1  164.37    9.14
  -3  -7  -2 1024.43   51.52
  -3  -7  -2 1044.73   52.79
   3   7   2  967.75   48.98
   3   7   2  978.75   49.23
  -3  -7  -3  205.06   10.74
  -3  -7  -3  219.35   12.18
   3   7   3  176.72    9.31
   3   7   3  211.15   11.84
  -3  -7  -4    0.76    1.95
  -3  -7  -4    0.17    3.98
   3   7   4   -1.27    4.23
   3   7   4    0.68    2.03
  -3  -7  -5   16.75    4.74
  -3  -7  -5   10.91    2.20
   3   7   5    9.22    4.06
   3   7   5    7.19    2.20
  -3  -7  -6  316.04   16.24
  -3  -7  -6  305.72   16.66
   3   7   6  278.65   15.48
   3   7   6  293.37   15.14
  -3  -7  -7    7.36    6.01
  -3  -7  -7   17.68    2.88
   3   7   7    9.14    4.65
   3   7   7   11.42    2.62
  -3  -7  -8    1.78    6.60
  -3  -7  -8    1.35    2.79
   3   7   8    2.62    2.79
   3   7   8    3.30    5.84
  -3  -7  -9   23.77    7.36
  -3  -7  -9   28.00    3.30
   3   7   9   25.72    3.47
   3   7   9   22.16    6.34
  -3  -8  12    7.87    7.19
  -3  -8  12   16.58    3.47
   3   8 -12   17.68    6.51
   3   8 -12   18.02    3.55
   3   8 -11  273.92   14.30
   3   8 -11  276.62   15.57
  -3  -8  10  427.71   21.74
  -3  -8  10  420.26   22.50
   3   8 -10  423.48   22.59
   3   8 -10  447.92   22.84
  -3  -8   9  400.30   21.40
  -3  -8   9  404.95   20.64
   3   8  -9  430.08   21.91
   3   8  -9  415.36   22.16
  -3  -8   8   77.32    4.74
  -3  -8   8   77.91    6.68
   3   8  -8   86.54    5.24
   3   8  -8   79.26    6.43
  -3  -8   7    7.11    2.20
  -3  -8   7    9.64    5.08
   3   8  -7    7.36    2.28
   3   8  -7    3.38    4.74
  -3  -8   6   66.83    5.92
  -3  -8   6   69.71    4.31
   3   8  -6   67.25    6.18
   3   8  -6   66.24    4.15
  -3  -8   5  595.96   30.62
  -3  -8   5  600.02   30.28
   3   8  -5  625.06   31.55
   3   8  -5  639.02   32.82
  -3  -8   4  115.56    6.51
  -3  -8   4  121.56    7.53
   3   8  -4  110.23    7.02
   3   8  -4  108.62    6.18
  -3  -8   2   47.80    4.06
  -3  -8   2   45.17    3.98
   3   8  -2   56.85    4.23
   3   8  -2   48.05    3.98
  -3  -8   1   14.72    2.88
  -3  -8   1   18.10    3.13
   3   8  -1   19.71    3.13
   3   8  -1   14.63    3.05
  -3  -8   0   55.32    4.31
  -3  -8   0   58.29    4.57
   3   8   0   61.50    4.48
   3   8   0   54.14    4.23
  -3  -8  -2  152.10    8.97
  -3  -8  -2  162.93    8.97
   3   8   2  145.59    8.12
   3   8   2  149.90    9.14
  -3  -8  -3 1254.53   63.36
  -3  -8  -3 1186.01   59.55
   3   8   3 1149.63   57.78
   3   8   3 1122.56   56.93
  -3  -8  -4   88.74    7.19
  -3  -8  -4   72.33    4.74
   3   8   4   71.48    4.57
   3   8   4   80.96    6.34
   3   8   5   57.61    6.43
   3   8   5   57.35    4.06
  -3  -8  -6   24.70    3.13
  -3  -8  -6   23.94    5.92
   3   8   6   11.42    4.91
   3   8   6   20.89    2.96
  -3  -8  -7  751.02   37.90
  -3  -8  -7  774.37   39.84
   3   8   7  672.10   34.60
   3   8   7  675.31   34.09
  -3  -9  10   37.81    3.38
  -3  -9  10   42.64    6.43
   3   9 -10   40.35    3.81
   3   9 -10   36.12    7.19
  -3  -9   9  293.54   16.41
  -3  -9   9  296.16   15.31
   3   9  -9  328.65   17.00
   3   9  -9  317.14   17.68
  -3  -9   8   28.00    3.13
   3   9  -8   38.41    3.38
   3   9  -8   34.43    5.84
  -3  -9   7   28.00    3.05
  -3  -9   7   33.33    6.34
   3   9  -7   32.99    3.30
   3   9  -7   32.23    5.58
  -3  -9   6   26.22    5.75
  -3  -9   6   10.57    2.45
   3   9  -6   15.65    2.79
   3   9  -6   21.32    5.67
  -3  -9   5  139.16    7.70
  -3  -9   5  154.38   10.07
   3   9  -5  136.53    7.61
   3   9  -5  143.64    9.31
  -3  -9   4  490.05   24.96
  -3  -9   4  443.02   23.09
   3   9  -4  547.83   28.00
   3   9  -4  457.40   23.86
   3   9  -3  113.53    7.02
   3   9  -3   94.75    6.43
  -3  -9   2    6.77    3.13
  -3  -9   2   -0.08    3.38
   3   9  -2    1.02    3.13
   3   9  -2    2.37    3.13
  -3  -9   1  149.56    8.37
  -3  -9   1  137.72    8.04
   3   9  -1  144.40    8.21
   3   9  -1  153.37    8.80
  -3  -9   0  421.87   21.74
  -3  -9   0  460.02   23.69
   3   9   0  448.52   23.09
   3   9   0  418.74   21.57
  -3  -9  -1  255.22   13.87
   3   9   1  192.20   10.83
   3   9   1  225.70   12.18
  -3  -9  -2   63.95    5.75
  -3  -9  -2   79.35    5.75
  -3  -9  -3   88.06    7.19
  -3  -9  -3   87.13    5.75
   3   9   3   69.45    6.09
   3   9   3   77.74    5.50
  -3  -9  -4  239.49   13.45
  -3  -9  -4  243.21   12.94
   3   9   4  231.70   12.35
   3   9   4  233.99   13.54
  -3  -9  -5   42.21    6.09
  -3  -9  -5   47.88    4.31
   3   9   5   50.59    6.60
   3   9   5   43.31    3.81
  -3 -10   7    5.41    2.96
  -3 -10   7    5.41    6.85
   3  10  -7    1.35    2.88
   3  10  -7   -0.68    6.18
  -3 -10   6   12.60    6.85
  -3 -10   6    3.98    3.30
   3  10  -6   -1.27    6.01
   3  10  -6    1.44    2.71
  -3 -10   5  277.81   15.90
  -3 -10   5  304.12   15.82
   3  10  -5  304.45   16.92
   3  10  -5  324.16   17.00
  -3 -10   4   17.85    5.92
  -3 -10   4   26.73    4.06
   3  10  -4   26.56    3.81
   3  10  -4   17.68    5.24
  -3 -10   3  195.24   10.74
  -3 -10   3  199.56   11.76
   3  10  -3  193.47   10.74
   3  10  -3  175.79   10.32
  -3 -10   2   81.89    6.26
  -3 -10   2   71.90    5.24
   3  10  -2   80.45    5.75
   3  10  -2   72.07    5.67
  -3 -10   1   31.47    4.06
  -3 -10   1   21.40    4.06
   3  10  -1   23.26    3.89
   3  10  -1   28.09    4.40
  -3 -10   0   86.88    6.34
  -3 -10   0   86.12    6.18
   3  10   0   80.87    5.92
   3  10   0   77.91    5.75
  -3 -10  -1  492.08   25.55
  -3 -10  -1  506.89   26.05
   3  10   1  489.97   25.29
   3  10   1  477.96   24.79
  -3 -10  -2  220.96   12.69
  -3 -10  -2  230.86   12.77
   3  10   2  237.62   13.11
   3  10   2  226.20   13.11
  -4  12   3   94.41    7.28
   4 -12  -3  124.27    7.87
   4 -12  -3  113.78    7.95
  -4  12   2   73.51    5.67
  -4  12   2   70.97    5.67
   4 -12  -2   75.63    5.24
   4 -12  -2   67.25    5.84
  -4  12   1  210.39   11.50
  -4  12   1  206.32   11.67
   4 -12  -1  209.45   11.42
   4 -12  -1  218.34   12.10
  -4  12   0   28.76    3.89
  -4  12   0   18.10    4.74
   4 -12   0   16.75    4.82
   4 -12   0   14.97    3.72
  -4  12  -1  182.30   10.24
  -4  12  -1  187.21   11.08
   4 -12   1  188.90   10.41
   4 -12   1  181.03   11.17
  -4  12  -2  115.56    7.11
  -4  12  -2  105.15    8.37
   4 -12   2  122.32    8.97
   4 -12   2  121.05    7.36
   4 -12   3  217.41   13.37
  -4  11   7    7.19    3.47
  -4  11   7   12.69    4.91
   4 -11  -7   11.67    5.92
   4 -11  -7   15.14    3.81
  -4  11   6    4.82    3.47
  -4  11   6    3.05    4.48
   4 -11  -6   -1.27    5.50
   4 -11  -6    2.79    3.21
  -4  11   5   98.38    6.26
  -4  11   5   99.82    7.36
   4 -11  -5   99.23    6.34
   4 -11  -5   91.95    7.19
  -4  11   4   40.86    4.91
  -4  11   4   45.00    4.40
   4 -11  -4   47.71    4.48
   4 -11  -4   55.92    5.24
  -4  11   3   -2.37    3.64
  -4  11   3   -1.10    3.47
   4 -11  -3   -1.86    3.47
   4 -11  -3    4.65    3.38
  -4  11   2  174.69    9.81
  -4  11   2  146.09    8.29
   4 -11  -2  155.65    8.63
   4 -11  -2  174.35    9.73
  -4  11   1  131.97    7.61
  -4  11   1  136.45    7.95
   4 -11  -1  141.19    8.04
   4 -11  -1  136.87    8.12
  -4  11   0   75.37    5.50
  -4  11   0   82.82    5.33
   4 -11   0   68.77    5.41
   4 -11   0   87.22    5.58
  -4  11  -1  151.00    9.05
  -4  11  -1  179.68    9.81
   4 -11   1  161.83    8.97
   4 -11   1  152.18    9.05
  -4  11  -2  175.19   10.49
  -4  11  -2  203.79   11.08
   4 -11   2  174.86   10.32
   4 -11   2  181.96    9.73
  -4  11  -3   56.51    6.26
  -4  11  -3   52.45    3.72
   4 -11   3   60.57    4.40
   4 -11   3   55.24    6.60
  -4  11  -4  698.83   36.04
  -4  11  -4  644.61   32.57
   4 -11   4  648.24   32.74
   4 -11   4  634.79   33.08
  -4  11  -5   18.02    2.96
  -4  11  -5   27.32    6.18
   4 -11   5   10.83    2.62
   4 -11   5   10.74    6.26
   4 -11   6    5.33    5.24
   4 -11   6   13.96    2.79
  -4  10   9  244.56   12.77
  -4  10   9  242.70   13.87
   4 -10  -9  261.99   13.70
   4 -10  -9  259.87   14.72
  -4  10   8  381.94   20.22
  -4  10   8  394.88   20.13
   4 -10  -8  414.09   21.99
   4 -10  -8  422.55   21.57
  -4  10   7   94.91    5.67
  -4  10   7  103.46    7.53
   4 -10  -7  119.45    8.21
   4 -10  -7  110.40    6.43
  -4  10   6   13.62    4.74
  -4  10   6   14.97    2.88
   4 -10  -6   12.77    2.79
   4 -10  -6   21.32    4.82
  -4  10   5   64.80    4.48
  -4  10   5   74.10    6.01
  -4  10   4  331.61   17.51
  -4  10   4  368.58   18.95
   4 -10  -4  329.15   17.34
   4 -10  -4  381.52   19.71
  -4  10   3 1388.19   69.79
  -4  10   3 1636.05   82.06
   4 -10  -3 1614.05   81.04
   4 -10  -3 1375.50   69.11
  -4  10   2  157.68    8.80
  -4  10   2  172.23    9.39
   4 -10  -2  156.33    8.88
   4 -10  -2  163.35    8.97
  -4  10   1  129.26    7.44
  -4  10   1  145.25    8.21
   4 -10  -1  124.61    7.28
   4 -10  -1  122.83    7.28
  -4  10   0    4.23    2.96
  -4  10   0    4.06    3.05
   4 -10   0    5.92    3.05
   4 -10   0    3.55    2.45
   4 -10   1  127.57    7.36
   4 -10   1  107.69    6.77
  -4  10  -2  103.04    5.84
  -4  10  -2  109.21    7.02
   4 -10   2  111.24    6.51
   4 -10   2  103.29    7.19
  -4  10  -3    8.63    2.28
  -4  10  -3   15.14    4.65
   4 -10   3   11.17    2.45
   4 -10   3    3.13    4.74
  -4  10  -4   11.93    2.54
  -4  10  -4   21.40    4.65
   4 -10   4   16.24    2.45
   4 -10   4   12.27    5.50
  -4  10  -5  351.66   18.95
  -4  10  -5  347.93   17.76
   4 -10   5  329.15   16.83
   4 -10   5  354.87   19.12
  -4  10  -6    7.53    4.15
  -4  10  -6    8.29    2.54
   4 -10   6   11.25    5.50
   4 -10   6   12.18    2.54
  -4  10  -7  106.93    8.37
  -4  10  -7  111.33    6.34
   4 -10   7  103.71    5.92
   4 -10   7  118.77    8.37
   4 -10   8  128.33    9.81
   4 -10   8  125.96    7.19
  -4  10  -9  127.23    7.44
  -4  10  -9  113.78   10.15
   4 -10   9  115.39   11.00
  -4   9  11    2.28    2.88
  -4   9  11    2.11    6.09
   4  -9 -11    3.89    3.05
   4  -9 -11    1.61    6.60
  -4   9  10  164.54   10.32
  -4   9  10  163.77    8.88
   4  -9 -10  186.61   10.07
   4  -9 -10  180.19   11.50
  -4   9   9    2.45    4.91
  -4   9   9    5.92    2.37
   4  -9  -9    6.43    2.45
   4  -9  -9    6.09    5.08
  -4   9   8  294.39   16.07
  -4   9   8  301.32   15.57
   4  -9  -8  317.31   16.33
   4  -9  -8  329.58   17.60
  -4   9   7   66.24    6.01
  -4   9   7   73.85    4.48
   4  -9  -7   73.17    4.57
   4  -9  -7   78.84    6.68
  -4   9   6  329.58   16.83
  -4   9   6  375.51   19.88
   4  -9  -6  364.60   19.12
   4  -9  -6  339.73   17.43
  -4   9   5  127.57    7.02
  -4   9   5  135.52    8.37
   4  -9  -5  132.30    7.36
   4  -9  -5  135.35    8.12
  -4   9   4  160.14    9.14
  -4   9   4  183.15    9.73
   4  -9  -4  177.31    9.81
   4  -9  -4  182.47    9.81
   4  -9  -3  226.80   12.01
   4  -9  -3  260.89   13.79
  -4   9   2 1005.82   50.67
  -4   9   2  857.78   43.31
  -4   9   1  182.05    9.81
  -4   9   1  209.79   11.17
   4  -9  -1  192.11   10.41
   4  -9  -1  207.51   11.00
  -4   9   0   41.11    3.55
  -4   9   0   48.30    3.89
   4  -9   0   47.54    3.47
   4  -9   0   39.93    3.64
  -4   9  -2 1024.43   51.77
  -4   9  -2 1024.43   51.43
   4  -9   2  977.06   49.49
   4  -9   2 1033.74   51.94
  -4   9  -3  602.90   30.45
  -4   9  -3  616.18   31.55
   4  -9   3  601.04   30.88
   4  -9   3  563.99   28.51
  -4   9  -4  184.75    9.73
  -4   9  -4  200.74   11.42
   4  -9   4  193.13   11.25
   4  -9   4  179.34    9.47
  -4   9  -5   88.15    6.43
  -4   9  -5   92.63    5.33
   4  -9   5   93.48    5.41
   4  -9   5   91.19    6.68
  -4   9  -6  142.20    8.88
  -4   9  -6  153.37    8.37
   4  -9   6  132.98    8.46
   4  -9   6  140.85    7.70
  -4   9  -7  106.59    6.18
  -4   9  -7  100.67    7.53
   4  -9   7  103.46    8.04
   4  -9   7   91.87    5.58
  -4   9  -8   19.03    3.13
  -4   9  -8   13.79    5.84
   4  -9   8   17.09    3.05
   4  -9   8   13.37    5.16
  -4   9  -9   50.50    4.31
  -4   9  -9   49.49    7.11
   4  -9   9   50.42    6.68
   4  -9   9   46.10    4.06
  -4   9 -10   49.57    7.36
  -4   9 -10   54.73    4.74
   4  -9  10   48.39    7.78
   4  -9  10   51.26    4.74
  -4   8  12  222.65   13.11
  -4   8  12  218.42   11.76
   4  -8 -12  267.91   14.21
   4  -8 -12  234.75   13.87
  -4   8  11  365.53   19.79
  -4   8  11  391.92   20.13
   4  -8 -11  408.84   21.74
   4  -8 -11  388.54   19.88
  -4   8  10   98.81    7.36
  -4   8  10   93.81    5.58
   4  -8 -10   99.31    5.84
   4  -8 -10   78.84    6.43
  -4   8   9  444.96   22.59
  -4   8   9  452.83   23.69
   4  -8  -9  479.48   24.36
   4  -8  -9  453.42   23.86
  -4   8   8  780.46   39.25
  -4   8   8  762.02   38.91
   4  -8  -8  835.28   42.04
   4  -8  -8  802.80   40.94
  -4   8   7    2.71    3.38
  -4   8   7    3.55    1.86
   4  -8  -7    3.30    4.23
   4  -8  -7    6.26    1.95
  -4   8   6    4.06    1.78
  -4   8   6    4.91    3.55
   4  -8  -6    7.28    2.03
   4  -8  -6    1.61    3.89
  -4   8   5   97.71    6.43
  -4   8   5  101.43    5.58
   4  -8  -5  105.49    6.85
   4  -8  -5  105.23    6.01
  -4   8   4   34.51    3.64
  -4   8   4   41.87    3.05
   4  -8  -4   50.67    3.98
   4  -8  -4   42.04    3.05
   4  -8  -3   93.31    5.67
   4  -8  -3  107.27    6.18
  -4   8   2   64.04    4.23
  -4   8   2   75.63    4.74
   4  -8  -2   63.87    4.40
   4  -8  -2   72.58    4.74
  -4   8   1  198.88   10.57
  -4   8   1  190.84   10.24
   4  -8  -1  194.31   10.41
   4  -8  -1  188.48   10.15
  -4   8   0   71.14    4.57
  -4   8   0   85.36    5.16
   4  -8   0   79.94    4.82
   4  -8   0   74.87    4.82
  -4   8  -1   96.35    5.84
  -4   8  -1  104.47    5.84
   4  -8   1  103.97    5.75
   4  -8   1  101.01    6.18
  -4   8  -2  484.47   24.53
  -4   8  -2  496.31   25.46
   4  -8   2  473.39   23.94
   4  -8   2  466.70   24.19
  -4   8  -3  484.22   24.53
  -4   8  -3  545.38   28.09
   4  -8   3  515.01   26.56
   4  -8   3  459.85   23.26
  -4   8  -4  109.21    7.19
  -4   8  -4   98.13    5.58
   4  -8   4  107.18    7.19
   4  -8   4   94.49    5.33
  -4   8  -5   56.68    5.08
  -4   8  -5   67.93    4.23
   4  -8   5   62.35    5.08
   4  -8   5   60.91    3.98
  -4   8  -6   23.86    4.31
  -4   8  -6   25.80    2.79
   4  -8   6   24.79    2.88
   4  -8   6   24.87    3.98
  -4   8  -7  517.80   26.90
  -4   8  -7  577.95   29.35
   4  -8   7  504.26   26.22
   4  -8   7  549.10   27.92
  -4   8  -8 1026.12   51.69
  -4   8  -8  948.30   48.22
   4  -8   8  925.46   47.37
   4  -8   8 1025.28   51.60
  -4   8  -9  258.69   13.62
  -4   8  -9  249.04   14.47
   4  -8   9  229.76   13.37
   4  -8   9  252.94   13.28
   4  -8  10   40.52    4.23
   4  -8  10   32.48    5.84
  -4   8 -11  110.48    6.77
  -4   8 -11  109.89    9.22
   4  -8  11  117.08    7.36
   4  -8  11   94.41    8.37
  -4   7  13   27.58    5.41
  -4   7  13   38.49    3.89
  -4   7  12  142.29    8.12
  -4   7  12  139.66    9.47
   4  -7 -12  155.91    9.47
   4  -7 -12  153.28    8.71
  -4   7  11   42.80    6.18
  -4   7  11   36.46    3.30
   4  -7 -11   45.26    6.01
   4  -7 -11   30.20    3.64
  -4   7  10 1130.17   57.35
  -4   7  10 1216.46   61.08
   4  -7 -10 1386.49   69.62
   4  -7 -10 1218.15   61.75
  -4   7   9   70.21    4.40
  -4   7   9   72.41    6.01
  -4   7   8 1521.00   76.22
  -4   7   8 1400.88   70.64
   4  -7  -8 1606.44   80.53
   4  -7  -8 1496.47   75.37
  -4   7   7  584.63   29.52
  -4   7   7  563.99   29.02
   4  -7  -7  616.86   31.64
   4  -7  -7  615.84   31.05
  -4   7   6  336.01   17.76
  -4   7   6  304.45   15.57
   4  -7  -6  334.74   17.09
   4  -7  -6  332.54   17.60
  -4   7   5    6.01    3.05
  -4   7   5    3.64    1.52
   4  -7  -5    0.93    3.21
   4  -7  -5    3.89    1.69
  -4   7   4  433.37   22.25
  -4   7   4  440.40   22.33
   4  -7  -4  457.31   23.43
   4  -7  -4  466.96   23.69
  -4   7   3  933.07   47.03
  -4   7   3 1082.80   54.31
   4  -7  -3 1083.65   54.48
   4  -7  -3  986.36   49.74
  -4   7   2    9.81    2.03
  -4   7   2    7.70    2.11
   4  -7  -2    9.81    2.37
   4  -7  -2    8.04    2.20
  -4   7   1   22.59    2.54
  -4   7   0   19.96    2.45
  -4   7  -1   28.25    2.88
  -4   7  -1   30.62    2.45
   4  -7   1   30.03    2.37
   4  -7   1   29.10    3.05
  -4   7  -2   47.80    4.06
  -4   7  -2   45.09    3.05
   4  -7   2   43.23    3.89
   4  -7   2   42.04    2.79
  -4   7  -3  216.56   11.25
  -4   7  -3  250.23   13.54
   4  -7   3  203.36   10.57
   4  -7   3  234.58   12.77
  -4   7  -4  255.64   13.20
  -4   7  -4  249.30   13.45
   4  -7   4  259.11   14.13
   4  -7   4  248.03   12.86
  -4   7  -5  538.10   27.75
  -4   7  -5  596.56   30.20
   4  -7   5  583.78   29.61
   4  -7   5  531.33   27.41
  -4   7  -6   84.93    5.24
  -4   7  -6   83.58    5.92
   4  -7   6   82.39    6.18
   4  -7   6   89.92    5.41
  -4   7  -7    4.23    4.06
  -4   7  -7    8.80    2.71
   4  -7   7    9.14    2.79
   4  -7   7    3.98    4.15
  -4   7  -8  709.40   36.46
  -4   7  -8  685.55   34.68
   4  -7   8  686.48   34.77
   4  -7   8  729.03   37.39
  -4   7  -9  581.92   30.12
  -4   7  -9  557.64   28.42
   4  -7   9  547.91   27.92
   4  -7   9  574.90   29.86
  -4   7 -10  231.87   12.35
  -4   7 -10  243.63   14.13
   4  -7  10  240.84   13.96
   4  -7  10  205.31   11.00
  -4   7 -11   41.03    6.60
  -4   7 -11   46.53    4.15
  -4   7 -12  512.98   26.22
  -4   7 -12  507.48   26.90
   4  -7  12  512.47   26.99
   4  -7  12  491.66   25.21
  -4   6  14  495.80   26.31
  -4   6  14  487.09   24.96
   4  -6 -14  493.35   25.72
   4  -6 -14  496.48   25.46
  -4   6  13  119.62    8.04
  -4   6  13  118.01    7.11
   4  -6 -13  120.55    8.88
   4  -6 -13  112.51    6.68
  -4   6  12    0.76    2.54
  -4   6  12   -3.47    5.16
   4  -6 -12    1.35    3.98
   4  -6 -12    6.94    3.05
  -4   6  11  229.16   12.10
  -4   6  11  256.74   14.47
   4  -6 -11  251.84   14.13
   4  -6 -11  253.44   13.28
  -4   6  10  982.98   49.99
  -4   6  10 1007.51   50.67
   4  -6 -10 1050.66   52.87
   4  -6 -10 1015.97   51.69
  -4   6   9  117.67    6.60
  -4   6   9  121.39    7.87
   4  -6  -9  123.68    7.02
   4  -6  -9  119.28    7.95
  -4   6   8  111.49    7.19
  -4   6   8  118.43    6.60
   4  -6  -8  112.43    7.19
   4  -6  -8  134.08    7.44
  -4   6   7   84.93    5.92
  -4   6   7   83.33    4.74
   4  -6  -7   84.68    5.67
   4  -6  -7  102.87    5.92
  -4   6   6   41.70    2.79
  -4   6   6   41.79    3.72
   4  -6  -6   41.37    2.79
   4  -6  -6   52.11    4.74
  -4   6   5    1.18    1.44
  -4   6   5    3.13    2.54
   4  -6  -5    2.37    2.79
   4  -6  -5    1.44    1.52
  -4   6   4  550.79   28.00
  -4   6   4  531.42   26.82
   4  -6  -4  558.40   28.34
   4  -6  -4  555.44   28.00
  -4   6   3 2395.70  119.87
  -4   6   3 2114.00  105.83
   4  -6  -3 2522.59  126.13
   4  -6  -3 2262.89  113.27
  -4   6   2 3436.20  171.81
  -4   6   2 3097.83  154.89
   4  -6  -2 3152.81  157.68
   4  -6  -2 3171.43  158.61
  -4   6   1  322.89   16.50
  -4   6   1  289.65   14.89
   4  -6  -1  294.64   15.06
   4  -6  -1  275.44   14.21
  -4   6   0   24.53    2.37
  -4   6   0   24.45    1.78
   4  -6   0   23.77    1.86
   4  -6   0   17.60    2.11
  -4   6  -1  331.19   17.09
  -4   6  -1  361.05   18.27
   4  -6   1  341.42   17.26
   4  -6   1  309.19   15.90
  -4   6  -2 1579.37   79.43
  -4   6  -2 1542.15   77.15
   4  -6   2 1429.64   71.90
   4  -6   2 1469.40   73.60
  -4   6  -3  300.82   16.07
  -4   6  -3  280.09   14.30
   4  -6   3  262.92   13.45
  -4   6  -4  372.64   19.37
   4  -6   4  367.14   19.12
  -4   6  -5  718.54   36.63
  -4   6  -5  758.55   38.24
   4  -6   5  697.56   35.61
   4  -6   5  746.20   37.73
  -4   6  -6  875.55   44.50
  -4   6  -6  837.23   42.21
   4  -6   6  816.50   41.20
   4  -6   6  829.27   42.30
  -4   6  -7   80.96    5.92
  -4   6  -7   83.83    5.08
   4  -6   7   82.48    6.26
   4  -6   7   86.62    5.24
  -4   6  -8  161.83    8.80
  -4   6  -8  179.68   10.57
   4  -6   8  158.53    8.71
   4  -6   8  170.20    9.98
  -4   6  -9  115.64    7.70
  -4   6  -9  121.90    6.94
   4  -6   9  122.66    8.37
   4  -6   9  111.33    6.60
  -4   6 -10  181.45   10.57
  -4   6 -10  163.69    9.05
   4  -6  10  154.13    8.71
   4  -6  10  168.34   10.49
  -4   6 -11   27.75    3.64
  -4   6 -11   27.75    6.01
   4  -6  11   24.62    3.64
   4  -6  11   26.05    4.99
  -4   6 -12   -7.19    5.84
  -4   6 -12    1.52    3.21
   4  -6  12    0.42    3.64
   4  -6  12   -1.27    6.09
  -4   6 -13   88.65    6.09
  -4   6 -13  101.68    9.14
   4  -6  13   92.04    6.51
   4  -6  13  103.46    8.29
  -4   5  15  205.99   12.18
  -4   5  15  203.53   11.34
   4  -5 -15  199.30   11.00
   4  -5 -15  201.08   12.60
  -4   5  14  211.74   11.50
  -4   5  14  239.40   13.45
   4  -5 -14  217.32   13.03
   4  -5 -14  234.24   12.52
  -4   5  13  267.15   14.97
  -4   5  13  262.33   13.87
   4  -5 -13  278.99   15.57
   4  -5 -13  259.36   13.70
  -4   5  12   48.05    3.72
  -4   5  12   45.68    5.50
   4  -5 -12   38.24    3.55
   4  -5 -12   43.06    5.67
  -4   5  11  121.65    8.12
  -4   5  11  116.06    6.60
   4  -5 -11  126.04    8.04
   4  -5 -11  111.92    6.51
  -4   5  10  524.57   27.24
  -4   5  10  482.78   24.53
   4  -5 -10  502.66   25.55
   4  -5 -10  534.89   27.75
  -4   5   9 1374.65   69.37
  -4   5   9 1312.90   65.90
   4  -5  -9 1389.03   70.21
   4  -5  -9 1350.12   67.76
  -4   5   8    5.67    2.03
  -4   5   8    4.57    3.05
   4  -5  -8    6.51    3.81
   4  -5  -8    4.65    2.03
  -4   5   7   80.62    5.41
  -4   5   7   88.23    5.16
   4  -5  -7   93.48    5.41
   4  -5  -7   85.02    5.84
  -4   5   6   14.89    1.86
  -4   5   6   17.93    2.71
   4  -5  -6   20.13    2.03
   4  -5  -6   15.48    2.79
  -4   5   5 1608.13   80.53
  -4   5   5 1647.89   82.65
   4  -5  -5 1624.20   81.29
   4  -5  -5 1710.49   85.86
  -4   5   4    2.45    1.86
  -4   5   4    0.85    1.10
   4  -5  -4    0.17    1.10
   4  -5  -4   -0.59    1.78
   4  -5  -3   15.48    1.44
   4  -5  -3   13.45    1.61
  -4   5   2    8.04    1.44
  -4   5   2   10.15    1.44
   4  -5  -2    8.46    1.35
   4  -5  -2   10.74    1.52
  -4   5   1 2713.77  135.77
  -4   5   1 3113.06  155.65
   4  -5  -1 2833.90  141.78
   4  -5  -1 2849.97  142.54
  -4   5   0 1321.36   66.15
  -4   5   0 1271.45   63.78
   4  -5   0 1290.06   64.55
   4  -5   0 1290.06   64.63
  -4   5  -1   27.15    2.54
  -4   5  -1   24.11    1.69
   4  -5   1   24.45    2.37
   4  -5   1   23.18    1.61
  -4   5  -2 1614.05   81.04
  -4   5  -2 1606.44   80.36
   4  -5   2 1631.82   81.89
   4  -5   2 1541.30   77.15
  -4   5  -3 4570.61  228.74
  -4   5  -3 5108.63  255.22
  -4   5  -4  419.50   21.74
  -4   5  -4  448.43   22.76
   4  -5   4  418.74   21.57
   4  -5   4  437.35   22.16
  -4   5  -5  134.50    7.19
  -4   5  -5  148.80    8.71
   4  -5   5  138.23    8.21
   4  -5   5  123.42    6.68
  -4   5  -6  205.90   11.42
  -4   5  -6  187.46    9.98
   4  -5   6  211.57   11.76
   4  -5   6  178.66    9.56
  -4   5  -7 1114.95   56.09
  -4   5  -7 1253.68   63.36
   4  -5   7 1234.23   62.35
   4  -5   7 1145.40   57.69
  -4   5  -8  113.69    7.44
  -4   5  -8   90.52    5.50
   4  -5   8   95.42    5.84
   4  -5   8   92.55    6.77
  -4   5  -9  225.61   12.60
  -4   5  -9  207.34   11.25
   4  -5   9  218.42   12.44
   4  -5   9  215.88   11.67
  -4   5 -10   36.12    4.06
  -4   5 -10   25.63    4.23
   4  -5  10   31.98    3.89
   4  -5  10   25.04    4.91
  -4   5 -11   11.42    5.24
  -4   5 -11   19.63    3.98
   4  -5  11   10.24    4.57
   4  -5  11   12.69    3.64
  -4   5 -12   41.62    4.91
  -4   5 -12   42.64    6.26
   4  -5  12   39.08    6.09
   4  -5  12   40.86    4.82
  -4   5 -13  130.19    8.29
  -4   5 -13  151.42   10.07
   4  -5  13  137.21    9.98
   4  -5  13  138.99    8.54
  -4   4  16   43.99    4.91
  -4   4  16   36.97    6.68
   4  -4 -16   33.58    6.68
   4  -4 -16   31.55    5.08
  -4   4  15   35.70    5.58
  -4   4  15   28.68    4.40
   4  -4 -15   30.28    4.15
   4  -4 -15   23.77    5.92
  -4   4  14   52.70    5.41
  -4   4  14   46.87    4.57
   4  -4 -14   50.93    6.01
   4  -4 -14   43.48    4.48
  -4   4  13   71.74    5.84
  -4   4  13   70.64    4.99
   4  -4 -13   67.84    6.51
   4  -4 -13   62.01    4.91
  -4   4  12  199.64   10.83
  -4   4  12  209.79   12.01
   4  -4 -12  197.02   10.74
   4  -4 -12  198.80   11.76
  -4   4  11   62.18    5.50
  -4   4  11   62.68    4.23
   4  -4 -11   54.39    4.23
   4  -4 -11   55.32    5.08
  -4   4  10  428.55   22.42
  -4   4  10  400.89   20.56
   4  -4 -10  405.80   20.81
   4  -4 -10  445.13   23.43
  -4   4   9    6.34    2.03
  -4   4   9    7.19    3.55
   4  -4  -9    3.13    3.72
   4  -4  -9    6.43    2.11
  -4   4   8 1353.50   68.18
  -4   4   8 1189.39   59.72
   4  -4  -8 1384.80   69.87
   4  -4  -8 1219.84   61.33
  -4   4   7    8.04    1.69
  -4   4   7    8.12    2.62
   4  -4  -7   10.57    2.88
   4  -4  -7    9.39    1.69
  -4   4   6    3.05    1.52
  -4   4   6    2.54    2.11
   4  -4  -6    5.41    1.44
   4  -4  -6    4.31    2.28
  -4   4   5 1004.98   50.59
  -4   4   5 1097.18   54.99
   4  -4  -5 1032.89   51.94
   4  -4  -5 1231.69   61.75
  -4   4   4 2183.37  109.30
  -4   4   4 2052.25  102.61
   4  -4  -4 2235.82  112.00
   4  -4  -4 2221.44  111.07
  -4   4   3   46.44    2.88
  -4   4   3   48.98    2.71
   4  -4  -3   51.86    2.88
   4  -4  -3   52.19    3.13
  -4   4   2 1576.83   78.93
  -4   4   2 1343.35   67.25
   4  -4  -2 1468.55   73.51
   4  -4  -2 1386.49   69.45
  -4   4   1  324.50   16.41
  -4   4   1  369.08   18.61
   4  -4  -1  309.02   15.65
   4  -4  -1  315.03   15.90
   4  -4   0 5644.95  282.12
  -4   4  -1  238.22   12.35
  -4   4  -1  224.34   11.42
   4  -4   1  249.64   12.86
   4  -4   1  216.05   11.00
  -4   4  -2  405.37   20.73
  -4   4  -2  482.27   24.28
   4  -4   2  440.14   22.42
   4  -4   2  477.11   24.02
  -4   4  -3   20.64    1.78
  -4   4  -3   18.19    2.54
   4  -4   3   22.16    1.86
   4  -4   3   18.70    2.28
  -4   4  -4 3090.22  154.81
  -4   4  -4 2636.79  131.88
   4  -4   4 2983.63  149.48
   4  -4   4 2714.62  135.77
  -4   4  -5  472.96   24.45
  -4   4  -5  463.49   23.52
   4  -4   5  460.53   23.69
   4  -4   5  445.05   22.59
  -4   4  -6   32.91    2.96
  -4   4  -6   40.77    4.40
   4  -4   6   33.50    3.98
   4  -4   6   33.25    3.05
  -4   4  -7   31.05    3.81
  -4   4  -7   44.75    3.89
   4  -4   7   40.18    3.98
   4  -4   7   34.68    3.64
  -4   4  -8 2092.01  105.15
  -4   4  -8 2177.45  109.30
   4  -4   8 1985.42   99.82
   4  -4   8 2256.97  113.27
  -4   4  -9  423.73   22.25
  -4   4  -9  474.32   24.45
   4  -4   9  440.65   23.09
   4  -4   9  438.96   22.76
   4  -4  10  123.00    7.70
   4  -4  10  117.84    7.70
  -4   4 -11    9.47    4.65
  -4   4 -11    1.86    4.15
   4  -4  11   -1.69    4.57
   4  -4  11   -0.76    3.98
  -4   4 -12   92.97    7.61
  -4   4 -12   88.65    6.77
   4  -4  12   92.63    6.68
   4  -4  12   83.41    7.28
  -4   4 -13  108.36    7.78
  -4   4 -13  103.71    8.63
   4  -4  13   96.10    7.28
   4  -4  13   99.14    8.12
  -4   3  16   21.15    5.50
  -4   3  16   21.83    4.91
   4  -3 -16   26.14    6.60
   4  -3 -16   32.40    5.33
  -4   3  15  553.16   28.76
  -4   3  15  545.12   28.09
   4  -3 -15  535.99   27.83
   4  -3 -15  547.75   28.25
  -4   3  14   38.49    4.31
  -4   3  14   42.55    4.99
   4  -3 -14   40.69    4.99
   4  -3 -14   29.27    5.50
  -4   3  13    5.58    4.48
  -4   3  13    2.96    3.30
   4  -3 -13    4.31    3.38
   4  -3 -13    1.10    4.40
  -4   3  12    7.02    3.21
  -4   3  12    7.70    4.40
   4  -3 -12    6.51    3.30
   4  -3 -12    6.68    3.55
  -4   3  11  137.30    8.46
  -4   3  11  140.76    8.04
   4  -3 -11  160.22    9.05
   4  -3 -11  134.25    8.29
  -4   3  10  133.07    7.70
  -4   3  10  141.86    8.46
   4  -3 -10  128.92    7.53
   4  -3 -10  125.28    7.70
  -4   3   9  439.97   22.84
  -4   3   9  444.20   22.76
   4  -3  -9  443.44   22.84
   4  -3  -9  419.25   21.91
  -4   3   8    8.12    2.45
  -4   3   8   12.77    2.28
   4  -3  -8   14.89    2.11
   4  -3  -8   16.50    2.71
  -4   3   7 1394.11   69.96
  -4   3   7 1433.02   71.99
   4  -3  -7 1463.47   73.60
   4  -3  -7 1313.74   65.90
  -4   3   6  163.10    8.80
  -4   3   6  152.35    8.04
   4  -3  -6  142.96    7.53
   4  -3  -6  160.31    8.71
  -4   3   5  738.34   37.14
  -4   3   5  742.23   37.39
   4  -3  -5  728.44   36.63
   4  -3  -5  751.79   37.90
  -4   3   4  157.85    8.21
  -4   3   4  173.16    8.88
  -4   3   3 4730.49  236.44
   4  -3  -3 4866.69  243.29
  -4   3   2  165.89    8.46
  -4   3   2  193.64    9.81
   4  -3  -2  156.92    8.04
   4  -3  -2  177.31    8.97
   4  -3  -1  120.72    6.26
   4  -3  -1  132.90    6.77
  -4   3   0    6.94    1.27
  -4   3   0    9.81    0.85
   4  -3   0    7.11    1.27
   4  -3   0    5.41    0.68
  -4   3  -1 6074.69  303.69
   4  -3   1 5760.00  287.87
  -4   3  -2  993.13   49.74
  -4   3  -2  957.60   48.22
   4  -3   2  941.53   47.20
   4  -3   2  977.06   49.06
  -4   3  -3 1466.86   73.51
  -4   3  -3 1522.69   76.47
   4  -3   3 1427.10   71.48
   4  -3   3 1488.01   74.70
  -4   3  -4   84.85    5.33
  -4   3  -4   83.07    4.74
   4  -3   4   79.60    4.65
   4  -3   4   76.64    4.74
  -4   3  -5  368.83   19.12
  -4   3  -5  427.96   21.83
   4  -3   5  383.21   19.79
   4  -3   5  414.26   21.23
  -4   3  -6   79.18    5.41
  -4   3  -6   80.20    4.99
   4  -3   6   80.03    5.33
   4  -3   6   79.26    4.99
  -4   3  -7  173.33    9.81
  -4   3  -8  410.87   21.49
  -4   3  -8  400.38   20.89
   4  -3   8  405.29   21.15
   4  -3   8  390.99   20.56
  -4   3  -9  152.52    9.14
  -4   3  -9  148.55    8.88
   4  -3   9  144.57    8.97
   4  -3   9  140.43    8.37
  -4   3 -10   28.85    4.23
  -4   3 -10   28.34    4.31
   4  -3  10   37.14    4.65
   4  -3  10   24.28    4.57
  -4   3 -11   61.50    6.01
  -4   3 -11   66.83    5.84
   4  -3  11   66.49    5.75
   4  -3  11   59.55    5.92
  -4   3 -12   22.25    5.08
  -4   3 -12   14.55    5.58
   4  -3  12   18.27    5.58
   4  -3  12   15.14    4.65
  -4   3 -13  658.82   33.84
  -4   3 -13  599.26   31.05
   4  -3  13  599.43   31.30
   4  -3  13  634.20   32.74
  -4   3 -14   88.32    7.19
  -4   3 -14   64.88    7.53
   4  -3  14   81.21    7.28
   4  -3  14   73.09    6.94
  -4   2  16  239.49   13.96
  -4   2  16  250.14   13.87
  -4   2  15  482.35   25.12
  -4   2  15  448.43   23.69
   4  -2 -15  471.44   24.62
   4  -2 -15  490.05   25.55
  -4   2  14  397.25   20.73
  -4   2  14  386.09   20.56
   4  -2 -14  383.13   20.47
   4  -2 -14  391.50   20.64
  -4   2  13    8.63    4.15
  -4   2  13    5.16    3.05
   4  -2 -13   12.77    4.57
   4  -2 -13    8.21    3.81
  -4   2  12    3.05    3.21
  -4   2  12    2.45    3.55
   4  -2 -12    4.23    4.06
   4  -2 -12    2.37    3.30
  -4   2  11  258.77   13.79
  -4   2  11  242.87   13.28
   4  -2 -11  258.10   13.79
   4  -2 -11  266.05   14.55
  -4   2  10 2955.71  148.29
  -4   2  10 3069.07  153.71
   4  -2 -10 3070.76  153.79
   4  -2 -10 2927.80  146.94
  -4   2   9  262.92   13.96
  -4   2   9  260.46   13.79
   4  -2  -9  257.42   13.62
   4  -2  -9  235.93   12.69
  -4   2   8  373.31   19.20
  -4   2   8  383.63   19.79
   4  -2  -8  370.94   19.03
   4  -2  -8  372.21   19.20
  -4   2   7  457.99   23.35
  -4   2   7  435.49   22.25
   4  -2  -7  451.90   22.92
   4  -2  -7  445.89   22.76
  -4   2   6 1767.17   88.57
  -4   2   6 1691.03   84.76
   4  -2  -6 1705.41   85.44
   4  -2  -6 1641.12   82.31
  -4   2   5  513.15   25.97
  -4   2   5  489.97   24.70
   4  -2  -5  506.63   25.55
   4  -2  -5  492.93   24.96
   4  -2  -4   50.67    3.05
   4  -2  -4   51.69    2.79
  -4   2   3  137.72    7.11
  -4   2   3  148.04    7.53
  -4   2   2 4887.84  244.81
  -4   2   1  182.30    9.22
  -4   2   1  187.54    9.56
   4  -2  -1  197.19    9.98
   4  -2  -1  184.75    9.31
  -4   2   0  379.07   19.03
  -4   2   0  386.85   19.54
   4  -2   0  378.56   19.03
   4  -2   0  385.58   19.46
  -4   2  -1   34.51    1.95
  -4   2  -1   33.75    2.20
   4  -2   1   33.58    1.95
   4  -2   1   33.50    2.11
  -4   2  -2  512.39   25.89
  -4   2  -2  569.57   28.68
   4  -2   2  555.78   28.00
   4  -2   2  515.85   26.05
  -4   2  -3  726.92   36.71
  -4   2  -3  777.93   39.08
   4  -2   3  750.52   37.73
   4  -2   3  680.30   34.35
  -4   2  -4  261.48   13.70
  -4   2  -4  276.88   14.30
   4  -2   4  238.30   12.52
   4  -2   4  240.84   12.44
  -4   2  -5   85.10    5.41
  -4   2  -5   73.68    4.40
   4  -2   5   81.38    4.82
   4  -2   5   86.88    5.33
  -4   2  -6  939.84   47.37
  -4   2  -6 1027.82   52.03
   4  -2   6  910.23   45.93
   4  -2   6  955.91   48.39
  -4   2  -7   85.44    5.50
  -4   2  -7   90.18    6.34
   4  -2   7   90.35    5.75
   4  -2   7   84.51    6.01
  -4   2  -8  500.54   25.89
  -4   2  -8  447.59   23.18
   4  -2   8  479.99   24.87
   4  -2   8  439.97   22.84
  -4   2  -9 1257.91   63.45
  -4   2  -9 1357.73   68.52
   4  -2   9 1251.14   63.19
   4  -2   9 1358.58   68.61
  -4   2 -10    5.24    3.47
  -4   2 -10    1.52    3.47
   4  -2  10    7.44    4.31
   4  -2  10    2.45    3.38
  -4   2 -11   25.63    4.82
  -4   2 -11   19.12    4.48
   4  -2  11   20.89    3.98
   4  -2  11   24.28    4.99
  -4   2 -12  113.44    8.04
  -4   2 -12  110.23    7.61
   4  -2  12  119.62    8.46
   4  -2  12  106.67    7.02
  -4   2 -13   57.35    6.60
  -4   2 -13   52.28    5.84
   4  -2  13   37.81    5.08
   4  -2  13   42.72    5.33
  -4   2 -14   47.71    6.68
  -4   2 -14   43.90    5.24
   4  -2  14   48.90    5.92
   4  -2  14   33.58    5.33
  -4   1  17  118.26    8.71
  -4   1  17  105.74    8.21
   4  -1 -17   99.74    8.37
   4  -1 -17  104.56    7.78
  -4   1  16   78.93    6.94
  -4   1  16   78.42    6.77
   4  -1 -16   86.79    7.44
   4  -1 -16   76.47    6.51
  -4   1  15  412.06   21.66
  -4   1  15  438.62   23.01
   4  -1 -15  431.51   22.67
   4  -1 -15  445.81   23.60
  -4   1  14   15.23    4.06
  -4   1  14    5.84    4.40
   4  -1 -14   17.51    4.65
   4  -1 -14   12.10    3.89
  -4   1  13   86.03    5.84
  -4   1  13   81.29    6.26
   4  -1 -13   87.64    6.43
   4  -1 -13   75.71    5.84
  -4   1  12  250.14   13.79
  -4   1  12  236.27   12.69
   4  -1 -12  215.04   11.84
   4  -1 -12  240.42   13.28
  -4   1  11   45.93    4.57
  -4   1  11   37.56    3.64
   4  -1 -11   34.18    3.64
   4  -1 -11   38.41    4.06
  -4   1  10  381.35   19.79
   4  -1 -10  385.83   20.05
  -4   1   9 1921.13   96.52
  -4   1   9 2092.85  104.98
   4  -1  -9 1763.78   88.49
   4  -1  -9 1927.90   96.78
  -4   1   8  905.15   45.77
  -4   1   8  973.68   49.06
   4  -1  -8  896.70   45.26
   4  -1  -8  913.61   46.10
  -4   1   7  224.51   11.76
  -4   1   7  217.07   11.42
   4  -1  -7  209.88   11.00
   4  -1  -7  217.58   11.42
  -4   1   6    0.17    1.61
  -4   1   6    0.08    1.52
   4  -1  -6    0.59    1.61
   4  -1  -6    1.44    1.52
  -4   1   5 1864.45   93.31
  -4   1   5 1772.24   88.74
   4  -1  -5 1815.39   90.94
   4  -1  -5 1755.32   87.89
  -4   1   4 4515.62  225.87
   4  -1  -4 4060.51  203.11
  -4   1   3 1691.88   85.02
   4  -1  -3 1662.27   83.41
   4  -1  -3 1711.33   85.86
  -4   1   0  114.96    5.84
  -4   1   0  117.84    6.01
   4  -1   0   99.14    5.08
   4  -1   0  106.42    5.41
   4  -1   1    5.08    0.93
   4  -1   1    3.72    0.85
  -4   1  -2    4.40    1.10
  -4   1  -2    1.52    1.18
   4  -1   2    3.64    1.27
   4  -1   2    2.96    1.27
  -4   1  -3    8.29    1.52
  -4   1  -3    7.87    1.69
   4  -1   3    8.97    1.52
   4  -1   3    8.80    1.69
  -4   1  -4   29.69    2.54
  -4   1  -4   32.40    2.88
   4  -1   4   35.70    2.88
   4  -1   4   31.64    2.71
  -4   1  -5  125.37    7.02
  -4   1  -5  120.97    6.94
   4  -1   5  119.36    6.77
   4  -1   5  113.27    6.51
  -4   1  -6    8.63    2.54
  -4   1  -6    7.36    2.54
   4  -1   6    7.02    2.45
   4  -1   6    4.99    2.54
  -4   1  -7 1218.15   61.42
  -4   1  -7 1178.39   59.55
   4  -1   7 1095.49   55.49
   4  -1   7 1136.94   57.52
  -4   1  -8  128.84    7.78
  -4   1  -8  113.53    7.02
   4  -1   8  111.66    7.02
   4  -1   8  123.00    7.61
  -4   1  -9  297.35   15.90
  -4   1  -9  272.73   14.47
   4  -1   9  288.47   15.40
   4  -1   9  296.25   15.90
  -4   1 -10  150.41    8.97
  -4   1 -10  127.48    7.95
   4  -1  10  138.31    8.71
   4  -1  10  146.18    8.71
   4  -1  11  391.67   20.73
   4  -1  11  376.61   19.96
  -4   1 -12  396.41   20.98
  -4   1 -12  408.33   21.57
   4  -1  12  397.34   20.89
   4  -1  12  403.34   21.32
  -4   1 -13  189.91   11.25
  -4   1 -13  174.69   10.74
   4  -1  13  162.76   10.07
   4  -1  13  161.07   10.07
   4  -1  14  703.14   36.46
  -4   0  17   33.67    5.50
  -4   0  17   27.83    5.24
   4   0 -17   26.90    6.09
   4   0 -17   29.10    4.99
  -4   0  16  213.43   12.18
  -4   0  16  221.89   12.60
   4   0 -16  220.11   12.94
   4   0 -16  224.60   12.94
  -4   0  15  231.87   12.77
  -4   0  15  243.04   13.37
   4   0 -15  259.79   14.63
   4   0 -15  241.09   13.62
  -4   0  14   57.19    5.24
  -4   0  14   55.58    4.99
   4   0 -14   53.72    5.16
   4   0 -14   50.76    5.50
  -4   0  13  115.47    7.53
  -4   0  13  104.98    6.85
   4   0 -13  113.95    7.53
   4   0 -13  102.70    6.77
  -4   0  12  159.46    9.47
  -4   0  12  153.37    8.80
   4   0 -12  172.66    9.98
   4   0 -12  166.14    9.64
  -4   0  11  108.87    7.02
  -4   0  11   96.52    6.34
   4   0 -11   97.54    6.60
   4   0 -11  100.16    6.68
  -4   0  10   -1.10    2.62
  -4   0  10    4.40    3.30
   4   0 -10    4.57    3.30
  -4   0   9   87.98    5.84
  -4   0   9   71.48    4.65
   4   0  -9   93.65    6.01
   4   0  -9   81.13    5.24
  -4   0   8  259.45   13.79
  -4   0   8  230.86   12.10
   4   0  -8  232.55   12.35
   4   0  -8  230.94   12.10
  -4   0   7 1039.66   52.36
  -4   0   7 1016.82   51.09
   4   0  -7 1056.58   53.21
   4   0  -7 1016.82   51.18
  -4   0   6  211.74   10.91
  -4   0   6  225.70   11.76
   4   0  -6  212.50   11.00
   4   0  -6  219.27   11.42
  -4   0   5  840.86   42.30
  -4   0   5  842.89   42.30
   4   0  -5  818.02   41.20
   4   0  -5  792.31   39.84
  -4   0   4  898.39   45.09
  -4   0   4  845.94   42.55
   4   0  -4  861.17   43.23
   4   0  -4  875.55   43.90
  -4   0   3 1097.18   55.07
  -4   0   3  947.45   47.63
   4   0  -3  917.00   46.10
   4   0  -3 1000.75   50.25
   4   0  -2  500.88   25.97
   4   0  -2  523.72   27.15
  -4   0   0  143.30    7.28
  -4   0   0  150.49    7.61
   4   0   0  140.85    7.19
   4   0   0  159.80    8.04
  -4   0  -1 1306.98   65.48
  -4   0  -1 1346.73   67.51
   4   0   1 1246.07   62.43
   4   0   1 1287.52   64.55
  -4   0  -2 2669.78  133.57
  -4   0  -2 2772.14  138.65
   4   0   2 2565.73  128.41
   4   0   2 2822.90  141.19
  -4   0  -3    4.40    1.61
  -4   0  -3    7.53    1.69
   4   0   3    4.57    1.35
   4   0   3    4.65    1.69
  -4   0  -4   25.80    2.45
  -4   0  -4   29.61    2.62
   4   0   4   31.30    2.79
   4   0   4   30.28    2.54
  -4   0  -5  349.54   18.02
  -4   0  -5  333.89   17.26
   4   0   5  333.22   17.26
   4   0   5  338.29   17.43
  -4   0  -6  122.66    7.19
  -4   0  -6  113.27    6.68
   4   0   6  110.40    6.43
   4   0   6  117.25    7.02
  -4   0  -7  402.16   21.06
  -4   0  -7  383.38   19.88
  -4   0  -8  289.14   15.57
  -4   0  -8  277.81   14.80
   4   0   8  282.71   15.40
   4   0   8  288.89   15.31
  -4   0  -9  539.79   28.00
  -4   0  -9  515.35   26.48
   4   0   9  512.22   26.39
   4   0   9  544.45   28.17
  -4   0 -10   92.38    7.11
  -4   0 -10   91.02    6.18
   4   0  10   88.06    6.09
   4   0  10   98.21    6.94
  -4   0 -11   33.25    4.57
  -4   0 -11   33.84    5.58
   4   0  11   37.14    5.16
   4   0  11   33.08    5.33
  -4   0 -12  560.18   29.10
  -4   0 -12  568.81   29.27
   4   0  12  541.32   28.17
   4   0  12  520.25   27.07
  -4   0 -13  178.15   10.91
  -4   0 -13  160.39   10.24
   4   0  13  168.76   10.32
   4   0  13  168.00   10.41
  -4  -1  17  296.08   16.66
   4   1 -17  310.71   17.68
   4   1 -17  331.02   18.36
  -4  -1  16   69.37    7.02
  -4  -1  16   61.42    5.92
   4   1 -16   72.07    6.60
   4   1 -16   61.75    6.77
   4   1 -15  212.58   12.18
   4   1 -15  211.99   12.44
  -4  -1  14  745.78   38.07
  -4  -1  14  800.43   40.86
   4   1 -14  780.46   39.76
   4   1 -14  786.30   40.35
  -4  -1  13    2.03    3.30
  -4  -1  13    3.21    4.40
   4   1 -13    4.65    3.89
   4   1 -13    4.99    3.72
  -4  -1  12  140.93    8.21
  -4  -1  12  155.91    9.47
   4   1 -12  134.93    8.04
   4   1 -12  161.15    9.73
  -4  -1  11  263.09   14.04
  -4  -1  11  268.92   14.47
   4   1 -11  289.23   15.57
   4   1 -11  259.36   13.96
  -4  -1  10 1098.03   55.49
  -4  -1  10 1114.95   56.42
   4   1 -10 1086.19   55.07
   4   1 -10 1077.73   54.48
  -4  -1   9  577.02   29.35
  -4  -1   9  525.75   27.07
   4   1  -9  490.98   25.04
   4   1  -9  511.54   26.31
  -4  -1   8   76.64    5.16
  -4  -1   8   90.77    5.33
   4   1  -8   75.80    4.99
   4   1  -8   87.89    5.33
  -4  -1   7  140.85    7.87
  -4  -1   7  138.73    7.44
   4   1  -7  124.27    7.02
   4   1  -7  129.01    7.02
  -4  -1   6   87.55    4.82
  -4  -1   6   73.94    4.57
   4   1  -6   78.33    4.74
   4   1  -6   91.28    5.08
  -4  -1   5 1606.44   80.53
  -4  -1   5 1607.28   80.45
   4   1  -5 1692.72   84.85
   4   1  -5 1643.66   82.23
  -4  -1   4  583.78   29.44
  -4  -1   4  636.32   31.89
   4   1  -4  595.88   29.95
   4   1  -4  573.63   28.93
  -4  -1   3  565.17   28.51
  -4  -1   3  555.53   27.83
   4   1  -3  543.01   27.32
   4   1  -3  565.43   28.34
  -4  -1   2  274.59   13.96
  -4  -1   2  273.58   13.79
   4   1  -2  253.10   12.86
   4   1  -2  275.52   13.87
  -4  -1   1   18.36    1.27
  -4  -1   1   15.82    1.10
   4   1  -1   17.51    1.18
   4   1  -1   14.97    1.18
  -4  -1   0  744.60   37.31
  -4  -1   0  734.19   36.88
   4   1   0  712.96   35.70
   4   1   0  745.19   37.48
   4   1   1  640.80   32.15
   4   1   1  619.57   31.22
  -4  -1  -2 3656.15  182.89
  -4  -1  -2 3686.60  184.33
   4   1   2 3628.23  181.54
   4   1   2 3415.90  170.80
  -4  -1  -3  765.49   38.49
  -4  -1  -3  809.31   40.77
   4   1   3  794.25   40.10
   4   1   3  759.74   38.15
  -4  -1  -4  362.23   18.44
  -4  -1  -4  394.72   20.22
   4   1   4  377.88   19.37
   4   1   4  379.83   19.37
  -4  -1  -5  132.64    7.61
  -4  -1  -5  130.70    7.19
   4   1   5  122.24    7.11
   4   1   5  113.27    6.34
  -4  -1  -6 1681.73   84.59
  -4  -1  -6 1859.37   93.39
   4   1   6 1541.30   77.57
   4   1   6 1789.16   89.84
  -4  -1  -7  326.87   17.51
  -4  -1  -7  394.72   20.47
   4   1   7  369.17   19.20
   4   1   7  348.19   18.70
  -4  -1  -8 2361.86  118.43
  -4  -1  -8 2243.43  112.76
   4   1   8 2221.44  111.66
   4   1   8 2319.56  116.40
  -4  -1  -9   10.24    4.23
  -4  -1  -9    7.02    3.21
   4   1   9    3.05    4.57
   4   1   9    6.94    3.30
  -4  -1 -10  203.11   11.42
  -4  -1 -10  207.85   12.27
   4   1  10  208.95   12.01
   4   1  10  178.83   10.74
  -4  -1 -11  335.08   18.10
  -4  -1 -11  335.92   17.85
   4   1  11  301.15   16.58
   4   1  11  320.61   17.26
  -4  -1 -12  120.38    8.71
  -4  -1 -12  113.36    7.87
   4   1  12   89.92    7.53
   4   1  12   92.29    6.60
  -4  -1 -13    2.45    6.18
  -4  -1 -13   -5.58    5.08
   4   1  13   -1.78    4.57
   4   1  13    1.18    5.08
  -4  -2  16    8.54    4.82
  -4  -2  16   -2.37    6.18
   4   2 -16   19.96    6.01
   4   2 -16   14.13    5.41
  -4  -2  15   25.89    4.91
  -4  -2  15   42.55    5.75
   4   2 -15   26.90    6.34
   4   2 -15   27.49    5.08
  -4  -2  14  157.18   10.15
  -4  -2  14  163.94    9.73
   4   2 -14  146.09    9.22
   4   2 -14  168.43   10.41
  -4  -2  13  198.71   11.17
  -4  -2  13  190.08   11.25
   4   2 -13  191.35   11.00
   4   2 -13  173.42   10.49
  -4  -2  12    6.34    3.55
  -4  -2  12    2.03    3.98
   4   2 -12    9.31    4.06
   4   2 -12    9.98    3.64
  -4  -2  11   63.28    4.99
  -4  -2  11   49.83    4.99
   4   2 -11   63.61    5.16
   4   2 -11   54.39    4.91
  -4  -2  10 1532.00   77.15
  -4  -2  10 1427.95   71.99
   4   2 -10 1447.40   72.92
   4   2 -10 1438.10   72.67
  -4  -2   9 1799.31   90.26
   4   2  -9 1756.17   88.15
  -4  -2   8   32.31    2.71
  -4  -2   8   31.38    3.64
   4   2  -8   33.16    2.88
   4   2  -8   28.00    3.38
  -4  -2   7    2.79    1.52
  -4  -2   7    1.10    2.45
   4   2  -7    0.85    2.54
   4   2  -7    3.13    1.69
  -4  -2   6    5.08    2.37
  -4  -2   6    9.98    1.44
   4   2  -6   11.34    2.37
   4   2  -6    5.16    1.27
  -4  -2   5  929.69   46.61
  -4  -2   5  876.39   44.24
   4   2  -5  877.24   43.99
   4   2  -5  903.46   45.51
  -4  -2   4 2476.06  123.93
  -4  -2   4 2681.63  134.00
   4   2  -4 2673.17  133.66
   4   2  -4 2534.43  126.81
  -4  -2   3   54.22    3.30
  -4  -2   3   45.26    2.45
   4   2  -3   43.99    2.45
   4   2  -3   48.56    3.05
  -4  -2   2  348.10   17.51
  -4  -2   2  312.91   15.90
  -4  -2   1  727.68   36.54
  -4  -2   1  814.47   40.86
  -4  -2   0  112.43    5.84
  -4  -2   0  116.32    6.18
   4   2   0  117.84    6.26
   4   2   0  103.46    5.33
  -4  -2  -1 1200.39   60.06
  -4  -2  -1 1159.78   58.20
   4   2   1 1172.47   58.79
   4   2   1 1098.87   54.99
  -4  -2  -2   73.34    4.40
  -4  -2  -2   85.52    4.65
   4   2   2   66.58    3.72
   4   2   2   68.61    4.23
  -4  -2  -3  437.86   22.42
  -4  -2  -3  447.33   22.67
   4   2   3  433.71   22.16
   4   2   3  415.61   21.06
  -4  -2  -4  358.34   18.53
  -4  -2  -4  319.17   16.33
   4   2   4  298.70   15.23
   4   2   4  318.92   16.66
  -4  -2  -5  272.48   14.55
  -4  -2  -5  247.94   12.86
   4   2   5  255.47   13.20
   4   2   5  253.27   13.54
  -4  -2  -6  256.32   13.37
  -4  -2  -7  531.33   27.58
  -4  -2  -7  507.23   25.89
   4   2   7  462.05   24.19
   4   2   7  468.82   24.02
  -4  -2  -8  267.06   14.89
  -4  -2  -8  266.98   14.04
   4   2   8  293.63   16.07
   4   2   8  262.66   13.87
   4   2   9  519.41   27.15
   4   2   9  556.04   28.51
  -4  -2 -10    8.12    4.99
  -4  -2 -10   16.24    3.47
   4   2  10   14.04    5.16
   4   2  10   24.36    4.23
  -4  -2 -11  104.73    7.61
  -4  -2 -11  101.26    6.68
   4   2  11   96.61    7.70
   4   2  11   89.58    6.26
  -4  -2 -12  500.71   26.22
  -4  -2 -12  495.30   25.46
   4   2  12  453.17   23.52
   4   2  12  489.71   25.72
  -4  -3  16  519.74   26.82
  -4  -3  16  545.63   28.68
   4   3 -16  551.21   29.18
   4   3 -16  534.30   27.66
  -4  -3  15   94.58    6.77
  -4  -3  15   93.73    7.78
   4   3 -15  104.64    7.19
   4   3 -15  109.13    8.71
  -4  -3  14  198.46   11.25
  -4  -3  14  202.52   12.01
  -4  -3  13  129.17    7.95
  -4  -3  13  131.54    8.46
   4   3 -13  148.80    8.88
   4   3 -13  122.32    8.54
  -4  -3  12  258.43   13.87
  -4  -3  12  263.00   14.55
   4   3 -12  267.99   14.38
   4   3 -12  268.33   14.63
  -4  -3  11  386.93   19.96
  -4  -3  11  418.74   21.91
   4   3 -11  437.35   23.01
   4   3 -11  436.17   22.50
  -4  -3  10   13.87    2.96
  -4  -3  10   18.10    4.06
   4   3 -10   14.97    2.96
   4   3 -10   14.63    4.23
  -4  -3   9    0.34    3.30
  -4  -3   9    1.27    2.28
   4   3  -9   -1.95    3.38
   4   3  -9   -1.02    2.20
  -4  -3   8  571.85   28.93
  -4  -3   8  616.44   31.72
   4   3  -8  610.09   31.38
   4   3  -8  542.16   27.49
  -4  -3   7  545.46   28.00
  -4  -3   7  531.84   26.82
   4   3  -7  504.86   25.55
   4   3  -7  530.66   27.15
  -4  -3   6    0.34    2.54
  -4  -3   6    0.08    1.52
   4   3  -6   -0.93    1.44
   4   3  -6   -0.34    2.20
  -4  -3   5  261.82   13.70
  -4  -3   5  282.63   14.30
   4   3  -5  278.57   14.13
   4   3  -5  258.86   13.45
  -4  -3   4 2508.21  125.37
  -4  -3   4 2844.05  142.37
   4   3  -4 2843.20  142.37
   4   3  -4 2597.03  129.85
  -4  -3   3  548.59   27.75
  -4  -3   3  506.63   25.46
   4   3  -3  501.98   25.21
   4   3  -3  520.25   26.31
  -4  -3   2 1139.48   57.10
  -4  -3   2  979.60   49.23
  -4  -3   1  182.72    9.47
  -4  -3   1  160.98    8.29
  -4  -3   0 3150.28  157.51
  -4  -3   0 2974.32  148.72
   4   3   0 2914.26  145.67
   4   3   0 2698.55  135.01
  -4  -3  -1   10.83    1.35
  -4  -3  -1    9.05    2.03
   4   3   1   10.15    1.18
   4   3   1   12.27    2.11
  -4  -3  -2 1429.64   71.82
  -4  -3  -2 1501.54   75.20
   4   3   2 1383.11   69.28
   4   3   2 1346.73   67.68
  -4  -3  -3   42.30    2.96
  -4  -3  -3   41.79    3.64
   4   3   3   30.54    3.13
   4   3   3   32.06    2.37
  -4  -3  -4  104.39    5.92
  -4  -3  -4  100.75    6.34
   4   3   4   91.19    5.92
   4   3   4   96.01    5.50
  -4  -3  -5  307.92   15.90
  -4  -3  -6   51.69    3.64
  -4  -3  -6   43.99    5.16
   4   3   6   52.62    5.41
   4   3   6   45.26    3.38
  -4  -3  -7   25.97    2.79
  -4  -3  -7   26.82    5.08
   4   3   7   26.56    4.65
   4   3   7   20.05    2.71
   4   3   8  169.78    9.31
   4   3   8  163.86   10.32
  -4  -3  -9   16.58    5.16
  -4  -3  -9   19.20    2.96
   4   3   9   23.26    4.57
   4   3   9   22.59    3.30
  -4  -3 -10    4.57    4.82
  -4  -3 -10    3.13    2.79
   4   3  10    0.00    3.38
   4   3  10    4.31    4.82
  -4  -3 -11    0.59    4.82
  -4  -3 -11    2.62    3.21
   4   3  11    4.65    5.58
   4   3  11   -1.44    3.47
  -4  -3 -12   70.55    6.85
  -4  -3 -12   51.26    4.65
   4   3  12   67.93    7.44
   4   3  12   55.16    4.99
  -4  -4  15  358.59   18.70
  -4  -4  15  379.66   20.47
   4   4 -15  382.79   20.98
   4   4 -15  353.60   18.44
  -4  -4  14  145.76    9.81
  -4  -4  14  138.06    8.12
   4   4 -14  136.20    8.12
   4   4 -14  148.55    9.47
  -4  -4  13    2.62    4.91
  -4  -4  13    2.20    3.21
   4   4 -13    3.72    6.01
  -4  -4  12   37.73    3.81
  -4  -4  12   38.57    5.50
   4   4 -12   45.26    3.89
   4   4 -12   44.75    5.08
  -4  -4  11  590.89   30.54
  -4  -4  11  547.49   27.92
   4   4 -11  564.33   28.76
   4   4 -11  596.22   30.79
  -4  -4  10   28.25    4.65
  -4  -4  10   33.25    3.05
   4   4 -10   29.78    2.96
   4   4 -10   31.98    4.65
  -4  -4   9  188.56   10.74
  -4  -4   9  178.83    9.64
   4   4  -9  181.71   10.49
   4   4  -9  175.70    9.47
  -4  -4   8  383.72   19.71
  -4  -4   8  380.59   20.05
   4   4  -8  374.07   19.79
   4   4  -8  374.07   19.29
  -4  -4   7 2029.41  101.60
  -4  -4   7 2031.95  102.19
   4   4  -7 1762.09   88.74
   4   4  -7 1915.21   95.93
  -4  -4   6   46.19    2.96
  -4  -4   6   42.64    3.89
   4   4  -6   47.80    3.13
   4   4  -6   43.74    3.72
  -4  -4   5  468.82   23.60
  -4  -4   5  501.81   25.72
   4   4  -5  475.67   24.02
   4   4  -5  487.18   24.96
  -4  -4   4   21.32    1.61
  -4  -4   4   15.23    2.79
   4   4  -4   13.54    1.44
   4   4  -4   16.16    2.62
  -4  -4   3 1015.97   51.18
  -4  -4   3 1110.72   55.66
   4   4  -3 1026.97   51.60
   4   4  -3 1055.73   52.87
  -4  -4   2   54.99    3.55
  -4  -4   2   62.94    3.64
   4   4  -2   64.21    3.81
   4   4  -2   56.59    3.55
  -4  -4   1    4.48    1.52
  -4  -4   1    8.37    1.86
   4   4  -1    8.80    1.86
   4   4  -1   10.57    1.69
  -4  -4   0  144.99    7.70
  -4  -4   0  155.48    8.21
   4   4   0  128.75    6.94
   4   4   0  152.86    8.04
  -4  -4  -1 2246.81  112.43
  -4  -4  -1 2479.45  124.18
   4   4   1 2105.54  105.49
   4   4   1 2075.93  103.88
  -4  -4  -2 1829.77   91.87
  -4  -4  -2 1627.59   81.55
   4   4   2 1534.53   76.81
   4   4   2 1676.65   84.26
  -4  -4  -3  820.73   41.70
  -4  -4  -3  790.70   39.84
   4   4   3  762.36   38.41
   4   4   3  760.58   38.74
  -4  -4  -4  109.89    6.01
  -4  -4  -4   88.06    6.43
   4   4   4  105.66    5.92
   4   4   4   85.27    6.26
  -4  -4  -5   81.13    4.99
  -4  -4  -5   80.11    6.26
   4   4   5   77.15    4.65
   4   4   5   76.98    6.09
  -4  -4  -6  361.13   18.61
  -4  -4  -6  336.94   18.36
   4   4   6  322.64   16.66
   4   4   6  319.34   17.26
  -4  -4  -7  878.93   44.41
  -4  -4  -7  823.52   42.13
  -4  -4  -8  157.68    9.64
  -4  -4  -8  149.65    8.29
   4   4   8  149.82    9.64
   4   4   8  148.89    8.46
  -4  -4  -9   89.67    7.70
  -4  -4  -9   81.97    5.41
   4   4   9   91.95    6.01
   4   4   9   78.42    6.43
  -4  -4 -10    7.28    3.38
  -4  -4 -10    1.69    4.91
   4   4  10    5.84    5.67
   4   4  10    2.11    3.13
  -4  -4 -11   25.29    6.51
  -4  -4 -11   26.73    3.72
   4   4  11   17.43    5.92
   4   4  11   19.63    3.89
  -4  -5  15   10.49    5.75
  -4  -5  15   10.41    3.47
   4   5 -15   19.29    7.28
   4   5 -15    9.90    3.81
  -4  -5  14  353.77   18.27
  -4  -5  14  364.68   20.05
   4   5 -14  353.94   18.36
   4   5 -14  379.57   20.56
  -4  -5  13   19.63    3.30
  -4  -5  13   13.54    5.08
   4   5 -13   16.07    3.21
   4   5 -13   19.54    5.92
  -4  -5  12   11.00    5.50
  -4  -5  12    6.18    2.88
   4   5 -12   11.59    6.09
   4   5 -12    7.11    3.05
   4   5 -11   56.42    4.40
   4   5 -11   47.46    6.26
  -4  -5  10  990.59   49.91
  -4  -5  10  932.22   47.46
   4   5 -10  942.38   48.05
   4   5 -10  914.46   46.10
  -4  -5   9   10.15    2.79
  -4  -5   9    9.98    4.23
   4   5  -9    7.44    2.71
   4   5  -9    7.87    4.31
  -4  -5   8   51.77    3.72
  -4  -5   8   52.70    4.99
   4   5  -8   61.50    4.23
   4   5  -8   45.43    4.82
  -4  -5   7  270.11   13.96
  -4  -5   7  255.05   13.79
   4   5  -7  276.71   14.30
   4   5  -7  262.16   14.13
  -4  -5   6 2052.25  102.78
  -4  -5   6 2126.69  106.84
   4   5  -6 2185.91  109.46
   4   5  -6 2268.81  113.95
  -4  -5   5  661.78   33.92
  -4  -5   5  571.26   28.85
   4   5  -5  638.09   32.23
   4   5  -5  649.60   33.33
  -4  -5   4  903.46   45.34
  -4  -5   3   68.35    4.06
  -4  -5   3   61.75    4.40
   4   5  -3   57.10    3.47
   4   5  -3   57.27    4.15
  -4  -5   1   65.64    4.06
  -4  -5   1   66.24    4.48
  -4  -5  -1  705.51   35.61
   4   5   1  686.65   34.60
  -4  -5  -2  201.76   10.49
  -4  -5  -2  216.90   12.18
   4   5   2  202.09   11.50
   4   5   2  186.11    9.73
  -4  -5  -3  317.90   16.92
  -4  -5  -3  309.28   15.82
   4   5   3  312.49   16.83
   4   5   3  287.03   14.72
  -4  -5  -4   -1.27    4.23
  -4  -5  -4    3.64    1.95
   4   5   4    0.59    3.55
   4   5   4    3.72    1.78
  -4  -5  -6  186.53   11.42
  -4  -5  -6  185.94    9.81
   4   5   6  169.27   10.49
   4   5   6  171.73    9.39
  -4  -5  -7  304.62   16.92
  -4  -5  -7  347.34   17.93
   4   5   7  263.68   14.63
   4   5   7  286.18   14.97
  -4  -5  -8  498.17   26.22
  -4  -5  -8  569.74   28.93
   4   5   8  472.29   24.19
   4   5   8  471.10   24.70
  -4  -5  -9  348.44   19.20
  -4  -5  -9  364.85   18.95
   4   5   9  312.07   17.34
   4   5   9  322.56   16.83
  -4  -5 -10  166.57   10.57
  -4  -5 -10  163.01    9.31
   4   5  10  136.45    9.73
   4   5  10  156.33    8.97
  -4  -6  14  209.88   11.42
  -4  -6  14  180.52   12.10
   4   6 -14  190.67   10.49
   4   6 -14  184.92   12.10
  -4  -6  13   90.77    8.46
  -4  -6  13  107.60    6.60
   4   6 -13   98.55    8.12
   4   6 -13  104.39    6.43
  -4  -6  12   68.94    5.08
  -4  -6  12   56.51    6.85
   4   6 -12   59.13    6.43
   4   6 -12   66.66    4.99
  -4  -6  11    4.91    5.58
  -4  -6  11   -2.03    2.88
   4   6 -11    1.78    5.08
   4   6 -11    3.98    3.13
  -4  -6  10   38.15    3.55
  -4  -6  10   21.99    5.50
   4   6 -10   33.16    6.18
   4   6 -10   40.10    3.81
  -4  -6   9  515.18   26.22
   4   6  -9  452.92   24.02
   4   6  -9  480.32   24.53
  -4  -6   8   68.10    5.58
  -4  -6   8   63.36    4.06
   4   6  -8   58.79    5.33
   4   6  -8   66.91    4.31
  -4  -6   7   83.07    6.18
  -4  -6   7   90.01    5.16
   4   6  -7  103.12    5.84
   4   6  -7   83.41    6.01
  -4  -6   6   18.61    4.15
  -4  -6   6   14.80    2.20
   4   6  -6   16.50    2.28
   4   6  -6   16.92    4.15
  -4  -6   5  618.21   31.22
  -4  -6   5  637.75   32.74
   4   6  -5  651.03   33.41
   4   6  -5  610.09   30.79
  -4  -6   4  194.74   10.83
  -4  -6   4  210.89   11.00
   4   6  -4  202.43   10.66
   4   6  -4  210.05   11.50
  -4  -6   2   28.85    3.13
  -4  -6   2   29.61    3.13
   4   6  -2   25.97    2.96
   4   6  -2   30.28    3.21
  -4  -6   1  237.96   12.60
  -4  -6   1  230.26   12.18
   4   6  -1  221.04   11.84
   4   6  -1  256.91   13.54
  -4  -6   0  233.99   12.52
  -4  -6   0  277.47   14.55
  -4  -6  -1  411.72   21.49
  -4  -6  -1  413.33   21.15
   4   6   1  364.18   19.12
   4   6   1  412.99   21.06
  -4  -6  -2 1395.80   70.64
  -4  -6  -2 1258.76   63.19
   4   6   2 1052.35   53.29
   4   6   2 1002.44   50.42
  -4  -6  -3    7.19    4.40
  -4  -6  -3    8.54    2.03
   4   6   3   10.41    2.37
  -4  -6  -4   13.70    2.37
  -4  -6  -4    3.47    4.57
   4   6   4   14.04    4.40
   4   6   4   12.52    2.45
  -4  -6  -5    0.68    4.74
  -4  -6  -5    6.01    2.20
   4   6   5    6.18    2.28
   4   6   5    8.63    4.74
  -4  -6  -6  312.07   16.07
  -4  -6  -6  317.06   17.26
   4   6   6  293.71   16.16
   4   6   6  272.65   14.21
  -4  -6  -7  150.41    8.29
  -4  -6  -7  152.35    9.81
   4   6   7  138.56    9.64
   4   6   7  142.03    7.95
  -4  -6  -8  205.31   12.35
  -4  -6  -8  185.85   10.07
   4   6   8  194.31   10.49
   4   6   8  169.10   11.25
  -4  -6  -9   19.88    5.75
  -4  -6  -9   19.79    3.38
   4   6   9   13.87    6.51
   4   6   9   18.78    3.30
  -4  -7  13   97.03    8.54
  -4  -7  13  104.30    6.68
   4   7 -13   88.15    9.31
   4   7 -13  112.17    7.02
  -4  -7  12  506.72   25.80
  -4  -7  12  470.68   24.96
   4   7 -12  513.99   26.14
   4   7 -12  500.03   26.82
  -4  -7  11  330.68   18.36
  -4  -7  11  328.56   16.92
   4   7 -11  339.56   17.60
   4   7 -11  329.49   18.53
  -4  -7  10  234.41   13.70
  -4  -7  10  230.43   12.10
   4   7 -10  239.99   13.79
   4   7 -10  242.70   12.77
  -4  -7   9  157.68    8.54
  -4  -7   9  168.68   10.66
   4   7  -9  138.90    9.64
   4   7  -9  160.73    8.71
  -4  -7   8   40.18    3.05
  -4  -7   8   38.41    5.41
   4   7  -8   34.51    3.13
   4   7  -8   30.71    5.33
  -4  -7   7  182.98   10.66
  -4  -7   7  188.56    9.98
   4   7  -7  175.02   10.57
   4   7  -7  183.15    9.73
  -4  -7   6   10.91    4.57
  -4  -7   6    2.96    2.11
   4   7  -6    8.29    2.37
   4   7  -6    4.15    4.91
  -4  -7   5    6.51    2.28
  -4  -7   5    7.11    4.48
  -4  -7   4    9.14    2.54
  -4  -7   4    0.00    3.72
  -4  -7   3  204.46   11.00
  -4  -7   3  175.02    9.73
  -4  -7   2   37.98    3.64
  -4  -7   2   41.03    3.72
  -4  -7   1   57.86    4.31
  -4  -7   1   62.60    4.57
   4   7  -1   60.40    4.48
   4   7  -1   64.21    4.82
  -4  -7   0  585.14   29.86
  -4  -7   0  636.99   32.31
   4   7   0  625.06   31.81
   4   7   0  524.06   26.90
  -4  -7  -1    8.46    3.72
  -4  -7  -1   14.13    3.13
   4   7   1    8.54    3.89
   4   7   1    8.71    3.05
  -4  -7  -2    3.55    2.54
  -4  -7  -2    5.33    4.23
   4   7   2    4.65    3.89
   4   7   2    3.64    2.79
  -4  -7  -3  396.91   20.30
  -4  -7  -3  394.21   20.81
   4   7   3  365.53   18.78
   4   7   3  354.28   18.78
  -4  -7  -4  387.02   20.56
  -4  -7  -4  399.45   20.39
   4   7   4  369.00   19.71
   4   7   4  365.19   18.78
  -4  -7  -5   13.20    4.57
  -4  -7  -5   19.46    2.96
   4   7   5   16.66    2.96
   4   7   5   14.30    5.24
  -4  -7  -6  197.61   12.10
  -4  -7  -6  192.03   10.32
   4   7   6  190.34   10.15
   4   7   6  169.44   10.74
  -4  -7  -7  516.36   26.22
  -4  -7  -7  494.79   26.31
   4   7   7  468.73   23.86
   4   7   7  452.32   23.86
  -4  -8  11  181.12    9.73
  -4  -8  11  170.03   11.17
   4   8 -11  171.98   11.84
   4   8 -11  184.58    9.98
  -4  -8  10  349.96   17.93
  -4  -8  10  354.03   19.54
   4   8 -10  360.79   18.44
   4   8 -10  363.67   20.13
  -4  -8   9  177.48   11.25
  -4  -8   9  189.57    9.98
   4   8  -9  188.73   11.34
   4   8  -9  192.96   10.24
  -4  -8   8   80.28    4.91
  -4  -8   8   69.11    6.85
   4   8  -8   75.71    4.82
   4   8  -8   64.88    6.68
  -4  -8   7   83.24    7.02
  -4  -8   7   68.18    4.31
   4   8  -7   75.80    7.19
   4   8  -7   74.27    4.82
  -4  -8   6  421.70   21.49
  -4  -8   6  419.08   22.25
   4   8  -6  408.93   20.81
   4   8  -6  416.88   22.42
  -4  -8   5  209.03   12.27
  -4  -8   5  202.01   10.66
   4   8  -5  193.64   10.24
   4   8  -5  203.62   12.10
  -4  -8   4  508.58   25.89
  -4  -8   4  514.58   26.65
  -4  -8   3  101.09    6.18
  -4  -8   3   84.68    5.84
   4   8  -3   87.30    6.34
   4   8  -3  109.13    6.51
  -4  -8   2    5.50    2.88
  -4  -8   2    6.60    3.30
   4   8  -2    1.10    3.47
   4   8  -2   10.41    2.88
  -4  -8   1   25.46    3.47
  -4  -8   1   24.96    3.64
   4   8  -1   17.26    3.13
   4   8  -1   26.31    3.72
  -4  -8   0  378.90   19.71
  -4  -8   0  408.33   21.06
   4   8   0  412.06   21.40
   4   8   0  363.67   18.95
  -4  -8  -1  308.18   16.41
  -4  -8  -1  340.32   17.76
   4   8   1  313.93   16.83
   4   8   1  306.15   16.16
  -4  -8  -2   36.04    4.06
  -4  -8  -2   26.14    5.33
   4   8   2   32.23    4.15
   4   8   2   24.11    4.91
  -4  -8  -3   -1.95    5.16
  -4  -8  -3    4.82    3.30
   4   8   3   11.17    4.65
   4   8   3    5.84    3.13
  -4  -8  -4   98.97    6.18
  -4  -8  -4   86.03    7.19
   4   8   4   86.20    5.50
   4   8   4   87.05    7.28
  -4  -8  -5   83.24    7.70
  -4  -8  -5   85.36    5.58
   4   8   5   74.95    4.82
   4   8   5   74.70    7.02
  -4  -8  -6   49.32    7.28
  -4  -8  -6   53.29    4.40
   4   8   6   48.73    4.06
   4   8   6   53.38    6.34
  -4  -9   9   44.67    6.43
  -4  -9   9   53.72    4.06
   4   9  -9   53.29    4.15
   4   9  -9   70.55    7.70
  -4  -9   8   39.59    3.47
  -4  -9   8   38.66    6.43
   4   9  -8   44.41    5.92
   4   9  -8   43.14    3.72
  -4  -9   7  243.04   12.77
  -4  -9   7  238.30   14.21
   4   9  -7  249.97   14.47
   4   9  -7  244.14   12.69
  -4  -9   6   56.59    7.19
  -4  -9   6   53.38    4.15
   4   9  -6   53.97    3.72
   4   9  -6   56.85    7.19
  -4  -9   5  590.72   30.79
  -4  -9   5  593.43   30.12
   4   9  -5  627.01   31.81
   4   9  -5  612.46   31.81
  -4  -9   4  202.60   11.00
  -4  -9   4  184.58   11.25
   4   9  -4  195.41   10.57
   4   9  -4  177.31   10.57
  -4  -9   3   93.73    6.09
  -4  -9   3   89.08    6.94
   4   9  -3   78.76    6.51
   4   9  -3   82.90    5.58
  -4  -9   2    1.52    3.21
  -4  -9   2    3.13    4.06
   4   9  -2   -3.81    3.89
   4   9  -2   -3.64    3.30
  -4  -9   1   23.94    4.06
  -4  -9   1   30.03    4.23
   4   9  -1   22.59    4.06
   4   9  -1   26.48    3.89
  -4  -9   0  137.89    8.29
  -4  -9   0  126.89    7.87
   4   9   0  125.79    7.78
   4   9   0  118.60    7.61
  -4  -9  -1  642.83   32.74
  -4  -9  -1  632.42   32.48
   4   9   1  620.58   31.89
   4   9   1  648.07   32.99
  -4  -9  -2   27.32    5.84
  -4  -9  -2   34.68    4.82
   4   9   2   20.05    5.24
   4   9   2   33.41    4.74
  -4  -9  -3    0.34    5.75
  -4  -9  -3   10.07    4.31
   4   9   3    8.04    4.23
   4   9   3    5.58    5.84
  -5  12   1   60.74    5.16
  -5  12   1   65.31    6.18
   5 -12  -1   52.28    5.08
   5 -12  -1   58.54    6.09
  -5  12   0   42.47    5.84
  -5  12   0   45.60    4.82
   5 -12   0   50.84    4.74
   5 -12   0   40.52    6.09
   5 -11  -6  112.26    7.28
   5 -11  -6  107.18    8.04
  -5  11   5  158.44    9.22
  -5  11   5  166.90   10.41
   5 -11  -5  164.62    9.73
   5 -11  -5  150.41    9.56
  -5  11   4  113.19    7.11
  -5  11   4   97.88    7.02
   5 -11  -4  122.75    7.95
   5 -11  -4  110.65    7.53
  -5  11   3  310.88   16.33
  -5  11   3  327.80   17.09
   5 -11  -3  330.51   17.34
   5 -11  -3  325.60   17.17
  -5  11   2   34.09    4.06
  -5  11   2   34.51    3.98
   5 -11  -2   44.83    4.40
   5 -11  -2   40.27    4.06
  -5  11   1    4.15    3.72
  -5  11   1    6.60    3.38
   5 -11  -1    2.88    3.64
   5 -11  -1    5.50    3.13
  -5  11   0   14.72    4.31
  -5  11   0   26.99    3.81
   5 -11   0   14.21    4.65
   5 -11   0   22.59    3.47
  -5  11  -1   87.72    6.77
  -5  11  -1  107.27    6.68
   5 -11   1   86.71    7.36
   5 -11   1   91.45    5.75
  -5  11  -2   67.68    6.85
  -5  11  -2   75.03    5.24
   5 -11   2   70.64    4.99
   5 -11   2   63.87    7.28
  -5  11  -3  118.69    9.05
   5 -11   3   97.03    8.37
   5 -11   3  110.65    6.43
  -5  11  -4   49.91    3.81
  -5  11  -4   47.96    6.68
   5 -11   4   48.30    7.02
   5 -11   4   46.70    3.81
  -5  11  -5   44.16    3.64
  -5  11  -5   46.36    6.09
   5 -11   5   43.06    3.72
   5 -11   5   39.34    6.77
  -5  10   9  233.06   13.37
  -5  10   9  238.55   12.52
   5 -10  -9  240.84   13.96
   5 -10  -9  245.49   13.03
  -5  10   8   58.54    4.31
  -5  10   8   67.93    6.77
   5 -10  -8   70.21    5.08
   5 -10  -8   56.51    6.26
  -5  10   7    0.17    3.05
  -5  10   7    2.03    5.24
   5 -10  -7    8.97    5.24
   5 -10  -7    2.20    3.13
  -5  10   6   -1.02    2.79
  -5  10   6   -2.96    4.82
   5 -10  -6   -5.16    3.13
   5 -10  -6    2.03    4.99
  -5  10   5  185.60   10.15
  -5  10   5  157.09    9.73
   5 -10  -5  163.77    9.22
   5 -10  -5  188.56   11.00
  -5  10   4  462.05   23.60
  -5  10   4  412.31   21.40
   5 -10  -4  458.08   23.77
   5 -10  -4  410.11   21.40
   5 -10  -3  416.03   21.49
   5 -10  -3  476.69   24.62
  -5  10   2  404.44   20.81
  -5  10   2  396.15   20.47
   5 -10  -2  400.89   20.89
   5 -10  -2  384.82   19.88
  -5  10   1  226.03   12.18
  -5  10   1  257.25   13.62
   5 -10  -1  232.38   12.77
   5 -10  -1  253.78   13.45
  -5  10   0  290.58   15.40
  -5  10   0  340.41   17.68
   5 -10   0  325.09   16.92
   5 -10   0  280.26   15.06
  -5  10  -1  150.07    9.05
  -5  10  -1  179.34    9.90
   5 -10   1  152.69    8.46
   5 -10   1  144.23    9.47
  -5  10  -2  289.40   15.82
   5 -10   2  263.76   15.23
   5 -10   2  258.27   13.45
  -5  10  -3   21.40    2.79
  -5  10  -3   19.29    5.16
   5 -10   3   13.20    2.62
   5 -10   3   13.70    6.01
  -5  10  -4   10.83    2.54
  -5  10  -4   13.70    5.67
   5 -10   4   13.28    5.75
   5 -10   4   12.01    2.54
  -5  10  -5    6.51    2.54
  -5  10  -5    5.92    4.57
   5 -10   5    6.85    5.33
   5 -10   5    3.72    2.45
  -5  10  -6   65.64    6.94
  -5  10  -6   55.49    3.98
   5 -10   6   57.19    4.06
   5 -10   6   54.22    7.36
  -5  10  -7  136.62    7.53
  -5  10  -7  133.32    9.73
   5 -10   7  136.03   10.15
   5 -10   7  124.78    7.02
  -5  10  -8   -3.21    7.02
  -5  10  -8    0.42    3.13
   5 -10   8    4.74    7.11
   5 -10   8   -0.85    2.79
  -5   9  11  135.27    7.70
  -5   9  11  127.06    9.05
   5  -9 -11  151.00   10.66
   5  -9 -11  142.37    8.04
  -5   9  10  119.62    6.85
  -5   9  10  110.90    8.04
   5  -9 -10  129.60    7.36
   5  -9 -10  135.01    9.81
  -5   9   9  240.84   13.62
  -5   9   9  229.84   12.10
   5  -9  -9  243.21   13.87
   5  -9  -9  233.31   12.27
  -5   9   8   11.93    5.24
  -5   9   8   17.17    2.71
   5  -9  -8   12.60    4.40
   5  -9  -8   11.42    2.88
  -5   9   7   59.22    5.50
  -5   9   7   54.48    3.81
   5  -9  -7   61.08    6.26
   5  -9  -7   61.25    4.65
  -5   9   6   32.40    5.33
  -5   9   6   27.15    2.96
   5  -9  -5  219.77   12.35
   5  -9  -5  209.03   11.25
  -5   9   4   34.09    4.40
  -5   9   4   42.97    3.64
   5  -9  -4   43.90    4.31
   5  -9  -4   47.96    4.06
  -5   9   3  582.26   29.61
  -5   9   3  491.07   25.21
   5  -9  -3  578.20   29.44
   5  -9  -3  511.03   26.14
  -5   9   2  235.85   12.44
  -5   9   2  242.19   12.94
   5  -9  -2  234.92   12.44
   5  -9  -2  231.62   12.35
  -5   9   1   75.37    5.16
  -5   9   1   66.15    4.57
   5  -9   0  137.63    8.04
   5  -9   0  165.04    9.05
   5  -9   1  421.02   22.08
   5  -9   1  494.37   25.21
   5  -9   2  676.24   34.85
   5  -9   2  627.35   31.72
  -5   9  -3  293.12   15.99
  -5   9  -3  307.33   15.82
   5  -9   3  340.83   18.70
  -5   9  -4  146.69    9.14
  -5   9  -4  155.48    8.37
   5  -9   4  144.82    7.87
   5  -9   4  141.02    9.22
  -5   9  -5   41.20    5.24
  -5   9  -5   50.08    3.55
   5  -9   5   43.90    6.09
   5  -9   5   39.76    3.21
  -5   9  -6  130.78    7.36
  -5   9  -6  121.82    8.04
   5  -9   6  116.40    9.05
   5  -9   6  127.82    7.02
  -5   9  -7  290.58   16.33
  -5   9  -7  279.58   14.55
   5  -9   7  264.78   13.79
   5  -9   7  279.75   15.65
  -5   9  -8  117.16    8.54
  -5   9  -8  133.32    7.53
   5  -9   8  126.04    7.28
   5  -9   8  130.44    9.73
  -5   9  -9  131.88    9.56
  -5   9  -9  136.79    7.87
   5  -9   9  125.96    9.90
   5  -9   9  130.87    7.61
  -5   8  12   24.96    3.38
  -5   8  12   35.19    7.11
   5  -8 -12   25.21    5.75
   5  -8 -12   30.37    3.64
  -5   8  11  139.92    9.73
  -5   8  11  140.76    7.95
   5  -8 -11  147.87   10.15
   5  -8 -11  143.89    8.04
  -5   8  10  429.91   21.91
  -5   8  10  430.84   22.92
   5  -8 -10  462.73   23.60
   5  -8 -10  466.96   24.62
  -5   8   9   50.42    6.01
  -5   8   9   62.18    4.06
   5  -8  -9   69.71    6.34
   5  -8  -9   65.64    4.57
  -5   8   8  499.19   25.29
  -5   8   8  478.89   25.04
  -5   8   7    2.71    1.95
  -5   8   7    6.09    4.40
   5  -8  -7    0.25    4.40
   5  -8  -7    1.61    2.28
  -5   8   6  260.55   14.38
  -5   8   6  223.16   11.59
   5  -8  -6  269.26   14.80
   5  -8  -6  250.57   12.94
  -5   8   5 1072.65   54.31
  -5   8   5 1083.65   54.39
   5  -8  -5 1142.02   57.35
   5  -8  -5 1173.32   59.30
  -5   8   4  796.45   40.10
  -5   8   4  747.47   37.98
   5  -8  -4  833.17   42.04
   5  -8  -4  739.69   37.56
  -5   8   3   92.29    5.50
  -5   8   3   73.77    4.99
   5  -8  -3   71.06    4.82
   5  -8  -3   85.95    5.41
  -5   8   2    0.17    2.62
  -5   8   2    1.10    2.28
   5  -8  -2    3.21    2.54
   5  -8  -2    2.62    2.62
  -5   8   1   22.25    3.05
  -5   8   1   17.76    2.71
   5  -8  -1   22.16    2.88
   5  -8  -1   19.12    3.13
  -5   8  -1  295.32   15.65
  -5   8  -1  322.56   16.50
   5  -8   1  299.29   15.90
   5  -8   1  324.67   16.66
  -5   8  -2   38.66    4.48
  -5   8  -2   33.08    2.71
   5  -8   2   37.81    4.74
   5  -8   2   35.70    2.79
  -5   8  -3  152.95    9.31
  -5   8  -3  136.03    7.36
   5  -8   3  159.63    9.56
   5  -8   3  143.30    7.70
   5  -8   4   64.04    5.67
   5  -8   4   67.00    4.31
  -5   8  -5    6.77    3.89
  -5   8  -5    1.27    2.28
   5  -8   5    5.50    4.65
   5  -8   5    0.34    2.28
  -5   8  -6   21.99    2.79
  -5   8  -6   19.46    4.57
   5  -8   6   21.99    2.96
   5  -8   6   24.70    5.08
  -5   8  -7  186.53   10.07
  -5   8  -7  173.67   10.83
   5  -8   7  188.31   11.84
   5  -8   7  191.27   10.32
  -5   8  -8  831.30   42.55
  -5   8  -8  909.38   45.85
   5  -8   8  896.70   45.17
   5  -8   8  819.46   42.21
  -5   8  -9  271.04   14.30
  -5   8  -9  250.74   14.38
   5  -8   9  266.64   14.04
   5  -8   9  254.54   14.97
  -5   8 -10    8.80    5.84
  -5   8 -10    2.88    3.64
   5  -8  10   -6.51    6.68
   5  -8  10    3.55    3.72
  -5   7  13  124.01    7.53
  -5   7  13  117.59    8.88
   5  -7 -13  131.88    8.97
   5  -7 -13  141.61    8.37
  -5   7  12   45.51    4.23
  -5   7  12   37.98    5.41
   5  -7 -12   36.71    6.51
   5  -7 -12   51.18    4.40
  -5   7  11   20.22    5.67
  -5   7  11   19.20    2.88
   5  -7 -11   11.84    3.64
   5  -7 -11   16.24    5.75
  -5   7  10    3.21    2.45
  -5   7  10   -0.51    5.08
   5  -7 -10   -1.95    5.67
   5  -7 -10    7.95    3.38
   5  -7  -9  366.63   19.88
   5  -7  -9  375.17   19.29
  -5   7   8  250.74   14.04
  -5   7   8  269.01   13.87
   5  -7  -8  274.00   15.06
   5  -7  -8  271.12   13.96
  -5   7   7   99.23    5.58
  -5   7   7  116.49    7.61
   5  -7  -7  101.17    7.02
   5  -7  -7  119.36    6.51
  -5   7   6   15.73    3.98
  -5   7   6   15.06    1.86
   5  -7  -6   20.81    4.23
   5  -7  -6   11.84    2.03
  -5   7   5   83.33    5.92
  -5   7   5   82.82    4.74
   5  -7  -5   92.21    6.34
   5  -7  -5   83.75    4.91
  -5   7   4  641.81   32.82
  -5   7   4  687.33   34.68
   5  -7  -4  701.62   35.70
   5  -7  -4  699.85   35.36
  -5   7   3  257.42   13.37
  -5   7   3  238.55   12.69
   5  -7  -3  226.63   12.10
   5  -7  -3  268.92   14.04
  -5   7   2   15.31    2.62
  -5   7   2   11.25    2.45
   5  -7  -2   16.33    2.54
   5  -7  -2   10.57    2.71
  -5   7   1   36.88    3.21
  -5   7   1   44.83    3.47
   5  -7  -1   36.97    3.38
   5  -7  -1   39.84    3.30
  -5   7   0   10.49    2.88
  -5   7   0   12.01    2.54
   5  -7   0    7.95    2.96
   5  -7   0   12.18    2.20
   5  -7   1 1015.13   51.01
   5  -7   1  906.00   45.93
  -5   7  -2  412.31   21.06
  -5   7  -2  471.95   24.45
   5  -7   2  448.60   23.35
   5  -7   2  407.40   20.73
  -5   7  -3  239.06   12.44
  -5   7  -3  240.84   13.11
   5  -7   3  238.89   12.35
   5  -7   3  268.50   14.72
  -5   7  -4   38.15    2.96
  -5   7  -4   38.07    4.15
   5  -7   4   38.32    4.48
   5  -7   4   39.59    3.13
  -5   7  -5  100.50    7.28
   5  -7   5   82.31    6.60
   5  -7   5   97.45    5.75
  -5   7  -6   74.36    4.91
  -5   7  -6   67.17    6.09
   5  -7   6   73.77    4.99
   5  -7   6   67.25    6.43
  -5   7  -7   27.92    3.30
  -5   7  -7   21.83    4.99
   5  -7   7   21.57    3.55
   5  -7   7   15.99    5.33
  -5   7  -8   63.78    6.43
  -5   7  -8   53.12    4.06
   5  -7   8   52.79    4.40
   5  -7   8   58.79    6.01
  -5   7  -9  160.64    8.88
  -5   7  -9  159.12   10.24
   5  -7   9  162.25   10.49
   5  -7   9  146.43    8.21
  -5   7 -10  177.82   11.42
  -5   7 -10  154.81    8.63
   5  -7  10  144.91    8.21
   5  -7  10  150.24    9.73
  -5   7 -11   29.86    3.72
  -5   7 -11   40.77    7.02
   5  -7  11   32.48    3.98
   5  -7  11   33.58    6.94
  -5   6  14  376.44   19.54
  -5   6  14  375.43   20.30
   5  -6 -14  375.26   20.30
   5  -6 -14  362.06   18.86
  -5   6  13   65.90    6.18
  -5   6  13   70.81    5.16
   5  -6 -13   75.63    5.41
   5  -6 -13   65.31    7.11
  -5   6  12  152.52    8.54
  -5   6  12  141.44    9.47
   5  -6 -12  144.40    9.39
   5  -6 -12  149.22    8.63
  -5   6  11  168.43    9.31
  -5   6  11  135.60    8.88
   5  -6 -11  160.05    9.05
   5  -6 -11  155.40    9.73
   5  -6 -10  866.24   44.41
   5  -6 -10  911.08   46.02
  -5   6   9  364.68   18.70
  -5   6   9  329.58   17.85
   5  -6  -9  396.32   20.30
   5  -6  -9  353.94   18.95
  -5   6   8  499.53   25.29
  -5   6   8  488.36   25.38
  -5   6   7   16.41    3.64
  -5   6   7   16.66    2.11
   5  -6  -7   17.60    2.11
   5  -6  -7   18.70    3.98
  -5   6   6    5.67    1.61
  -5   6   5    6.51    2.88
  -5   6   5    7.02    1.61
   5  -6  -5    5.41    1.69
   5  -6  -5    5.84    3.05
  -5   6   4   13.37    2.71
  -5   6   4   13.37    1.78
   5  -6  -4   17.34    2.79
   5  -6  -4   24.45    2.11
   5  -6  -3  115.30    6.26
   5  -6  -3  101.01    5.67
  -5   6   2  370.94   18.86
  -5   6   2  418.82   21.32
   5  -6  -2  452.07   23.01
   5  -6  -2  380.59   19.37
  -5   6   1    1.61    1.86
  -5   6   1    1.52    1.69
   5  -6  -1    2.03    1.61
   5  -6  -1    3.47    1.78
  -5   6   0  311.31   16.16
  -5   6   0  320.86   16.24
   5  -6   0  295.82   15.31
   5  -6   0  346.33   17.60
  -5   6  -1  237.79   12.77
  -5   6  -1  236.10   12.10
   5  -6   1  240.50   12.77
   5  -6   1  218.17   11.17
  -5   6  -2  362.74   19.03
  -5   6  -2  348.53   17.68
   5  -6   2  351.57   18.36
   5  -6   2  322.47   16.41
   5  -6   3  504.01   25.46
  -5   6  -4   -0.68    3.13
  -5   6  -4    5.92    2.45
   5  -6   4    3.64    3.47
   5  -6   4    3.81    2.45
  -5   6  -5  220.11   11.76
  -5   6  -5  205.99   11.84
   5  -6   5  228.40   12.10
   5  -6   5  197.95   11.42
   5  -6   6 1217.31   61.84
   5  -6   6 1206.31   60.74
  -5   6  -7  663.39   34.09
  -5   6  -7  662.71   33.58
   5  -6   7  600.02   31.22
   5  -6   7  621.09   31.55
  -5   6  -8  108.87    6.43
  -5   6  -8   97.20    7.36
   5  -6   8   92.63    5.75
   5  -6   8  106.08    8.04
  -5   6  -9  259.20   14.55
  -5   6  -9  235.00   12.44
   5  -6   9  251.50   14.47
   5  -6   9  217.07   11.59
  -5   6 -10  164.79    9.22
  -5   6 -10  177.31   10.66
   5  -6  10  159.04    8.88
   5  -6  10  181.20   11.59
  -5   6 -11  244.14   14.38
  -5   6 -11  215.12   11.59
   5  -6  11  232.80   13.54
   5  -6  11  210.05   11.42
  -5   6 -12    6.94    3.64
  -5   6 -12    9.81    5.75
   5  -6  12   10.41    3.81
   5  -6  12   19.96    6.51
  -5   5  15  237.71   13.62
  -5   5  15  211.74   11.67
   5  -5 -15  220.96   12.10
   5  -5 -15  235.76   14.04
  -5   5  14   21.83    3.64
  -5   5  14   21.15    4.99
   5  -5 -14   25.04    6.18
   5  -5 -14   27.15    3.72
  -5   5  13   10.66    4.91
  -5   5  13   19.71    3.30
   5  -5 -13   19.88    3.64
   5  -5 -13   22.59    5.67
  -5   5  12    7.02    4.57
  -5   5  12    8.46    2.79
   5  -5 -12    5.08    3.13
   5  -5 -12    1.27    4.40
  -5   5  11  596.22   30.28
  -5   5  11  595.12   30.88
  -5   5  10  692.15   35.02
  -5   5  10  691.22   35.61
   5  -5 -10  704.16   35.61
   5  -5 -10  690.71   35.53
  -5   5   9 1293.44   64.97
  -5   5   9 1317.97   66.66
   5  -5  -9 1368.73   68.69
   5  -5  -9 1347.58   68.27
  -5   5   8  223.41   12.69
  -5   5   8  238.22   12.44
   5  -5  -8  235.42   12.35
   5  -5  -8  223.50   12.86
   5  -5  -7  114.54    7.19
  -5   5   6   22.76    2.88
  -5   5   6   23.69    2.03
   5  -5  -6   20.89    1.86
   5  -5  -6   22.08    3.05
  -5   5   5  699.93   35.44
  -5   5   5  639.87   32.23
   5  -5  -5  686.48   34.51
   5  -5  -5  736.14   37.31
  -5   5   4 1114.10   56.00
  -5   5   4 1025.28   51.43
   5  -5  -4 1189.39   59.81
   5  -5  -4 1036.28   51.94
  -5   5   3   43.06    2.71
  -5   5   3   37.39    2.71
   5  -5  -3   37.73    2.45
   5  -5  -3   38.74    2.62
  -5   5   2    0.76    1.18
  -5   5   2    5.50    1.61
   5  -5  -2    4.74    1.52
   5  -5  -2    1.02    1.35
  -5   5   1  591.14   29.86
  -5   5   1  673.37   33.84
   5  -5  -1  631.92   31.81
   5  -5  -1  568.98   28.68
  -5   5   0  458.41   23.09
  -5   5   0  533.87   27.15
   5  -5   0  461.88   23.26
   5  -5   0  491.24   24.96
  -5   5  -1  544.45   27.41
  -5   5  -1  576.17   29.27
   5  -5   1  502.57   25.29
   5  -5   1  589.62   29.95
  -5   5  -2   10.32    1.44
  -5   5  -2   13.03    2.45
   5  -5   2   11.84    1.52
   5  -5   2   15.31    2.45
  -5   5  -3 1258.76   63.11
  -5   5  -3 1130.17   57.02
   5  -5   3 1066.73   53.80
   5  -5   3 1206.31   60.48
  -5   5  -4  576.85   29.69
  -5   5  -4  599.09   30.28
   5  -5   4  605.61   30.62
   5  -5   4  536.92   27.66
  -5   5  -5  417.64   22.08
  -5   5  -5  417.98   21.40
   5  -5   5  375.09   19.29
   5  -5   5  409.52   21.66
  -5   5  -6    0.85    2.37
  -5   5  -6    4.06    3.89
   5  -5   6   -0.25    3.89
   5  -5   6    1.35    2.45
  -5   5  -7 1051.50   53.38
  -5   5  -7  928.00   46.87
   5  -5   7 1013.43   51.69
   5  -5   7 1021.89   51.52
  -5   5  -8  861.17   43.48
  -5   5  -8  906.00   46.10
   5  -5   8  867.93   44.41
   5  -5   8  858.63   43.40
  -5   5  -9  133.07    7.61
  -5   5  -9  122.32    8.12
   5  -5   9  109.38    7.70
   5  -5   9  118.09    7.11
  -5   5 -10   42.47    5.58
  -5   5 -10   39.42    3.98
   5  -5  10   45.09    6.60
   5  -5  10   42.47    4.23
  -5   5 -11  248.62   13.37
  -5   5 -11  273.92   15.65
   5  -5  11  270.79   14.55
   5  -5  11  272.65   15.48
  -5   5 -12  366.04   20.22
  -5   5 -12  360.45   18.86
   5  -5  12  350.13   18.44
   5  -5  12  339.56   18.61
  -5   4  15  254.46   14.47
  -5   4  15  243.72   13.20
   5  -4 -15  252.43   13.62
   5  -4 -15  252.51   14.47
  -5   4  14    1.10    3.47
  -5   4  14   -1.18    5.50
   5  -4 -14    6.09    4.48
   5  -4 -14    2.54    3.38
  -5   4  13   43.57    5.24
  -5   4  13   28.68    3.64
   5  -4 -13   25.21    4.99
   5  -4 -13   35.02    3.98
  -5   4  12  456.47   23.94
  -5   4  12  437.77   22.50
   5  -4 -12  457.15   24.11
   5  -4 -12  445.89   23.01
   5  -4 -11   87.39    6.60
   5  -4 -11   69.54    4.82
  -5   4  10  265.12   13.87
  -5   4  10  272.56   14.89
   5  -4 -10  264.10   13.87
   5  -4 -10  281.53   15.48
  -5   4   9   80.03    6.18
  -5   4   9   79.43    4.91
   5  -4  -9   75.71    6.18
   5  -4  -9   70.55    4.48
  -5   4   8    5.67    2.03
  -5   4   8    6.34    3.05
   5  -4  -8    9.56    3.21
   5  -4  -8    8.29    2.28
  -5   4   7 1306.98   65.81
  -5   4   7 1249.45   62.77
   5  -4  -7 1328.12   66.58
   5  -4  -7 1322.20   66.58
  -5   4   6  960.14   48.22
  -5   4   6  968.60   48.81
   5  -4  -6 1110.72   55.75
   5  -4  -6  982.14   49.57
  -5   4   5  926.30   46.44
  -5   4   5  873.01   43.99
   5  -4  -5  892.47   45.00
   5  -4  -5  911.08   45.68
  -5   4   4 1588.67   79.60
  -5   4   4 1450.79   72.58
   5  -4  -4 1515.08   75.80
   5  -4  -4 1629.28   81.72
  -5   4   3 5210.98  260.46
  -5   4   3 5335.34  266.72
   5  -4  -3 5145.85  257.25
   5  -4  -3 4848.08  242.28
  -5   4   2  713.80   35.87
  -5   4   2  839.00   42.13
   5  -4  -2  755.93   37.98
   5  -4  -2  825.55   41.45
  -5   4   1  382.79   19.29
  -5   4   1  362.65   18.36
   5  -4  -1  369.51   18.61
   5  -4  -1  337.95   17.17
  -5   4   0  677.94   34.01
  -5   4   0  778.18   39.25
   5  -4   0  754.66   37.98
   5  -4   0  661.27   33.16
  -5   4  -1 4065.58  203.45
  -5   4  -1 3950.54  197.44
   5  -4   1 3830.41  191.44
   5  -4   1 3757.66  187.97
  -5   4  -2  205.56   10.49
  -5   4  -2  193.80   10.41
   5  -4   2  199.98   10.24
   5  -4   2  189.74   10.07
  -5   4  -3   83.66    4.65
  -5   4  -3   84.93    5.41
   5  -4   3   78.76    4.40
   5  -4   3   81.13    5.08
  -5   4  -4  751.11   38.24
  -5   4  -4  706.02   35.53
   5  -4   4  663.13   33.41
   5  -4   4  727.68   36.97
  -5   4  -5  136.62    7.36
  -5   4  -5  139.16    8.37
   5  -4   5  135.10    8.04
   5  -4   5  131.12    7.19
  -5   4  -6   37.39    3.55
  -5   4  -6   37.14    4.40
   5  -4   6   31.81    4.48
   5  -4   6   42.38    3.98
  -5   4  -7  175.19    9.90
  -5   4  -7  164.54    9.81
   5  -4   7  199.64   11.93
  -5   4  -8  647.31   32.99
  -5   4  -8  639.28   32.82
   5  -4   8  669.56   34.18
   5  -4   8  623.80   32.40
  -5   4  -9  209.20   12.01
  -5   4  -9  244.22   13.20
   5  -4   9  225.10   12.35
   5  -4   9  203.96   12.10
  -5   4 -10  103.54    7.02
  -5   4 -10  101.34    7.53
   5  -4  10   90.94    6.43
   5  -4  10   83.33    7.28
  -5   4 -11   80.11    7.28
  -5   4 -11   76.05    6.01
   5  -4  11   66.41    7.19
   5  -4  11   76.98    6.26
  -5   4 -12  129.43    8.46
  -5   4 -12  157.85   10.57
   5  -4  12  132.47    9.14
   5  -4  12  137.47    8.88
  -5   3  16  129.09    9.47
  -5   3  16  135.77    8.71
   5  -3 -16  131.97    8.63
   5  -3 -16  153.71   10.24
  -5   3  15  107.27    7.61
  -5   3  15   92.29    6.51
   5  -3 -15  101.60    8.21
   5  -3 -15   95.76    6.94
  -5   3  14  365.95   19.20
  -5   3  14  379.40   20.22
   5  -3 -14  364.01   19.54
   5  -3 -14  382.03   20.30
  -5   3  13   -0.25    4.74
  -5   3  13    3.13    3.38
   5  -3 -13   -1.78    4.15
   5  -3 -13    7.19    4.48
  -5   3  12  398.52   20.73
  -5   3  12  396.75   20.89
   5  -3 -12  417.89   21.83
   5  -3 -12  395.39   21.06
  -5   3  11  113.19    6.85
  -5   3  11  122.41    8.21
   5  -3 -11  113.19    7.70
   5  -3 -11  116.65    7.19
  -5   3  10  855.24   43.31
  -5   3  10  782.24   40.10
   5  -3 -10  761.26   39.00
   5  -3 -10  846.78   42.89
  -5   3   9   73.17    5.33
  -5   3   9   80.45    5.16
   5  -3  -9   79.94    5.24
   5  -3  -9   79.18    5.67
  -5   3   8  498.17   25.29
  -5   3   8  505.19   25.89
   5  -3  -8  489.21   25.12
   5  -3  -8  476.43   24.19
  -5   3   7    3.30    1.52
  -5   3   7    1.61    2.28
   5  -3  -7    2.54    2.37
   5  -3  -7    1.86    1.35
  -5   3   6 2705.31  135.43
  -5   3   6 2714.62  135.77
   5  -3  -6 2597.03  129.85
   5  -3  -6 2574.19  128.92
  -5   3   5  971.14   48.64
  -5   3   5  960.14   48.30
   5  -3  -5  957.60   48.22
   5  -3  -5 1059.96   53.12
  -5   3   4   32.57    1.86
  -5   3   4   33.67    2.45
   5  -3  -4   32.82    2.37
   5  -3  -4   31.55    1.86
  -5   3   3   82.48    4.31
  -5   3   3   71.65    3.89
   5  -3  -3   74.78    4.15
   5  -3  -3   73.26    3.81
  -5   3   2 1962.58   98.30
  -5   3   2 2227.36  111.58
   5  -3  -2 2169.83  108.70
   5  -3  -2 2000.65  100.16
  -5   3   1 1700.34   85.19
  -5   3   1 1860.22   93.31
   5  -3  -1 1729.10   86.62
   5  -3  -1 1756.17   87.98
  -5   3   0   15.99    1.61
  -5   3   0   17.34    1.10
   5  -3   0   13.79    1.02
   5  -3   0   15.73    1.61
  -5   3  -1 1943.97   97.20
  -5   3  -1 1843.30   92.38
   5  -3   1 1823.00   91.36
   5  -3   1 1932.97   96.69
  -5   3  -2 5334.49  266.89
  -5   3  -2 5541.75  277.05
   5  -3   2 5084.09  254.12
   5  -3   2 5218.60  260.97
  -5   3  -3  439.55   22.50
  -5   3  -3  418.15   21.15
   5  -3   3  420.43   21.23
   5  -3   3  462.14   23.60
  -5   3  -4    5.92    1.69
  -5   3  -4    3.55    2.54
   5  -3   4    2.54    2.20
   5  -3   4    5.16    1.86
  -5   3  -5  232.04   12.60
  -5   3  -5  225.36   11.84
   5  -3   5  235.09   12.35
   5  -3   5  202.86   11.08
  -5   3  -6  938.15   47.88
  -5   3  -6 1114.95   56.25
   5  -3   6 1013.43   51.26
   5  -3   6  901.77   46.02
  -5   3  -7   76.56    6.09
  -5   3  -7   71.23    5.84
   5  -3   7   88.49    6.68
   5  -3   7  100.75    7.28
  -5   3  -8  127.74    7.87
  -5   3  -8  110.48    7.36
   5  -3   8  114.96    7.28
   5  -3   8  109.13    7.44
  -5   3  -9   65.39    5.50
  -5   3  -9   59.47    5.75
   5  -3   9   66.15    6.51
   5  -3   9   66.58    5.41
  -5   3 -10  130.19    8.71
  -5   3 -10  145.08    8.97
   5  -3  10  123.42    7.95
   5  -3  10  120.80    8.46
  -5   3 -11   11.17    4.65
  -5   3 -11    4.74    4.99
   5  -3  11   11.17    4.57
   5  -3  11    6.09    5.50
  -5   3 -12    2.71    5.67
  -5   3 -12    4.82    5.16
   5  -3  12    2.88    5.33
   5  -3  12    0.42    5.58
  -5   3 -13   -0.59    5.33
  -5   3 -13    7.11    6.01
   5  -3  13   -4.74    5.75
   5  -3  13    3.81    5.41
  -5   2  16  139.07    9.22
  -5   2  16  146.60    9.39
   5  -2 -16  151.25    9.90
   5  -2 -16  145.33    9.56
  -5   2  15  339.05   18.36
  -5   2  15  371.11   19.63
   5  -2 -15  364.77   19.46
   5  -2 -15  344.80   18.53
  -5   2  14   73.51    6.43
  -5   2  14   77.74    5.92
   5  -2 -14   58.62    6.18
   5  -2 -14   75.03    6.51
  -5   2  13  167.33    9.90
  -5   2  13  169.86    9.81
   5  -2 -13  166.40    9.90
   5  -2 -13  162.84    9.81
  -5   2  12  104.05    6.68
  -5   2  12  111.75    7.44
   5  -2 -12   93.05    6.60
   5  -2 -12  103.80    7.36
  -5   2  11  384.23   20.56
  -5   2  11  418.66   21.74
   5  -2 -11  373.57   19.63
   5  -2 -11  374.75   20.05
  -5   2  10  113.53    7.70
  -5   2  10  105.57    6.68
   5  -2 -10  106.59    6.77
  -5   2   9 1608.13   80.79
  -5   2   9 1608.13   80.87
   5  -2  -9 1532.84   77.07
   5  -2  -9 1508.31   75.88
  -5   2   8  624.13   31.64
  -5   2   8  644.77   32.74
   5  -2  -8  568.98   29.02
   5  -2  -8  627.09   31.72
  -5   2   7  357.66   18.27
  -5   2   7  353.26   18.19
   5  -2  -7  340.15   17.43
   5  -2  -7  314.10   16.24
  -5   2   6  463.32   23.52
  -5   2   6  407.49   20.64
   5  -2  -6  427.37   21.74
   5  -2  -6  443.44   22.42
  -5   2   5 1607.28   80.53
  -5   2   5 1509.16   75.54
   5  -2  -5 1487.16   74.44
   5  -2  -5 1503.23   75.37
  -5   2   4  306.15   15.48
  -5   2   4  310.54   15.65
   5  -2  -4  359.19   18.10
   5  -2  -4  304.62   15.48
  -5   2   3  103.46    5.33
  -5   2   3  113.61    5.84
   5  -2  -3  108.62    5.50
   5  -2  -3  101.85    5.33
  -5   2   0  389.81   19.63
  -5   2   0  414.59   20.98
   5  -2   0  360.03   18.10
   5  -2   0  386.34   19.54
  -5   2  -1   18.10    1.27
  -5   2  -1   22.59    1.86
   5  -2   1   15.31    1.18
   5  -2   1   18.10    1.52
  -5   2  -2  174.69    8.97
  -5   2  -2  180.52    9.47
   5  -2   2  172.32    8.88
   5  -2   2  174.60    9.14
  -5   2  -3  874.70   43.99
  -5   2  -3  825.30   41.70
   5  -2   3  780.72   39.42
   5  -2   3  855.24   43.06
  -5   2  -4   47.96    3.81
  -5   2  -4   49.83    3.47
   5  -2   4   45.17    3.47
   5  -2   4   42.55    3.13
  -5   2  -5  162.93    8.88
  -5   2  -5  159.46    8.97
   5  -2   5  161.74    9.05
   5  -2   5  145.08    7.95
  -5   2  -6  444.79   22.92
  -5   2  -6  467.47   24.36
   5  -2   6  383.38   19.88
   5  -2   6  394.63   20.81
  -5   2  -7  982.14   49.91
  -5   2  -7 1177.55   59.64
   5  -2   7 1172.47   59.38
   5  -2   7 1240.15   63.02
  -5   2  -8   61.92    4.99
  -5   2  -8   54.65    4.65
   5  -2   8   49.66    4.31
   5  -2   8   53.55    5.16
  -5   2  -9  409.18   21.32
  -5   2  -9  416.46   21.66
   5  -2   9  414.34   21.57
   5  -2   9  423.73   22.33
  -5   2 -10   17.00    4.23
  -5   2 -10   21.83    4.65
   5  -2  10   19.63    4.06
   5  -2  10   29.86    4.91
  -5   2 -11  557.05   28.85
  -5   2 -11  556.54   28.68
   5  -2  11  526.51   27.15
   5  -2  11  537.17   28.00
  -5   2 -12   23.09    5.67
  -5   2 -12   19.96    4.99
   5  -2  12   25.04    4.65
   5  -2  12   18.53    5.33
  -5   2 -13  280.85   15.73
  -5   2 -13  320.19   17.34
   5  -2  13  282.04   15.40
   5  -2  13  303.52   16.92
  -5   1  16  582.51   30.20
  -5   1  16  548.85   28.34
   5  -1 -16  596.22   30.79
   5  -1 -16  571.18   29.52
  -5   1  15  119.95    8.04
  -5   1  15  106.25    7.36
   5  -1 -15  120.21    8.21
   5  -1 -15  116.91    8.21
  -5   1  14   23.26    4.31
  -5   1  14   27.32    4.31
  -5   1  13   50.33    4.82
  -5   1  13   47.20    4.65
   5  -1 -13   43.14    4.82
   5  -1 -13   54.90    5.08
  -5   1  12  448.77   23.43
  -5   1  12  446.15   23.18
   5  -1 -12  436.25   22.84
   5  -1 -12  402.50   21.15
   5  -1 -11   13.37    4.06
   5  -1 -11   17.51    3.64
  -5   1  10  591.06   30.37
  -5   1  10  615.84   31.64
   5  -1 -10  610.94   31.38
   5  -1 -10  577.61   29.78
  -5   1   9  158.78    8.80
  -5   1   9  158.02    8.88
   5  -1  -9  157.94    8.80
   5  -1  -9  140.51    7.87
  -5   1   8 1262.14   63.53
  -5   1   8 1288.37   64.71
   5  -1  -8 1251.99   62.94
   5  -1  -8 1190.24   59.89
  -5   1   7  279.24   14.47
  -5   1   7  271.46   14.04
   5  -1  -7  250.31   12.94
   5  -1  -7  263.93   13.70
  -5   1   6  565.34   28.51
  -5   1   6  574.82   29.02
   5  -1  -6  539.03   27.24
   5  -1  -6  564.58   28.51
  -5   1   5 2137.69  107.10
  -5   1   5 2022.64  101.26
   5  -1  -5 1939.74   97.20
   5  -1  -5 2061.55  103.20
  -5   1   4 1998.11  100.50
  -5   1   4 1784.09   89.67
   5  -1  -4 1954.12   98.13
   5  -1  -4 1671.58   83.92
  -5   1  -1  499.19   25.12
  -5   1  -1  568.22   28.59
   5  -1   1  507.14   25.55
   5  -1   1  524.65   26.39
  -5   1  -2  330.51   16.75
  -5   1  -2  335.08   17.00
   5  -1   2  326.96   16.58
   5  -1   2  317.90   16.16
  -5   1  -3  197.70   10.32
  -5   1  -3  188.81    9.90
   5  -1   3  193.55   10.15
   5  -1   3  207.42   10.83
  -5   1  -4  249.64   13.03
  -5   1  -4  265.62   13.79
   5  -1   4  251.16   13.03
   5  -1   4  236.78   12.35
  -5   1  -5   55.92    4.06
  -5   1  -5   49.57    3.81
   5  -1   5   59.47    4.23
   5  -1   5   54.73    3.98
  -5   1  -6   31.38    3.72
  -5   1  -6   20.13    3.72
  -5   1  -7  434.31   22.92
  -5   1  -7  440.06   22.84
   5  -1   7  449.28   23.52
   5  -1   7  393.02   20.81
  -5   1  -8  639.02   32.74
  -5   1  -8  596.98   30.54
   5  -1   8  572.79   29.44
   5  -1   8  548.51   28.25
  -5   1  -9   71.23    5.67
  -5   1  -9   62.51    5.16
   5  -1   9   62.18    5.50
   5  -1   9   63.70    5.50
  -5   1 -10   23.26    4.31
  -5   1 -10   23.01    4.40
   5  -1  10   26.22    4.31
   5  -1  10   24.19    4.57
  -5   1 -11   20.56    4.65
  -5   1 -11   26.31    4.74
   5  -1  11   32.91    5.33
   5  -1  11   25.72    4.82
  -5   1 -12  379.66   20.30
  -5   1 -12  354.87   19.12
   5  -1  12  368.58   19.71
   5  -1  12  347.51   18.70
  -5   0  16    7.87    5.33
  -5   0  16   15.73    4.82
   5   0 -16   19.96    5.58
   5   0 -16   20.64    4.31
  -5   0  15  422.55   22.08
  -5   0  15  424.58   22.33
   5   0 -15  420.69   21.91
   5   0 -15  436.76   23.26
  -5   0  14  123.34    7.70
  -5   0  14  128.41    8.46
   5   0 -14  126.04    7.78
   5   0 -14  138.40    9.14
  -5   0  13   69.71    5.67
  -5   0  13   73.94    5.58
   5   0 -13   58.29    5.24
   5   0 -13   67.76    6.09
  -5   0  12  785.71   40.01
  -5   0  12  741.30   37.73
   5   0 -12  731.23   37.31
   5   0 -12  725.05   37.31
  -5   0  11  760.58   38.83
  -5   0  11  675.99   34.60
  -5   0  10  146.86    8.97
  -5   0  10  123.68    7.53
  -5   0   9   42.38    3.98
  -5   0   9   36.29    3.05
   5   0  -9   42.89    3.98
   5   0  -9   30.88    3.05
  -5   0   8   17.00    2.28
  -5   0   8   23.52    3.05
   5   0  -8   17.68    2.71
   5   0  -8   14.21    2.11
  -5   0   7  806.69   40.77
  -5   0   7  800.51   40.27
   5   0  -7  764.98   38.57
   5   0  -7  818.19   41.28
  -5   0   6  827.92   41.70
  -5   0   6  862.86   43.40
   5   0  -6  818.87   41.28
   5   0  -6  851.01   42.80
  -5   0   5   47.63    2.71
  -5   0   5   50.59    3.13
   5   0  -5   50.25    2.88
   5   0  -5   51.43    3.13
  -5   0   4 2605.49  130.78
   5   0  -4 2654.56  133.15
   5   0  -4 2896.50  145.25
  -5   0   0   15.40    1.18
  -5   0   0   13.03    0.85
   5   0   0   11.67    0.76
   5   0   0   12.94    1.18
  -5   0  -1 4177.25  209.20
   5   0   1 3852.41  192.87
  -5   0  -2   37.64    2.28
  -5   0  -2   43.06    2.79
   5   0   2   45.26    3.05
   5   0   2   43.99    2.62
  -5   0  -3   31.05    2.45
  -5   0  -3   29.44    2.62
   5   0   3   37.39    2.96
   5   0   3   36.80    2.54
  -5   0  -4  111.24    6.26
  -5   0  -4  102.02    6.01
   5   0   4   89.33    5.41
   5   0   4   99.31    5.67
   5   0   5 1195.31   60.23
   5   0   5 1147.94   57.95
  -5   0  -6    5.67    3.72
  -5   0  -6    3.64    3.05
   5   0   6    2.88    3.21
   5   0   6    4.48    3.72
  -5   0  -7  411.89   21.32
  -5   0  -7  420.18   22.16
   5   0   7  425.93   22.25
   5   0   7  405.80   21.49
  -5   0  -8  726.83   37.22
  -5   0  -8  736.98   37.48
   5   0   8  741.47   37.90
   5   0   8  695.11   35.53
  -5   0  -9  341.17   17.93
  -5   0  -9  326.45   17.60
   5   0   9  317.14   16.92
   5   0   9  313.00   16.83
  -5   0 -10   10.83    4.91
  -5   0 -10   11.00    4.06
   5   0  10    4.48    4.40
   5   0  10    2.11    4.48
  -5   0 -11    2.03    5.16
  -5   0 -11   -0.85    4.06
   5   0  11   -0.93    4.82
   5   0  11    5.75    4.99
  -5   0 -12    8.04    5.50
  -5   0 -12   10.83    5.41
   5   0  12   -3.64    5.33
   5   0  12   -2.28    4.99
  -5  -1  16   36.04    5.58
  -5  -1  16   58.37    6.77
   5   1 -16   42.72    5.84
   5   1 -16   45.00    6.34
  -5  -1  15    3.98    4.40
  -5  -1  15   12.44    5.67
   5   1 -15    9.56    5.16
   5   1 -15   11.84    4.82
  -5  -1  14  447.59   23.26
  -5  -1  14  459.09   24.19
   5   1 -14  447.25   23.94
   5   1 -14  454.18   23.60
  -5  -1  13    0.76    4.40
  -5  -1  13    2.11    3.81
   5   1 -13    5.41    5.08
   5   1 -13    0.25    4.23
  -5  -1  12   43.31    4.65
  -5  -1  12   39.17    4.91
   5   1 -12   38.57    5.24
   5   1 -12   34.60    4.23
  -5  -1  11  791.71   40.44
  -5  -1  11  779.03   39.67
   5   1 -11  830.80   42.64
   5   1 -11  806.26   41.03
  -5  -1  10  218.84   12.44
   5   1 -10  330.09   17.85
  -5  -1   9  384.06   20.13
  -5  -1   9  423.39   21.83
   5   1  -9  371.11   19.63
   5   1  -9  416.62   21.49
  -5  -1   8   21.06    2.28
  -5  -1   8   15.82    3.05
   5   1  -8   17.85    2.88
   5   1  -8   17.85    2.54
  -5  -1   7    4.06    1.52
  -5  -1   7   -1.18    2.28
   5   1  -7    1.52    2.11
   5   1  -7    3.30    1.69
  -5  -1   6 1166.55   58.45
  -5  -1   6 1226.61   61.67
   5   1  -6 1136.94   57.02
   5   1  -6 1209.69   60.82
  -5  -1   5 2424.46  121.48
  -5  -1   5 2888.04  144.49
   5   1  -5 2532.74  126.81
   5   1  -5 2700.24  135.10
  -5  -1   4    3.13    1.44
  -5  -1   4    2.03    0.59
  -5  -1   3   22.25    1.35
  -5  -1   3   22.42    1.78
   5   1  -3   20.89    1.35
   5   1  -3   17.93    1.52
  -5  -1   2    9.05    1.18
  -5  -1   2   10.66    1.02
   5   1  -2    6.77    1.10
   5   1  -2    9.22    1.02
  -5  -1   1   58.20    3.21
  -5  -1   1   53.97    2.96
   5   1  -1   49.32    2.71
   5   1  -1   55.75    3.13
  -5  -1   0   17.00    1.18
  -5  -1   0   19.71    1.78
   5   1   0   16.75    1.78
   5   1   0   16.33    1.10
  -5  -1  -1  203.28   10.57
  -5  -1  -1  207.51   10.57
   5   1   1  215.12   11.17
   5   1   1  194.90    9.90
  -5  -1  -2  964.37   48.56
  -5  -1  -2 1075.19   53.97
   5   1   2  978.75   49.06
   5   1   2  909.38   45.85
  -5  -1  -3    7.53    2.28
  -5  -1  -3    8.29    1.52
   5   1   3    6.60    1.44
   5   1   3    7.28    2.54
   5   1   4   14.21    3.05
  -5  -1  -5  129.17    7.87
  -5  -1  -5  125.28    7.02
   5   1   5  117.59    6.77
   5   1   5  129.68    7.78
  -5  -1  -6  770.82   39.00
  -5  -1  -6  773.27   39.76
   5   1   6  735.21   37.48
   5   1   6  873.86   44.67
  -5  -1  -7  376.02   19.88
  -5  -1  -7  371.20   19.20
   5   1   7  387.27   20.13
   5   1   7  368.83   19.63
  -5  -1  -8  348.95   18.61
  -5  -1  -8  324.50   16.92
   5   1   8  325.18   17.17
   5   1   8  317.48   17.26
  -5  -1  -9   57.10    5.67
  -5  -1  -9   51.43    4.48
   5   1   9   55.83    5.08
   5   1   9   46.78    5.16
  -5  -1 -10  645.37   32.91
  -5  -1 -10  644.77   33.25
   5   1  10  634.45   32.65
   5   1  10  634.54   32.57
  -5  -1 -11  565.68   29.44
  -5  -1 -11  533.87   27.49
   5   1  11  538.86   27.75
   5   1  11  525.16   27.49
  -5  -1 -12  122.75    9.47
  -5  -1 -12  124.86    8.37
   5   1  12  106.93    7.53
   5   1  12  124.10    9.22
  -5  -2  16  131.97    8.63
  -5  -2  16  131.71    9.64
   5   2 -16  129.43    9.14
   5   2 -16  132.30    8.63
  -5  -2  15    0.25    6.01
  -5  -2  15    8.21    4.48
   5   2 -15    4.65    6.26
   5   2 -15    7.28    4.74
  -5  -2  14   53.04    5.16
  -5  -2  14   51.09    6.43
   5   2 -14   52.45    6.51
   5   2 -14   56.51    5.67
  -5  -2  13    3.30    3.72
  -5  -2  13   10.57    4.65
   5   2 -13   14.89    5.33
   5   2 -13    5.92    4.06
  -5  -2  12   31.55    4.15
  -5  -2  12   31.05    4.57
   5   2 -12   31.13    5.33
   5   2 -12   29.44    4.15
  -5  -2  11   28.25    3.64
  -5  -2  11   32.57    4.40
   5   2 -11   27.32    3.72
   5   2 -11   30.12    4.91
  -5  -2  10  260.97   14.30
  -5  -2  10  253.36   13.62
   5   2 -10  255.81   14.38
   5   2 -10  264.27   14.30
  -5  -2   9  286.35   14.97
  -5  -2   9  276.54   15.23
  -5  -2   8   70.21    5.24
  -5  -2   8   57.86    3.72
   5   2  -8   66.15    5.16
   5   2  -8   55.49    3.64
  -5  -2   7  371.71   18.86
  -5  -2   7  392.09   20.39
   5   2  -7  358.00   18.61
   5   2  -7  345.14   17.51
  -5  -2   6   69.87    4.65
  -5  -2   6   84.93    4.65
   5   2  -6   68.94    4.57
   5   2  -6   74.78    4.23
  -5  -2   5 1954.97   97.79
  -5  -2   5 2018.41  101.26
   5   2  -5 1965.12   98.55
   5   2  -5 2026.87  101.43
  -5  -2   4  205.99   10.83
  -5  -2   4  198.20   10.07
   5   2  -4  193.72    9.81
   5   2  -4  205.14   10.66
  -5  -2   3    2.37    1.78
  -5  -2   3    4.31    1.02
   5   2  -3    4.23    1.69
   5   2  -3    2.11    1.10
  -5  -2   2  141.44    7.44
  -5  -2   2  123.08    6.43
   5   2  -2  112.68    5.92
   5   2  -2  118.60    6.26
  -5  -2   1  690.88   34.77
  -5  -2   1  668.12   33.67
   5   2  -1  730.05   36.71
   5   2  -1  764.05   38.41
  -5  -2   0  790.95   39.84
  -5  -2   0  801.95   40.27
   5   2   0  715.66   35.95
   5   2   0  750.69   37.81
  -5  -2  -1  224.77   11.42
  -5  -2  -1  231.36   12.18
   5   2   1  207.93   11.00
   5   2   1  205.73   10.49
  -5  -2  -2  719.47   36.63
  -5  -2  -2  659.49   33.16
   5   2   2  527.95   26.56
   5   2   2  519.41   26.56
  -5  -2  -3    0.51    1.78
  -5  -2  -3   -0.59    2.79
   5   2   3   -0.76    3.13
   5   2   3    2.96    1.78
  -5  -2  -4  532.10   27.58
  -5  -2  -4  564.66   28.68
   5   2   4  497.67   25.29
   5   2   4  500.03   25.89
   5   2   5  194.06   10.49
   5   2   5  183.74   10.74
  -5  -2  -6   13.54    2.37
  -5  -2  -6    3.98    4.23
   5   2   6    6.68    2.45
   5   2   6    3.89    3.98
  -5  -2  -7  100.92    7.28
  -5  -2  -7  100.16    5.84
   5   2   7   90.60    6.85
   5   2   7   95.34    5.84
  -5  -2  -8  410.20   21.74
  -5  -2  -8  345.14   17.76
   5   2   8  338.71   17.60
   5   2   8  387.52   20.64
  -5  -2  -9  127.82    8.71
  -5  -2  -9  117.33    6.94
   5   2   9  120.46    8.46
   5   2   9   98.64    6.34
  -5  -2 -10    6.09    5.16
  -5  -2 -10    3.64    3.38
   5   2  10    0.85    4.91
   5   2  10   -1.95    3.64
  -5  -2 -11  248.11   14.55
  -5  -2 -11  238.81   12.94
   5   2  11  234.66   12.69
   5   2  11  240.92   13.87
   5   3 -16  335.08   17.93
   5   3 -16  314.94   18.44
  -5  -3  15  473.98   25.29
  -5  -3  15  438.87   22.76
   5   3 -15  484.55   25.89
   5   3 -15  487.51   25.21
  -5  -3  14  113.27    8.54
  -5  -3  14  115.89    7.19
   5   3 -14  121.22    9.39
   5   3 -14  118.69    7.44
  -5  -3  13    3.13    5.08
  -5  -3  13    5.24    3.21
   5   3 -13   13.45    5.75
   5   3 -13    3.47    3.47
  -5  -3  12  379.40   20.13
  -5  -3  12  352.25   18.27
   5   3 -12  325.94   17.00
   5   3 -12  356.22   19.37
  -5  -3  11  784.02   39.59
  -5  -3  11  836.46   42.64
   5   3 -11  783.85   39.59
   5   3 -11  822.76   42.21
  -5  -3  10   22.84    4.40
  -5  -3  10   23.86    2.79
   5   3 -10   27.32    4.82
   5   3 -10   24.36    2.79
  -5  -3   9   20.30    4.06
  -5  -3   9   21.74    3.13
   5   3  -9   21.99    2.96
   5   3  -9   25.89    5.08
  -5  -3   8  176.46    9.47
  -5  -3   8  180.78   10.74
   5   3  -8  161.83    8.80
   5   3  -8  152.52    9.47
  -5  -3   7  125.71    6.85
  -5  -3   7  107.69    7.02
   5   3  -6  209.79   11.50
   5   3  -6  216.14   11.17
  -5  -3   5    2.45    2.62
  -5  -3   5    4.65    1.18
   5   3  -5    2.96    1.35
   5   3  -5    2.96    2.45
  -5  -3   4   97.54    5.16
  -5  -3   4  108.96    6.43
   5   3  -4  114.46    6.68
   5   3  -4   96.94    5.16
  -5  -3   3  114.46    6.09
  -5  -3   3  114.54    6.51
   5   3  -3  111.58    6.34
   5   3  -3  127.82    6.85
  -5  -3   2   18.53    1.78
  -5  -3   2   18.61    2.11
   5   3  -2   18.36    2.03
   5   3  -2   20.05    1.95
  -5  -3   1   17.34    2.03
   5   3  -1   12.35    1.95
   5   3  -1   19.71    2.20
  -5  -3   0  364.18   18.95
  -5  -3  -1  933.07   46.87
  -5  -3  -1  889.93   45.00
   5   3   1  873.86   43.90
   5   3   1  974.52   49.23
  -5  -3  -2  520.25   26.31
  -5  -3  -2  553.41   28.42
   5   3   2  480.66   24.28
   5   3   2  518.90   26.65
  -5  -3  -3   31.72    4.40
  -5  -3  -3   27.24    2.37
   5   3   3   22.84    2.28
   5   3   3   25.63    3.89
  -5  -3  -4   76.98    4.82
  -5  -3  -4   61.58    5.84
   5   3   4   58.37    4.15
   5   3   4   57.78    5.50
  -5  -3  -5  536.75   28.00
  -5  -3  -5  620.75   31.47
   5   3   5  542.92   27.66
   5   3   5  510.36   26.56
  -5  -3  -6 1112.41   56.51
  -5  -3  -6 1209.69   60.74
   5   3   6 1067.58   53.80
   5   3   6 1051.50   53.38
  -5  -3  -7  556.37   28.85
  -5  -3  -7  549.95   27.92
   5   3   7  481.09   25.12
   5   3   7  499.78   25.55
  -5  -3  -8    1.61    2.79
  -5  -3  -8    3.72    5.24
   5   3   8    1.35    3.13
   5   3   8    6.26    4.91
  -5  -3  -9    9.31    3.13
  -5  -3  -9    7.28    5.58
   5   3   9    8.54    5.41
   5   3   9   12.10    3.47
  -5  -3 -10   32.06    6.51
  -5  -3 -10   37.39    4.23
   5   3  10   42.30    6.34
   5   3  10   37.48    4.23
  -5  -3 -11  171.13    9.81
  -5  -3 -11  173.25   11.67
   5   3  11  175.87   11.42
   5   3  11  168.60    9.64
  -5  -4  15   33.67    6.68
  -5  -4  15   31.30    4.15
   5   4 -15   36.63    7.19
   5   4 -15   32.31    4.06
  -5  -4  14  430.41   23.01
  -5  -4  14  372.89   19.29
   5   4 -14  367.31   19.03
   5   4 -14  404.53   21.74
  -5  -4  13   96.94    7.95
  -5  -4  13   96.86    6.01
   5   4 -13  113.36    8.88
   5   4 -13  101.68    6.18
  -5  -4  12  108.96    7.61
  -5  -4  12  104.73    6.26
   5   4 -12   99.74    7.95
   5   4 -12   93.65    5.75
  -5  -4  11  612.63   31.05
  -5  -4  11  636.40   32.74
   5   4 -11  650.02   33.75
   5   4 -11  600.87   30.54
  -5  -4  10  700.18   35.44
  -5  -4  10  700.52   35.95
   5   4 -10  697.22   35.28
   5   4 -10  685.38   35.44
  -5  -4   9   14.47    2.71
  -5  -4   9   13.54    4.23
   5   4  -9   17.34    2.88
   5   4  -9   20.39    4.91
  -5  -4   8  102.02    6.01
  -5  -4   8  104.47    7.19
   5   4  -8  107.69    6.34
   5   4  -8  101.68    7.53
  -5  -4   7  123.68    6.77
  -5  -4   7  117.16    7.78
   5   4  -7  109.55    7.78
   5   4  -7  121.90    6.77
  -5  -4   6  686.65   35.19
  -5  -4   6  714.99   36.04
   5   4  -6  700.10   35.28
   5   4  -6  652.13   33.50
  -5  -4   5   78.00    4.48
  -5  -4   5   73.85    5.41
   5   4  -5   77.15    4.40
   5   4  -5   81.63    6.01
  -5  -4   4  130.78    7.78
  -5  -4   4  130.53    7.02
   5   4  -4  130.44    7.87
   5   4  -4  121.90    6.51
  -5  -4   3    4.74    2.71
  -5  -4   3    6.85    2.03
   5   4  -3    5.58    2.03
   5   4  -3    4.23    2.71
  -5  -4   2   76.05    4.65
  -5  -4   2   75.80    4.74
   5   4  -2   75.29    4.65
   5   4  -2   76.13    4.65
  -5  -4   1   58.62    3.98
  -5  -4   1   51.69    3.89
   5   4  -1   49.15    3.55
   5   4  -1   55.41    3.89
  -5  -4   0  124.18    6.94
  -5  -4   0  119.78    7.11
   5   4   0  110.90    6.85
   5   4   0  116.74    6.51
  -5  -4  -1  127.82    7.02
  -5  -4  -1  137.97    8.29
   5   4   1  127.31    7.70
   5   4   1  124.10    6.77
  -5  -4  -2  496.90   25.80
   5   4   2  469.67   24.45
  -5  -4  -3   77.91    4.48
  -5  -4  -3   71.14    6.09
   5   4   3   63.11    5.33
   5   4   3   62.01    3.98
  -5  -4  -4   90.09    5.16
  -5  -4  -4   81.97    6.60
   5   4   4   77.66    6.18
   5   4   4   82.48    4.99
  -5  -4  -5   27.24    5.50
  -5  -4  -5   29.10    2.79
   5   4   5   21.66    4.82
   5   4   5   25.29    2.96
  -5  -4  -6  641.39   32.48
  -5  -4  -6  545.46   28.42
   5   4   6  527.36   27.49
   5   4   6  530.15   26.99
  -5  -4  -7  293.46   16.33
  -5  -4  -7  329.66   17.09
   5   4   7  272.31   14.30
   5   4   7  271.29   15.23
  -5  -4  -8  179.09    9.90
  -5  -4  -8  177.22   11.17
   5   4   8  162.25    9.22
   5   4   8  147.19    9.73
  -5  -4  -9   23.94    6.34
  -5  -4  -9   20.56    3.98
   5   4   9   20.39    3.72
   5   4   9   18.95    5.58
  -5  -4 -10  154.38   10.57
  -5  -4 -10  140.43    8.46
   5   4  10  135.52    9.56
   5   4  10  135.01    8.21
  -5  -5  14    1.10    3.47
  -5  -5  14    2.96    5.67
   5   5 -14   -0.59    3.38
   5   5 -14   -2.79    6.01
  -5  -5  13  472.96   25.21
  -5  -5  13  476.18   24.36
   5   5 -13  471.61   24.19
   5   5 -13  483.45   25.80
  -5  -5  12   14.30    6.09
  -5  -5  12    8.63    3.38
   5   5 -12    6.77    2.88
   5   5 -12    0.25    6.01
  -5  -5  11    0.59    3.05
  -5  -5  11    4.23    5.41
   5   5 -11   -1.10    3.05
   5   5 -11    4.57    5.50
  -5  -5  10   12.77    4.99
  -5  -5  10   12.60    2.96
   5   5 -10   14.47    3.13
   5   5 -10    8.97    5.50
  -5  -5   9   53.12    3.81
  -5  -5   9   55.41    5.50
   5   5  -9   51.69    5.58
   5   5  -9   52.28    3.89
  -5  -5   8  105.57    7.19
  -5  -5   8  104.22    5.84
   5   5  -8   99.82    7.44
   5   5  -8  105.15    6.01
  -5  -5   7    3.05    3.89
  -5  -5   7    1.44    1.86
   5   5  -7   -0.17    4.15
   5   5  -7    0.68    2.03
  -5  -5   6  312.41   15.99
  -5  -5   6  336.35   17.76
   5   5  -6  322.89   16.58
   5   5  -6  319.43   17.17
  -5  -5   5 1320.51   66.41
  -5  -5   5 1136.10   57.44
   5   5  -5 1143.71   58.12
   5   5  -5 1089.57   54.73
  -5  -5   4  753.56   38.07
  -5  -5   4  757.88   38.57
  -5  -5   3    2.88    2.54
  -5  -5   3    2.62    3.05
   5   5  -3   -0.25    3.21
   5   5  -3   -0.93    2.62
  -5  -5   2   93.14    5.67
  -5  -5   2   87.13    5.50
   5   5  -2   82.06    5.41
   5   5  -2   95.76    5.84
  -5  -5   1  383.55   19.71
  -5  -5   1  372.64   19.37
   5   5  -1  349.20   18.10
   5   5  -1  382.96   19.88
  -5  -5   0  574.56   29.18
  -5  -5   0  645.45   33.08
   5   5   0  566.02   28.85
   5   5   0  469.33   24.28
  -5  -5  -1  643.76   32.99
  -5  -5  -1  654.93   33.08
   5   5   1  569.06   29.27
   5   5   1  610.09   30.88
  -5  -5  -2  110.40    7.44
  -5  -5  -2  114.12    6.34
   5   5   2   97.37    5.58
   5   5   2   86.88    6.18
  -5  -5  -3  469.24   24.45
  -5  -5  -3  476.86   24.19
   5   5   3  449.53   23.35
   5   5   3  410.79   20.98
  -5  -5  -4    2.28    2.03
  -5  -5  -4    2.37    4.74
   5   5   4    3.64    2.20
   5   5   4   -0.85    4.23
  -5  -5  -5  124.35    6.85
  -5  -5  -5  146.18    9.47
   5   5   5  128.41    8.63
   5   5   5  122.49    7.02
  -5  -5  -6    6.18    2.45
  -5  -5  -6    9.22    5.50
   5   5   6    6.01    5.41
   5   5   6    1.18    2.71
  -5  -5  -7  255.30   13.37
  -5  -5  -7  245.91   14.30
   5   5   7  235.93   12.52
   5   5   7  244.65   14.30
  -5  -5  -8    4.74    2.88
  -5  -5  -8   -3.13    6.01
   5   5   8    3.47    5.75
   5   5   8    7.61    3.30
  -5  -5  -9  145.42    8.71
  -5  -5  -9  118.52    9.56
   5   5   9  115.81    9.05
   5   5   9  111.41    6.85
  -5  -6  13   29.02    4.06
  -5  -6  13   16.33    6.26
   5   6 -13   28.42    4.06
   5   6 -13   20.13    6.94
  -5  -6  12  423.82   22.84
  -5  -6  12  434.47   22.25
   5   6 -12  462.39   23.60
   5   6 -12  429.06   23.18
  -5  -6  11   19.46    3.05
  -5  -6  11   24.62    5.58
   5   6 -11   20.30    6.68
   5   6 -11   16.33    3.05
  -5  -6  10   13.03    5.16
  -5  -6  10   15.48    2.71
   5   6 -10   25.97    6.09
   5   6 -10   22.42    2.96
  -5  -6   9   43.06    6.09
  -5  -6   9   41.87    3.30
   5   6  -9   44.33    6.26
   5   6  -9   41.37    3.38
  -5  -6   8  227.90   13.03
  -5  -6   8  229.76   11.93
   5   6  -8  234.07   13.54
   5   6  -8  229.76   12.01
  -5  -6   7   43.57    5.08
  -5  -6   7   50.76    3.47
   5   6  -7   60.65    3.98
   5   6  -7   46.95    5.50
  -5  -6   6   71.74    5.92
  -5  -6   6   69.79    4.31
   5   6  -6   61.42    3.98
   5   6  -6   69.71    6.26
  -5  -6   5   -0.85    4.06
  -5  -6   5    1.78    2.20
   5   6  -5    0.25    1.95
   5   6  -5    4.40    4.48
  -5  -6   4  486.75   24.79
  -5  -6   4  476.43   24.62
   5   6  -4  566.78   28.85
   5   6  -4  491.32   25.55
  -5  -6   3  138.82    7.87
  -5  -6   3  127.65    7.61
   5   6  -3  142.12    7.95
   5   6  -3  129.85    7.87
  -5  -6   2    0.93    2.71
  -5  -6   2    7.44    2.79
   5   6  -2    4.91    2.79
   5   6  -2    2.88    3.13
  -5  -6   1  131.12    7.44
  -5  -6   1  118.60    7.11
   5   6  -1  118.77    7.11
   5   6  -1  119.62    7.11
  -5  -6   0 1659.73   83.33
  -5  -6   0 1550.61   78.00
   5   6   0 1343.35   67.68
   5   6   0 1550.61   77.91
  -5  -6  -1  456.81   23.77
  -5  -6  -1  452.49   23.09
   5   6   1  386.17   20.30
   5   6   1  417.81   21.49
  -5  -6  -2  900.93   45.77
  -5  -6  -2  906.00   45.68
   5   6   2  848.48   42.80
   5   6   2  848.48   43.14
  -5  -6  -3   -0.17    2.37
  -5  -6  -3   -0.59    4.74
   5   6   3    2.03    4.48
   5   6   3   -1.02    2.45
  -5  -6  -4  316.21   16.24
  -5  -6  -4  327.21   17.68
   5   6   4  300.56   16.41
   5   6   4  305.30   15.82
  -5  -6  -5  109.46    6.34
  -5  -6  -5  112.76    8.71
   5   6   5   94.24    7.70
   5   6   5  106.93    6.26
  -5  -6  -6  383.72   20.89
  -5  -6  -6  364.43   18.70
   5   6   6  350.39   19.03
   5   6   6  346.67   17.85
  -5  -6  -7  114.54    9.05
  -5  -6  -7  120.12    6.94
   5   6   7  110.23    6.51
   5   6   7  112.00    8.80
  -5  -7  12  114.88    6.85
  -5  -7  12  104.05    9.73
   5   7 -12  113.02    9.81
   5   7 -12  119.78    7.11
  -5  -7  11  150.83   11.00
  -5  -7  11  157.34    8.63
   5   7 -11  164.28    8.97
   5   7 -11  163.52   11.08
  -5  -7  10  122.83    9.90
  -5  -7  10  114.29    6.60
   5   7 -10  118.26    6.77
   5   7 -10  114.29    9.14
  -5  -7   9   57.52    6.68
  -5  -7   9   47.80    3.64
   5   7  -9   59.89    6.85
   5   7  -9   46.44    3.72
  -5  -7   8   14.72    5.58
  -5  -7   8   28.85    2.96
   5   7  -8   26.82    6.01
   5   7  -8   25.55    2.96
  -5  -7   7 1153.02   57.86
  -5  -7   7 1133.56   57.44
   5   7  -7 1065.04   54.22
   5   7  -7 1160.63   58.29
  -5  -7   6   96.86    5.75
  -5  -7   6   93.81    7.70
   5   7  -6   97.03    7.78
   5   7  -6   93.22    5.50
  -5  -7   5  468.48   23.86
  -5  -7   5  456.05   23.94
   5   7  -5  445.89   23.69
   5   7  -5  517.46   26.39
  -5  -7   4  192.79   10.41
  -5  -7   4  189.83   11.00
   5   7  -4  193.64   10.49
   5   7  -4  177.82   10.57
  -5  -7   3  257.00   13.87
  -5  -7   3  263.85   13.87
   5   7  -3  251.07   13.28
   5   7  -3  235.42   13.11
  -5  -7   2   27.15    3.30
  -5  -7   2   27.83    3.72
   5   7  -2   23.43    3.89
   5   7  -2   28.59    3.55
  -5  -7   1  118.52    7.11
  -5  -7   1  120.38    7.28
   5   7  -1  131.29    7.87
   5   7  -1  117.50    7.19
  -5  -7   0  153.45    9.14
  -5  -7   0  147.02    8.46
   5   7   0  140.68    8.71
   5   7   0  158.87    9.31
  -5  -7  -1  374.41   19.46
  -5  -7  -1  378.81   20.05
   5   7   1  339.64   18.27
   5   7   1  373.57   19.46
  -5  -7  -2   27.75    3.72
  -5  -7  -2   20.81    5.16
   5   7   2   24.62    3.72
   5   7   2   37.48    5.75
  -5  -7  -3    2.54    4.82
  -5  -7  -3    9.47    3.21
   5   7   3    9.98    4.99
   5   7   3    9.05    3.47
  -5  -7  -4   19.20    5.84
  -5  -7  -4   16.92    3.30
   5   7   4    2.96    2.96
   5   7   4    7.78    5.33
  -5  -7  -5  324.76   17.93
  -5  -7  -5  318.92   16.58
   5   7   5  274.59   15.31
   5   7   5  292.86   15.23
  -5  -7  -6  116.40    7.02
  -5  -7  -6  117.59    9.14
   5   7   6  113.95    9.14
   5   7   6  118.60    7.02
  -5  -8  10  168.85   12.10
  -5  -8  10  169.10    9.22
   5   8 -10  180.69   12.01
   5   8 -10  179.42    9.73
  -5  -8   9  134.59   10.32
  -5  -8   9  122.41    6.94
   5   8  -9  134.50    9.98
   5   8  -9  126.30    7.11
  -5  -8   8   10.66    2.96
  -5  -8   8    6.51    6.18
   5   8  -8   20.64    6.18
   5   8  -8   11.42    2.88
  -5  -8   7    8.54    5.84
  -5  -8   7    5.41    2.96
   5   8  -7    4.48    5.08
   5   8  -7   -0.51    2.62
  -5  -8   6  633.95   32.91
  -5  -8   6  665.08   33.67
   5   8  -6  760.16   38.49
   5   8  -6  641.22   33.41
  -5  -8   5   90.77    7.78
  -5  -8   5   97.37    6.09
   5   8  -5   95.17    6.18
   5   8  -5   91.53    8.21
  -5  -8   4   19.20    3.64
  -5  -8   4   17.34    5.50
   5   8  -4   18.61    3.55
   5   8  -4   20.39    6.09
  -5  -8   3   20.22    4.91
  -5  -8   3   23.43    3.64
   5   8  -3   20.81    5.08
   5   8  -3   23.18    3.38
  -5  -8   2  274.59   14.55
  -5  -8   2  281.78   15.14
   5   8  -2  253.53   13.45
   5   8  -2  257.93   14.04
  -5  -8   1  156.33    9.05
  -5  -8   1  164.45    9.56
   5   8  -1  147.62    8.80
   5   8  -1  156.75    9.39
  -5  -8   0   91.87    6.94
  -5  -8   0   93.65    6.34
   5   8   0   83.24    6.60
   5   8   0   81.46    6.09
  -5  -8  -1  410.45   21.32
  -5  -8  -1  387.52   20.64
   5   8   1  354.36   18.86
   5   8   1  376.10   19.71
  -5  -8  -2  139.58    8.63
  -5  -8  -2  124.78    8.88
   5   8   2  121.98    7.70
   5   8   2  120.04    8.71
  -5  -8  -3   60.48    6.85
  -5  -8  -3   70.97    5.75
  -5  -9   6   92.97    8.71
  -5  -9   6   97.03    6.51
   5   9  -6  103.97    6.94
   5   9  -6  105.49    8.88
  -5  -9   5  500.12   26.56
  -5  -9   5  504.60   25.89
   5   9  -5  496.57   25.46
   5   9  -5  508.83   26.82
  -5  -9   4   40.18    4.57
  -5  -9   4   53.89    6.85
   5   9  -4   36.80    4.40
   5   9  -4   33.58    6.68
  -5  -9   3   31.22    4.40
  -5  -9   3   37.48    6.51
   5   9  -3   25.46    5.67
   5   9  -3   34.35    4.40
  -5  -9   2   33.58    5.58
  -5  -9   2   29.02    4.65
   5   9  -2   26.39    5.33
   5   9  -2   31.38    4.57
  -5  -9   1  280.09   15.23
  -5  -9   1  254.71   13.96
   5   9  -1  260.46   14.21
   5   9  -1  260.97   14.30
  -6  11   6   54.90    5.41
  -6  11   6   35.02    5.75
   6 -11  -6   54.56    5.50
   6 -11  -6   42.97    6.43
  -6  11   5  516.95   26.99
  -6  11   5  549.01   28.17
   6 -11  -5  541.32   28.00
   6 -11  -5  572.79   29.44
  -6  11   4  111.66    8.04
  -6  11   4  102.95    6.68
   6 -11  -4  110.56    7.53
   6 -11  -4   99.31    6.77
  -6  11   3  152.52    8.88
  -6  11   3  162.25    9.56
   6 -11  -3  151.34    8.97
   6 -11  -3  181.03   10.41
  -6  11   2  139.50    8.37
  -6  11   2  128.50    7.78
   6 -11  -2  127.40    8.04
   6 -11  -2  132.22    7.87
  -6  11   1  339.81   18.10
  -6  11   1  334.40   17.43
   6 -11  -1  333.13   17.85
   6 -11  -1  340.66   17.68
  -6  11   0   16.24    5.58
  -6  11   0   12.10    3.81
   6 -11   0   10.07    3.64
   6 -11   0    6.77    5.50
  -6  11  -1  436.00   22.42
  -6  11  -1  414.85   22.25
   6 -11   1  417.22   22.33
   6 -11   1  435.83   22.33
  -6  11  -2  186.02   11.67
  -6  11  -2  222.14   12.01
   6 -11   2  177.48   11.42
   6 -11   2  205.65   11.17
  -6  11  -3  422.80   22.76
  -6  11  -3  501.30   25.72
   6 -11   3  383.63   20.89
   6 -11   3  412.73   21.15
  -6  11  -4   38.41    6.43
  -6  11  -4   24.62    3.30
   6 -11   4   29.44    3.64
   6 -11   4   18.02    6.34
  -6  10   8  103.71    6.34
  -6  10   8   91.36    7.78
   6 -10  -8  107.01    8.21
   6 -10  -8  103.97    6.51
  -6  10   7    5.67    3.30
  -6  10   7    0.17    5.24
   6 -10  -7    1.78    5.41
   6 -10  -7    4.23    3.55
  -6  10   6    0.76    4.82
  -6  10   6    3.81    3.55
   6 -10  -6   -0.42    3.72
   6 -10  -6    7.61    5.24
  -6  10   5   15.73    5.16
  -6  10   5   31.64    4.06
   6 -10  -5   36.88    5.33
   6 -10  -5   29.27    4.65
  -6  10   4  545.46   28.09
  -6  10   4  580.48   29.61
   6 -10  -4  621.60   31.81
   6 -10  -4  583.61   29.95
  -6  10   3   26.73    3.72
  -6  10   3   19.96    3.72
   6 -10  -3   25.38    4.15
   6 -10  -3   23.43    3.81
  -6  10   2   11.00    3.30
  -6  10   2   15.14    3.47
   6 -10  -2   16.16    3.21
   6 -10  -2   11.25    3.89
  -6  10   1   34.77    4.31
  -6  10   1   32.48    3.72
   6 -10  -1   22.25    4.31
   6 -10  -1   27.32    3.47
  -6  10   0  510.19   26.39
  -6  10   0  539.37   27.49
   6 -10   0  495.30   25.80
   6 -10   0  511.88   26.14
  -6  10  -1  522.45   26.65
  -6  10  -1  515.43   26.90
   6 -10   1  489.97   24.96
   6 -10   1  479.39   25.46
  -6  10  -2  623.29   32.23
  -6  10  -2  717.61   36.38
   6 -10   2  537.59   28.34
   6 -10   2  569.57   28.85
  -6  10  -3  219.44   11.59
  -6  10  -3  221.04   12.69
   6 -10   3  220.45   11.67
   6 -10   3  217.66   12.94
  -6  10  -4   90.52    5.50
  -6  10  -4   80.62    7.36
   6 -10   4   81.97    5.08
   6 -10   4   86.12    7.78
  -6  10  -5   81.97    5.08
  -6  10  -5   91.11    7.70
   6 -10   5   77.15    4.82
   6 -10   5   85.36    7.70
  -6  10  -6  192.37   12.27
  -6  10  -6  182.47    9.81
   6 -10   6  170.96    9.22
   6 -10   6  168.68   11.59
  -6   9  10  300.48   15.57
  -6   9  10  319.85   17.68
   6  -9 -10  310.12   16.07
   6  -9 -10  316.63   17.60
  -6   9   9   24.28    3.05
  -6   9   9   12.10    5.50
   6  -9  -9   24.62    5.92
   6  -9  -9   23.09    3.21
  -6   9   8   86.96    5.33
  -6   9   8   79.01    7.11
   6  -9  -8  103.63    7.78
   6  -9  -8  108.96    6.51
  -6   9   7  188.39   10.07
  -6   9   7  186.95   11.00
   6  -9  -7  189.15   10.32
   6  -9  -7  178.32   10.83
  -6   9   6  209.45   11.17
  -6   9   6  213.77   12.27
   6  -9  -6  214.02   12.35
   6  -9  -6  208.27   11.25
  -6   9   5  302.68   16.33
  -6   9   5  308.26   15.99
   6  -9  -5  303.35   16.33
   6  -9  -5  304.03   16.07
  -6   9   4  159.37    8.97
  -6   9   4  141.19    8.54
   6  -9  -4  152.69    8.88
   6  -9  -4  152.27    8.88
  -6   9   3  117.25    7.11
  -6   9   3  132.47    7.61
   6  -9  -3  118.60    7.36
   6  -9  -3  119.70    7.11
  -6   9   2   74.10    4.99
  -6   9   2   75.20    5.16
   6  -9  -2   76.39    5.67
   6  -9  -2   65.22    4.57
  -6   9   1   58.12    4.40
  -6   9   1   48.39    4.31
   6  -9  -1   57.19    4.23
   6  -9  -1   44.58    4.57
  -6   9   0   -0.08    2.88
  -6   9   0   -2.37    3.64
   6  -9   0    0.08    4.15
   6  -9   0   -0.59    2.79
  -6   9  -1  411.13   21.15
  -6   9  -1  384.23   20.30
   6  -9   1  383.46   19.63
   6  -9   1  374.50   20.13
  -6   9  -2  149.39    9.31
  -6   9  -2  138.82    7.61
   6  -9   2  135.18    7.44
   6  -9   2  141.10    9.73
  -6   9  -3  102.02    5.84
  -6   9  -3   94.83    6.94
   6  -9   3  100.58    5.84
   6  -9   3   97.71    7.70
  -6   9  -4   63.02    6.09
  -6   9  -4   56.09    3.89
   6  -9   4   47.54    6.43
   6  -9   4   53.89    3.72
  -6   9  -5  650.53   32.82
  -6   9  -5  658.06   33.92
   6  -9   5  609.41   30.79
   6  -9   5  646.38   33.58
  -6   9  -6  218.42   13.20
  -6   9  -6  208.35   11.00
   6  -9   6  202.18   12.60
   6  -9   6  195.75   10.32
  -6   9  -7    6.51    2.88
  -6   9  -7    6.09    6.51
   6  -9   7   10.74    2.96
   6  -9   7   11.17    6.09
  -6   9  -8  253.10   14.97
  -6   9  -8  236.44   12.52
   6  -9   8  272.65   16.16
   6  -9   8  232.55   12.35
  -6   8  12    0.59    3.13
  -6   8  12    5.33    6.43
   6  -8 -12   -1.95    3.21
   6  -8 -12    0.00    5.50
  -6   8  11    0.42    2.79
  -6   8  11    5.33    6.01
   6  -8 -11    0.51    6.18
   6  -8 -11    1.61    2.88
  -6   8  10  195.41   10.41
  -6   8  10  203.36   12.27
   6  -8 -10  211.15   11.25
   6  -8 -10  205.22   12.35
  -6   8   9  156.84    9.73
  -6   8   9  152.86    8.29
   6  -8  -9  150.07    9.81
   6  -8  -9  149.14    8.29
  -6   8   8    9.90    2.28
  -6   8   8    7.19    4.82
   6  -8  -8   -5.08    4.82
   6  -8  -8    2.20    2.62
  -6   8   7   17.93    4.40
  -6   8   7   19.79    2.45
   6  -8  -7   22.67    3.05
   6  -8  -7   22.08    4.40
  -6   8   6  275.86   14.21
  -6   8   6  259.53   14.21
   6  -8  -6  283.47   14.80
   6  -8  -6  282.21   15.31
  -6   8   5 1019.36   51.26
  -6   8   5 1004.98   50.93
   6  -8  -5 1024.43   51.60
   6  -8  -5 1050.66   53.21
  -6   8   4 1171.63   58.88
  -6   8   4 1066.73   53.89
   6  -8  -4 1153.02   58.12
   6  -8  -4 1018.51   51.52
  -6   8   3   93.05    5.58
  -6   8   3   94.41    5.92
   6  -8  -3   93.65    6.01
   6  -8  -3   92.04    5.75
  -6   8   2  189.83   10.24
  -6   8   2  187.80   10.15
   6  -8  -2  182.38   10.15
   6  -8  -2  189.83   10.24
  -6   8   1  439.63   22.50
  -6   8   1  400.38   20.64
   6  -8  -1  428.72   21.99
   6  -8  -1  372.38   19.46
  -6   8   0  702.04   35.53
  -6   8   0  634.62   32.40
   6  -8   0  657.72   33.33
   6  -8   0  588.01   30.28
  -6   8  -1  146.77    8.80
  -6   8  -1  155.57    8.37
   6  -8   1  138.48    7.53
   6  -8   1  130.53    8.54
  -6   8  -2    7.19    4.15
  -6   8  -2    3.38    2.11
   6  -8   2    5.08    4.74
   6  -8   2    1.35    1.95
  -6   8  -3   74.70    4.57
  -6   8  -3   72.33    5.50
   6  -8   3   73.00    4.40
   6  -8   3   69.71    6.09
  -6   8  -4    8.80    2.20
  -6   8  -4    3.64    4.23
   6  -8   4    8.63    2.11
   6  -8   4    6.34    4.99
  -6   8  -5   20.13    2.79
  -6   8  -5   12.94    4.65
   6  -8   5   16.24    5.92
   6  -8   5   14.04    2.54
  -6   8  -6  153.71    9.56
  -6   8  -6  152.61    8.29
   6  -8   6  152.52    8.37
   6  -8   6  143.64    9.81
  -6   8  -7   14.89    6.01
  -6   8  -7   10.91    3.05
   6  -8   7    6.51    6.26
   6  -8   7   14.63    3.05
  -6   8  -8   19.54    3.47
  -6   8  -8   10.74    6.68
   6  -8   8   18.86    3.72
   6  -8   8   25.12    6.77
  -6   8  -9  290.24   16.83
  -6   8  -9  322.73   16.92
   6  -8   9  317.82   16.58
   6  -8   9  310.04   17.76
  -6   7  13  238.30   12.77
  -6   7  13  228.23   13.54
  -6   7  12  239.99   14.13
  -6   7  12  221.89   11.93
  -6   7  11   99.99    5.92
  -6   7  11  101.17    7.70
  -6   7  10  197.27   11.67
  -6   7  10  199.64   10.57
   6  -7 -10  210.13   12.44
   6  -7 -10  203.79   10.91
  -6   7   9   36.04    5.24
  -6   7   9   40.27    3.13
   6  -7  -9   40.44    5.75
   6  -7  -9   44.07    3.64
  -6   7   8   37.39    2.88
  -6   7   8   33.16    4.91
   6  -7  -8   41.70    5.33
   6  -7  -8   44.07    3.47
  -6   7   7  159.63    8.46
  -6   7   7  172.49   10.15
   6  -7  -7  167.67    9.98
   6  -7  -7  164.87    8.88
  -6   7   6   54.31    4.99
  -6   7   6   53.55    3.47
   6  -7  -6   62.18    5.33
   6  -7  -6   55.24    3.89
  -6   7   5   96.52    6.60
  -6   7   5  106.67    6.01
   6  -7  -5  104.64    6.85
   6  -7  -5  105.74    6.18
  -6   7   4  977.06   49.74
  -6   7   4  874.70   44.07
   6  -7  -4  800.00   40.52
   6  -7  -4  749.25   38.15
  -6   7   3  194.48   10.74
  -6   7   3  210.89   11.25
   6  -7  -3  197.78   10.74
   6  -7  -3  199.56   10.91
  -6   7   2    1.61    2.71
  -6   7   2    7.11    2.45
   6  -7  -2    5.33    2.37
   6  -7  -2    5.08    2.79
  -6   7   1    3.81    2.71
   6  -7  -1    4.40    2.37
   6  -7  -1    4.74    3.05
   6  -7   0  691.39   35.53
   6  -7   0  749.50   37.90
  -6   7  -1  929.69   46.78
  -6   7  -1  866.24   44.07
   6  -7   1  895.85   45.77
  -6   7  -2  369.34   19.37
  -6   7  -2  370.94   18.95
   6  -7   2  353.43   18.86
   6  -7   2  334.23   17.09
  -6   7  -3   16.33    3.64
  -6   7  -3   17.85    2.28
   6  -7   3   17.26    2.11
   6  -7   3   17.85    4.57
  -6   7  -4   11.34    2.28
  -6   7  -4   16.33    4.15
   6  -7   4   16.07    4.91
   6  -7   4   15.73    2.28
  -6   7  -5    3.47    4.48
  -6   7  -5    4.15    2.37
   6  -7   5    9.56    4.99
   6  -7   5    4.57    2.28
  -6   7  -6 1084.49   55.07
  -6   7  -6 1241.84   62.43
   6  -7   6 1206.31   60.57
   6  -7   6 1136.94   57.86
  -6   7  -7   83.07    5.41
  -6   7  -7   84.17    7.19
   6  -7   7   66.41    7.19
   6  -7   7   74.78    5.24
  -6   7  -8   -1.95    5.41
  -6   7  -8    8.97    3.47
   6  -7   8    1.86    5.75
   6  -7   8   -3.38    3.38
   6  -7   9   71.48    5.24
   6  -7   9   70.30    7.36
  -6   7 -10   36.88    6.85
  -6   7 -10   37.05    4.23
   6  -7  10   35.36    4.15
   6  -7  10   27.58    6.85
  -6   6  14   65.73    5.50
  -6   6  14   53.55    6.85
   6  -6 -14   66.49    7.28
   6  -6 -14   75.54    5.84
  -6   6  13   11.67    3.81
  -6   6  13   13.11    5.58
   6  -6 -13   22.25    5.84
   6  -6 -13   11.50    3.47
  -6   6  12  188.14   10.32
  -6   6  12  198.54   11.93
   6  -6 -12  187.71   10.41
   6  -6 -12  207.42   12.44
  -6   6  11  305.30   16.58
  -6   6  11  300.73   15.65
   6  -6 -11  306.99   16.83
   6  -6 -11  340.66   17.76
  -6   6  10  573.97   29.10
  -6   6  10  536.83   27.92
   6  -6 -10  563.31   29.27
   6  -6 -10  651.63   33.08
  -6   6   9   82.73    4.91
  -6   6   9   81.38    6.68
   6  -6  -9   86.54    6.94
   6  -6  -9   97.20    6.01
  -6   6   8   34.77    2.79
  -6   6   8   36.63    4.82
   6  -6  -8   29.95    2.79
   6  -6  -8   37.39    4.82
  -6   6   7  261.99   13.45
  -6   6   7  267.15   14.63
   6  -6  -7  261.56   14.47
   6  -6  -7  265.71   13.79
  -6   6   6 1075.19   54.48
   6  -6  -6 1114.95   56.09
   6  -6  -6 1070.96   54.31
  -6   6   5  330.93   17.51
  -6   6   5  310.63   15.90
   6  -6  -5  292.02   15.06
   6  -6  -5  314.86   16.66
  -6   6   4   49.66    3.47
  -6   6   4   51.77    4.31
   6  -6  -4   48.73    3.55
   6  -6  -4   43.48    4.15
  -6   6   3    4.82    2.62
  -6   6   3    3.13    2.11
   6  -6  -3    3.30    2.37
   6  -6  -3    4.57    2.37
  -6   6   2  361.89   18.53
  -6   6   2  340.07   17.43
   6  -6  -2  327.12   16.92
   6  -6  -2  341.51   17.51
  -6   6   1  336.77   17.43
  -6   6   1  327.63   16.83
   6  -6  -1  308.34   16.07
   6  -6  -1  313.76   16.07
  -6   6   0    3.30    3.13
  -6   6   0   13.20    2.37
   6  -6   0    1.44    2.96
   6  -6   0    0.42    1.69
  -6   6  -1  106.42    6.51
  -6   6  -1  107.52    5.84
   6  -6   1  110.40    7.11
   6  -6   1  100.92    5.50
  -6   6  -2    6.18    3.13
  -6   6  -2    4.82    1.78
   6  -6   2    6.43    3.55
   6  -6   2    5.41    1.61
  -6   6  -3  156.33    9.31
  -6   6  -3  141.27    7.61
   6  -6   3  133.74    7.28
  -6   6  -4    5.67    2.37
  -6   6  -4    4.06    3.89
   6  -6   4    5.41    4.48
   6  -6   4    1.35    2.37
  -6   6  -5   83.33    6.43
  -6   6  -5  101.51    6.09
   6  -6   5   88.74    5.41
   6  -6   5   93.14    6.94
  -6   6  -6  514.67   26.22
  -6   6  -6  455.03   23.86
   6  -6   6  469.16   23.94
   6  -6   6  412.40   21.99
  -6   6  -7  725.56   36.71
  -6   6  -7  699.34   35.87
   6  -6   7  689.10   35.70
   6  -6   7  690.12   34.94
  -6   6  -8  134.17    7.61
  -6   6  -8  146.09    9.31
   6  -6   8  132.05    7.53
   6  -6   8  114.12    8.37
  -6   6  -9    7.28    5.58
  -6   6  -9    9.64    3.13
   6  -6   9    1.35    6.18
   6  -6   9    3.21    3.30
  -6   6 -10  181.20   10.07
  -6   6 -10  206.83   12.86
   6  -6  10  173.76    9.64
   6  -6  10  169.78   11.08
  -6   6 -11  296.33   17.43
  -6   6 -11  260.89   14.13
   6  -6  11  283.90   16.58
   6  -6  11  255.73   13.79
  -6   5  15   -1.44    6.85
  -6   5  15    9.56    4.23
   6  -5 -15    4.48    6.43
   6  -5 -15    7.44    4.40
  -6   5  14   54.65    6.68
  -6   5  14   48.39    4.48
   6  -5 -14   53.21    4.65
   6  -5 -14   44.83    6.68
  -6   5  13   96.86    7.70
  -6   5  13   89.84    5.75
   6  -5 -13  103.12    7.95
   6  -5 -13   97.88    6.43
  -6   5  12    6.34    4.82
  -6   5  12   17.26    3.13
   6  -5 -12    5.41    5.24
   6  -5 -12    8.04    3.13
  -6   5  11    1.61    2.71
  -6   5  11    0.93    4.40
   6  -5 -11    4.23    4.65
   6  -5 -11    4.57    2.96
  -6   5  10  966.06   48.64
  -6   5  10  926.30   47.12
   6  -5 -10  938.15   47.71
   6  -5 -10  985.52   49.74
  -6   5   9   80.03    4.91
  -6   5   9   71.48    6.09
   6  -5  -9   79.86    5.16
   6  -5  -9   76.13    6.01
  -6   5   8   88.32    5.16
  -6   5   8   85.69    6.77
   6  -5  -8   97.54    6.09
   6  -5  -8   88.57    6.94
  -6   5   7   33.92    4.40
  -6   5   7   32.15    2.54
   6  -5  -7   28.25    2.45
   6  -5  -7   28.59    4.31
  -6   5   6  857.78   43.57
  -6   5   6  784.35   39.42
   6  -5  -6  873.01   44.33
   6  -5  -6  787.65   39.59
  -6   5   5   30.62    2.20
  -6   5   5   29.35    3.38
   6  -5  -5   30.20    3.21
   6  -5  -5   29.02    2.20
  -6   5   4  495.21   25.04
  -6   5   4  470.68   24.11
   6  -5  -4  439.38   22.50
   6  -5  -4  448.43   22.76
  -6   5   3    3.30    1.61
  -6   5   3    4.57    2.28
   6  -5  -3    4.40    2.11
   6  -5  -3    3.05    1.78
  -6   5   2  508.07   25.72
  -6   5   2  503.93   25.46
   6  -5  -2  500.20   25.29
   6  -5  -2  462.90   23.52
  -6   5   1   12.60    2.54
  -6   5   1    8.04    1.69
   6  -5  -1    7.70    1.61
   6  -5  -1    7.36    2.45
   6  -5   0  575.49   29.02
   6  -5   0  618.72   31.47
  -6   5  -1  238.47   12.60
  -6   5  -1  256.15   13.11
   6  -5   1  233.31   11.93
   6  -5   1  242.36   12.86
  -6   5  -2  400.04   20.73
  -6   5  -2  393.53   19.96
   6  -5   2  363.75   18.44
   6  -5   2  362.65   18.95
  -6   5  -3  115.72    7.28
  -6   5  -3  116.99    6.43
   6  -5   3  109.04    6.94
   6  -5   3  113.61    6.26
  -6   5  -4   28.42    4.15
  -6   5  -4   31.55    3.05
   6  -5   4   33.58    3.05
   6  -5   4   21.23    4.06
  -6   5  -5   15.14    3.89
  -6   5  -5   16.07    2.79
   6  -5   5   18.78    4.48
  -6   5  -6  136.11    7.53
  -6   5  -6  146.60    8.97
   6  -5   6  128.75    7.28
   6  -5   6  130.19    8.46
  -6   5  -7  104.22    6.18
  -6   5  -7  121.48    8.04
   6  -5   7  107.52    7.95
   6  -5   7   87.89    5.41
  -6   5  -8  195.92   10.57
  -6   5  -8  206.75   12.10
   6  -5   8  197.61   11.84
   6  -5   8  174.94    9.64
  -6   5  -9  124.18    8.71
  -6   5  -9  117.67    6.94
   6  -5   9  113.36    6.85
   6  -5   9  135.43    9.56
  -6   5 -10   15.99    6.43
  -6   5 -10    8.88    3.47
   6  -5  10   11.59    3.72
   6  -5  10   14.38    6.43
   6  -5  11  340.74   19.12
   6  -5  11  299.21   15.90
  -6   4  15  166.90   10.91
  -6   4  15  150.83    8.88
   6  -4 -15  167.92   10.83
   6  -4 -15  146.09    8.54
  -6   4  14  186.70   11.34
  -6   4  14  174.52    9.90
   6  -4 -14  171.89    9.73
   6  -4 -14  173.50   10.91
  -6   4  13  304.37   15.90
  -6   4  13  326.36   17.68
   6  -4 -13  294.05   15.57
   6  -4 -13  320.44   17.43
  -6   4  12  166.82    9.14
  -6   4  12  192.20   11.25
   6  -4 -12  166.90    9.39
   6  -4 -12  200.15   11.67
  -6   4  11  324.76   16.83
  -6   4  11  354.79   18.95
   6  -4 -11  326.87   17.09
   6  -4 -11  323.91   17.51
  -6   4  10   98.38    5.75
  -6   4  10   96.10    6.85
   6  -4 -10   85.95    5.41
   6  -4 -10   99.57    7.02
  -6   4   9  811.17   40.94
  -6   4   9  832.15   42.47
   6  -4  -9  841.71   43.06
   6  -4  -9  829.70   41.96
  -6   4   8  237.20   12.44
  -6   4   8  218.25   12.18
   6  -4  -8  224.60   11.84
   6  -4  -8  220.45   12.18
  -6   4   7  213.01   11.67
  -6   4   7  224.09   11.59
  -6   4   6   11.25    3.05
  -6   4   6    5.84    1.27
   6  -4  -6    7.53    2.71
   6  -4  -6    7.02    1.44
  -6   4   5  276.79   14.04
  -6   4   5  304.54   15.90
   6  -4  -5  277.72   14.13
   6  -4  -5  310.97   16.16
  -6   4   4   90.01    5.33
  -6   4   4  105.49    5.58
   6  -4  -4   85.36    5.08
   6  -4  -4   88.06    4.74
  -6   4   3  660.85   33.25
  -6   4   3  681.07   34.43
   6  -4  -3  671.84   33.92
   6  -4  -3  648.67   32.65
  -6   4   2   80.79    4.65
  -6   4   2   83.16    4.65
   6  -4  -2   76.73    4.40
   6  -4  -2   70.38    3.98
  -6   4   1  966.91   48.64
  -6   4   1  959.29   48.13
   6  -4  -1  970.29   48.73
   6  -4  -1  999.05   50.25
   6  -4   0   70.64    3.81
   6  -4   0   69.37    4.23
  -6   4  -1 1661.42   83.41
  -6   4  -1 1583.60   79.35
   6  -4   1 1636.05   82.14
   6  -4   1 1551.45   77.66
  -6   4  -2  680.64   34.26
  -6   4  -2  629.21   31.98
   6  -4   2  598.33   30.45
   6  -4   2  636.99   32.06
  -6   4  -3  364.68   18.61
  -6   4  -3  326.28   17.00
   6  -4   3  340.32   17.76
   6  -4   3  351.66   17.93
  -6   4  -4  560.77   28.76
  -6   4  -4  551.13   27.92
   6  -4   4  512.89   25.97
   6  -4   4  521.94   26.90
  -6   4  -5  450.38   23.01
  -6   4  -5  469.50   24.45
   6  -4   5  435.32   22.25
   6  -4   5  435.24   22.76
  -6   4  -6 1003.28   50.59
  -6   4  -6 1020.20   51.77
   6  -4   6  899.23   45.43
   6  -4   6  958.45   48.81
  -6   4  -7  148.46    9.22
  -6   4  -7  144.49    8.21
   6  -4   7  144.49    9.22
   6  -4   7  129.17    7.61
  -6   4  -8    1.35    3.47
  -6   4  -8    8.37    4.65
   6  -4   8    6.01    3.47
   6  -4   8    7.19    5.16
  -6   4  -9   65.81    5.41
  -6   4  -9   57.02    6.51
   6  -4   9   68.44    6.94
   6  -4   9   61.08    5.24
  -6   4 -10   41.45    6.34
  -6   4 -10   53.12    5.24
   6  -4  10   45.43    6.85
   6  -4  10   58.62    5.24
  -6   4 -11    1.86    4.82
  -6   4 -11    7.53    6.43
   6  -4  11    7.53    4.65
   6  -4  11    1.78    6.18
  -6   3  15   21.66    4.74
  -6   3  15   18.36    5.67
   6  -3 -15   16.41    5.75
   6  -3 -15   14.63    4.57
  -6   3  14  131.46    8.88
  -6   3  14  111.33    7.11
   6  -3 -14  112.59    7.61
   6  -3 -14  110.99    7.95
  -6   3  13    2.96    4.40
  -6   3  13    4.48    3.72
   6  -3 -13   -4.48    4.23
   6  -3 -13    0.59    4.65
  -6   3  12 1670.73   84.17
  -6   3  12 1607.28   80.70
   6  -3 -12 1599.67   80.53
   6  -3 -12 1616.59   81.46
  -6   3  11  244.81   13.54
  -6   3  11  228.15   12.18
   6  -3 -11  233.31   12.60
   6  -3 -11  232.46   12.94
  -6   3  10  338.88   17.51
   6  -3 -10  362.23   19.29
   6  -3 -10  354.03   18.44
  -6   3   9  796.03   40.18
  -6   3   9  846.78   43.14
   6  -3  -9  811.51   41.28
   6  -3  -9  762.28   38.57
  -6   3   8  292.78   15.57
  -6   3   8  265.62   13.70
   6  -3  -8  262.07   13.54
   6  -3  -8  271.97   14.47
  -6   3   7    5.92    1.69
  -6   3   7   11.17    2.79
   6  -3  -7    3.72    1.69
   6  -3  -7    2.20    2.28
  -6   3   6  673.96   33.92
  -6   3   6  660.76   33.50
  -6   3   5  767.61   38.74
  -6   3   5  720.32   36.12
   6  -3  -5  732.84   36.80
   6  -3  -5  759.91   38.32
  -6   3   4   47.96    3.05
  -6   3   4   55.83    3.05
   6  -3  -4   50.42    2.79
   6  -3  -4   46.95    3.05
  -6   3   3   68.86    3.72
  -6   3   3   64.55    3.55
   6  -3  -3   66.66    3.72
   6  -3  -3   63.95    3.47
   6  -3  -2  247.35   12.69
   6  -3  -2  248.03   12.69
  -6   3   1  813.79   41.54
  -6   3   1  762.11   38.91
   6  -3  -1  761.94   38.49
   6  -3  -1  746.37   37.81
   6  -3   0   34.43    1.95
   6  -3   0   33.50    2.37
  -6   3  -1  509.59   25.80
  -6   3  -1  500.03   25.12
   6  -3   1  494.79   25.12
   6  -3   1  486.67   24.45
  -6   3  -2 1317.97   66.24
  -6   3  -2 1469.40   73.68
   6  -3   2 1396.65   70.04
   6  -3   2 1293.44   65.05
  -6   3  -3    1.44    2.45
  -6   3  -3    2.11    1.52
   6  -3   3    0.59    1.52
   6  -3   3    0.85    2.37
  -6   3  -4   88.49    5.08
  -6   3  -4  100.24    6.34
   6  -3   4   93.73    5.92
   6  -3   4   92.63    5.33
  -6   3  -5   61.75    4.48
  -6   3  -5   56.93    4.91
   6  -3   5   59.47    4.99
   6  -3   5   56.68    4.15
  -6   3  -6 1648.74   83.07
  -6   3  -6 1496.47   75.29
   6  -3   6 1461.78   73.94
   6  -3   6 1449.94   73.00
  -6   3  -7 1315.44   66.32
  -6   3  -7 1247.76   63.02
   6  -3   7 1266.37   63.87
   6  -3   7 1333.20   67.51
  -6   3  -8   32.48    4.57
  -6   3  -8   32.31    4.82
   6  -3   8   28.34    5.33
   6  -3   8   31.38    4.48
  -6   3  -9   11.93    4.74
  -6   3  -9    5.75    4.48
   6  -3   9   10.07    5.08
   6  -3   9   10.07    4.48
  -6   3 -10  347.00   18.61
  -6   3 -10  358.85   19.03
   6  -3  10  333.05   18.10
   6  -3  10  345.99   18.44
  -6   3 -11  255.05   14.55
  -6   3 -11  293.03   16.07
   6  -3  11  278.40   15.40
   6  -3  11  256.32   14.55
  -6   2  16  262.75   14.55
  -6   2  16  231.45   13.20
   6  -2 -16  260.97   14.80
   6  -2 -16  270.45   15.06
  -6   2  15  146.94    9.22
  -6   2  15  166.99   10.32
   6  -2 -15  159.54   10.07
   6  -2 -15  152.78    9.64
  -6   2  14   -1.35    4.23
  -6   2  14    7.95    4.48
   6  -2 -14    3.55    4.65
   6  -2 -14   12.44    5.16
  -6   2  13  109.30    7.36
  -6   2  13   95.51    6.51
   6  -2 -13  106.17    7.44
   6  -2 -13  100.50    7.28
  -6   2  12   17.60    3.64
  -6   2  12   14.55    4.31
   6  -2 -12   15.14    4.40
   6  -2 -12   16.75    4.15
  -6   2  11  412.40   21.40
  -6   2  11  413.33   21.66
   6  -2 -11  388.29   20.39
   6  -2 -11  369.93   19.63
  -6   2  10  145.92    8.88
   6  -2 -10  126.55    7.95
  -6   2   9    5.50    3.30
  -6   2   9    5.33    2.54
   6  -2  -9    4.82    2.62
   6  -2  -9    8.88    3.21
  -6   2   8  832.91   42.21
  -6   2   8  816.25   41.11
   6  -2  -8  827.67   41.79
   6  -2  -8  802.63   40.69
  -6   2   7 1030.35   51.69
  -6   2   7 1070.11   53.97
   6  -2  -7 1094.65   55.16
   6  -2  -7 1036.28   52.11
  -6   2   6  547.32   27.58
  -6   2   6  537.51   27.24
   6  -2  -6  557.47   28.25
   6  -2  -6  530.15   26.73
  -6   2   5 1170.78   58.88
  -6   2   5 1176.70   59.05
   6  -2  -5 1186.85   59.64
   6  -2  -5 1421.18   71.31
  -6   2  -1   28.68    1.95
  -6   2  -1   25.29    1.61
   6  -2   1   27.32    1.95
   6  -2   1   29.10    1.78
  -6   2  -2   -0.17    1.61
  -6   2  -2    2.71    1.27
   6  -2   2    2.03    1.27
   6  -2   2    1.44    1.69
  -6   2  -3  329.58   16.92
  -6   2  -3  364.52   18.61
   6  -2   3  346.50   17.76
   6  -2   3  339.48   17.43
  -6   2  -4  850.17   42.97
  -6   2  -4  765.66   38.74
   6  -2   4  760.58   38.49
   6  -2   4  843.40   42.64
  -6   2  -5   67.34    4.99
  -6   2  -5   58.88    4.48
   6  -2   5   61.42    4.74
   6  -2   5   54.65    4.31
  -6   2  -6   74.36    5.67
  -6   2  -6   60.32    4.82
   6  -2   6   63.11    5.33
   6  -2   6   73.51    5.41
  -6   2  -7  356.82   18.70
  -6   2  -7  388.46   20.30
   6  -2   7  380.76   19.88
   6  -2   7  354.96   18.78
  -6   2  -8  391.84   20.56
  -6   2  -8  374.41   19.63
   6  -2   8  351.49   18.70
   6  -2   8  355.29   18.61
  -6   2  -9  222.48   12.52
  -6   2  -9  211.23   12.01
   6  -2   9  200.32   11.76
   6  -2   9  215.80   12.01
  -6   2 -10  117.67    7.95
  -6   2 -10  114.03    7.95
   6  -2  10  105.49    7.44
   6  -2  10  103.97    7.78
  -6   2 -11  411.21   21.83
  -6   2 -11  400.55   21.40
   6  -2  11  379.83   20.39
   6  -2  11  388.54   20.56
  -6   1  16    7.95    5.41
  -6   1  16    9.39    4.82
   6  -1 -16   -0.59    5.58
   6  -1 -16   -2.28    4.48
  -6   1  15  166.14   10.15
  -6   1  15  172.40   10.15
   6  -1 -15  170.20   10.57
   6  -1 -15  170.03   10.32
  -6   1  14  148.29    9.14
  -6   1  14  131.12    8.21
   6  -1 -14  139.50    8.80
   6  -1 -14  147.79    9.39
  -6   1  13   91.45    6.43
  -6   1  13   99.23    6.77
   6  -1 -13   99.14    7.19
   6  -1 -13  100.75    6.94
  -6   1  12  187.71   10.57
  -6   1  12  188.22   10.66
   6  -1 -12  184.16   10.49
   6  -1 -12  192.54   11.08
  -6   1  11  182.72   10.41
  -6   1  11  189.57   10.57
   6  -1 -11  188.81   10.66
   6  -1 -11  184.08   10.49
  -6   1  10    5.16    3.21
  -6   1  10    4.31    2.96
   6  -1 -10    4.06    3.21
   6  -1 -10    4.23    3.13
  -6   1   9    8.97    2.79
  -6   1   9    5.58    2.54
   6  -1  -9   12.52    2.96
   6  -1  -9   13.37    2.88
  -6   1   8   30.62    3.05
  -6   1   8   30.88    3.05
   6  -1  -8   26.14    2.71
   6  -1  -8   23.09    2.71
  -6   1   7  203.70   10.66
  -6   1   7  192.45   10.24
   6  -1  -7  174.77    9.31
   6  -1  -7  199.81   10.49
  -6   1   6  359.95   18.36
  -6   1   6  332.28   16.83
   6  -1  -6  343.20   17.43
   6  -1  -6  349.71   17.76
  -6   1   5  125.54    6.43
  -6   1   5  124.27    6.43
   6  -1  -5  111.83    5.75
   6  -1  -5  106.42    5.50
   6  -1   1 3876.09  194.82
   6  -1   1 3953.07  198.71
  -6   1  -2    7.53    1.78
  -6   1  -2    8.46    1.35
   6  -1   2    5.84    1.44
   6  -1   2    6.94    1.78
  -6   1  -3  133.49    7.19
  -6   1  -3  116.99    6.51
   6  -1   3  108.53    6.09
   6  -1   3  117.92    6.51
  -6   1  -4  711.43   36.04
  -6   1  -4  776.32   39.25
   6  -1   4  703.06   35.61
   6  -1   4  785.12   39.67
  -6   1  -5  920.38   46.61
  -6   1  -5  995.67   50.25
   6  -1   5  898.39   45.43
   6  -1   5  960.99   48.56
  -6   1  -6   50.08    4.82
  -6   1  -6   66.83    5.16
   6  -1   6   54.39    4.82
  -6   1  -7  382.03   19.88
  -6   1  -7  351.83   18.44
   6  -1   7  351.91   18.61
   6  -1   7  320.86   17.00
  -6   1  -8   50.16    5.08
  -6   1  -8   43.74    4.82
   6  -1   8   48.39    5.08
   6  -1   8   46.44    4.74
  -6   1  -9  445.30   23.26
  -6   1  -9  395.22   20.81
   6  -1   9  422.97   22.33
   6  -1   9  369.25   19.54
  -6   1 -10   13.03    4.65
  -6   1 -10    3.98    4.74
   6  -1  10   14.04    4.99
   6  -1  10    4.99    4.48
  -6   1 -11    9.22    5.16
  -6   1 -11    6.09    5.33
   6  -1  11    6.51    4.91
   6  -1  11    9.98    4.99
  -6   0  16   82.90    7.28
  -6   0  16   97.62    7.53
   6   0 -16   96.35    7.70
   6   0 -16   92.38    7.53
  -6   0  15    5.75    5.08
  -6   0  15   13.37    5.16
   6   0 -15   11.67    5.33
   6   0 -15   14.97    5.75
  -6   0  14   74.95    6.26
  -6   0  14   60.32    5.84
   6   0 -14   57.69    5.67
   6   0 -14   60.57    6.18
  -6   0  13   83.07    6.43
  -6   0  13   82.23    6.43
   6   0 -13   90.01    6.51
   6   0 -13   90.18    7.11
  -6   0  12  458.41   23.77
  -6   0  12  435.07   22.67
   6   0 -12  435.49   22.59
   6   0 -12  413.16   21.83
  -6   0  11  637.42   32.57
  -6   0  11  600.87   30.88
   6   0 -11  620.58   31.81
   6   0 -11  606.88   31.30
  -6   0  10  355.55   18.78
  -6   0  10  398.44   20.73
   6   0 -10  373.06   19.46
   6   0 -10  358.34   18.95
  -6   0   9  140.76    8.04
  -6   0   9  133.57    7.78
   6   0  -9  137.97    7.95
   6   0  -9  123.68    7.44
  -6   0   8  705.94   35.78
  -6   0   8  662.37   33.67
   6   0  -8  705.01   35.61
   6   0  -8  623.12   31.72
  -6   0   7  367.73   18.86
  -6   0   7  345.31   17.60
   6   0  -7  363.92   18.70
   6   0  -7  373.23   19.03
  -6   0   6 2365.25  118.60
  -6   0   6 2459.15  123.17
   6   0  -6 2271.35  113.78
   6   0  -6 2274.73  114.03
  -6   0   5   14.21    1.35
  -6   0   5   11.59    0.85
   6   0  -5   13.20    1.44
   6   0  -5   12.35    1.02
  -6   0  -1  128.08    6.77
  -6   0  -1  125.88    6.43
   6   0   1  126.89    6.77
   6   0   1  114.54    5.92
  -6   0  -2 1572.60   78.84
  -6   0  -2 1440.63   72.41
   6   0   2 1420.33   71.31
   6   0   2 1376.34   69.03
  -6   0  -3  135.60    7.70
  -6   0  -3  131.04    6.94
   6   0   3  133.07    7.53
   6   0   3  121.98    6.51
  -6   0  -4  200.23   10.49
  -6   0  -4  232.72   12.60
   6   0   4  208.69   10.91
   6   0   4  219.61   11.93
  -6   0  -5  188.73   10.15
  -6   0  -5  208.19   11.67
   6   0   5  189.91   10.66
   6   0   5  186.44   10.07
  -6   0  -6  991.44   49.99
  -6   0  -6 1032.89   52.45
   6   0   6 1007.51   51.01
   6   0   6 1023.59   52.03
  -6   0  -7   47.46    5.16
  -6   0  -7   56.00    4.65
   6   0   7   47.88    4.48
   6   0   7   45.09    5.08
  -6   0  -8  152.18    8.97
  -6   0  -8  142.63    8.97
   6   0   8  141.69    8.88
   6   0   8  145.76    8.71
  -6   0  -9   10.15    5.41
  -6   0  -9    5.16    4.06
   6   0   9    6.77    4.40
   6   0   9    3.05    4.06
  -6   0 -10  307.58   16.41
  -6   0 -10  304.62   16.83
   6   0  10  264.02   14.72
   6   0  10  264.78   14.63
  -6   0 -11   40.94    6.34
  -6   0 -11   51.09    5.92
   6   0  11   37.90    5.75
   6   0  11   48.22    5.50
  -6  -1  16   49.32    6.94
  -6  -1  16   32.48    5.92
   6   1 -16   28.25    6.26
   6   1 -16   36.97    5.67
  -6  -1  15   29.27    5.41
  -6  -1  15   26.90    6.09
   6   1 -15   32.65    5.67
   6   1 -15   21.83    5.92
  -6  -1  14   37.64    5.16
  -6  -1  14   46.53    6.09
   6   1 -14   45.00    5.24
   6   1 -14   33.58    6.09
  -6  -1  13  188.98   10.91
  -6  -1  13  197.44   11.67
   6   1 -13  201.33   12.27
   6   1 -13  209.62   11.84
  -6  -1  12    5.08    3.89
  -6  -1  12    5.41    4.48
   6   1 -12    9.39    3.81
   6   1 -12    4.31    5.16
  -6  -1  11  430.75   22.50
  -6  -1  11  443.19   22.84
   6   1 -11  433.71   22.42
   6   1 -11  430.24   22.84
  -6  -1  10  297.35   15.65
   6   1 -10  324.50   17.60
   6   1 -10  301.92   15.90
  -6  -1   9  517.12   26.65
  -6  -1   9  482.69   24.62
   6   1  -9  502.06   25.63
   6   1  -9  498.60   25.80
  -6  -1   8   43.57    3.13
  -6  -1   8   51.69    4.31
   6   1  -8   45.68    4.31
   6   1  -8   41.87    2.96
  -6  -1   7  243.38   12.86
  -6  -1   7  255.81   13.11
   6   1  -7  236.61   12.18
   6   1  -7  223.33   12.01
  -6  -1   6 1714.72   86.12
  -6  -1   6 1773.09   88.82
   6   1  -6 1849.22   92.63
   6   1  -6 1644.51   82.56
  -6  -1   5 2599.57  130.36
  -6  -1   5 2622.41  131.37
   6   1  -5 2579.27  129.17
   6   1  -5 2687.55  134.76
   6   1  -4    8.80    1.10
   6   1  -4   11.00    1.61
   6   1  -3   10.57    1.27
   6   1  -3   11.59    1.35
   6   1  -2   70.81    3.89
   6   1  -2   72.67    3.89
  -6  -1   1 4780.40  241.01
  -6  -1   1 4376.04  220.71
   6   1  -1 4509.70  226.63
   6   1  -1 4469.10  224.60
  -6  -1   0  145.33    7.53
  -6  -1   0  131.88    7.11
   6   1   0  138.06    7.11
   6   1   0  122.83    6.68
  -6  -1  -1   16.24    1.35
  -6  -1  -1   15.14    2.37
   6   1   1   12.69    1.27
   6   1   1   13.96    2.37
  -6  -1  -2  251.50   12.77
  -6  -1  -2  237.54   12.60
   6   1   2  218.51   11.17
   6   1   2  220.71   11.67
  -6  -1  -3  187.38   10.41
  -6  -1  -3  223.92   11.59
   6   1   3  171.47    8.97
   6   1   3  172.23    9.56
  -6  -1  -4  107.94    7.02
  -6  -1  -4  114.20    6.34
   6   1   4  106.00    6.01
   6   1   4  111.92    7.02
  -6  -1  -5   56.85    5.41
  -6  -1  -5   51.43    3.72
   6   1   5   41.37    3.38
   6   1   5   50.25    4.99
  -6  -1  -6   31.13    3.13
  -6  -1  -6   34.94    5.08
   6   1   6   33.67    3.55
   6   1   6   36.88    5.08
  -6  -1  -7  421.45   22.25
  -6  -1  -7  369.93   19.03
   6   1   7  421.36   22.25
   6   1   7  355.29   18.44
  -6  -1  -8   23.86    5.24
  -6  -1  -8   20.05    3.21
   6   1   8   25.63    4.99
   6   1   8   13.96    3.64
  -6  -1  -9    3.98    3.55
  -6  -1  -9   12.52    5.50
   6   1   9    7.87    3.89
   6   1   9   12.44    5.58
  -6  -1 -10  191.86   10.74
  -6  -1 -10  232.04   13.79
   6   1  10  202.18   11.42
   6   1  10  215.38   12.69
  -6  -2  15   19.20    6.85
  -6  -2  15   16.07    4.40
   6   2 -15    3.72    6.51
   6   2 -15   16.16    4.57
  -6  -2  14  159.88    9.31
  -6  -2  14  161.83   10.41
   6   2 -14  168.60   11.17
   6   2 -14  169.19    9.90
  -6  -2  13  194.65   10.74
  -6  -2  13  208.95   12.52
   6   2 -13  205.56   12.52
   6   2 -13  223.07   12.18
  -6  -2  12  551.98   28.17
  -6  -2  12  607.05   31.38
   6   2 -12  602.90   31.55
   6   2 -12  566.53   28.93
  -6  -2  11   55.41    5.58
  -6  -2  11   52.96    4.06
   6   2 -11   56.85    6.34
   6   2 -11   59.13    4.40
  -6  -2  10    8.97    3.81
  -6  -2  10   10.66    2.88
   6   2 -10    3.89    4.65
   6   2 -10    8.88    2.71
  -6  -2   9   41.79    4.82
  -6  -2   9   52.11    3.72
   6   2  -9   44.41    3.38
   6   2  -9   49.40    4.91
  -6  -2   8  666.52   33.67
  -6  -2   8  596.39   30.54
   6   2  -8  597.06   30.62
   6   2  -8  615.51   31.13
  -6  -2   7  318.92   16.75
  -6  -2   7  348.44   17.76
   6   2  -7  346.75   17.68
   6   2  -7  337.87   17.68
  -6  -2   6  389.81   20.13
  -6  -2   6  367.73   18.61
   6   2  -6  377.88   19.12
   6   2  -6  371.54   19.29
  -6  -2   5  206.92   11.00
  -6  -2   5  188.81    9.64
   6   2  -5  187.97    9.64
   6   2  -5  211.74   11.25
  -6  -2   4  116.99    6.26
  -6  -2   4  118.18    6.60
   6   2  -4  108.45    6.18
   6   2  -4  118.52    6.26
  -6  -2   3   52.11    3.47
  -6  -2   3   46.27    2.88
   6   2  -3   45.51    3.21
   6   2  -3   40.69    2.71
  -6  -2   2  141.61    7.61
  -6  -2   2  136.70    7.36
   6   2  -2  127.06    6.85
   6   2  -2  132.39    7.11
  -6  -2   1  146.52    7.70
  -6  -2   1  159.54    8.54
   6   2  -1  137.47    7.19
   6   2  -1  145.67    7.78
  -6  -2   0 2018.41  101.34
  -6  -2   0 2022.64  101.34
   6   2   0 1943.97   97.37
   6   2   0 1898.29   95.25
  -6  -2  -1   13.87    1.61
  -6  -2  -1   18.53    3.13
  -6  -2  -2    9.81    3.30
  -6  -2  -2    8.12    1.61
   6   2   2   10.57    3.05
   6   2   2    6.01    1.52
  -6  -2  -3  128.08    7.95
  -6  -2  -3  137.72    7.28
   6   2   3  123.68    7.44
   6   2   3  132.98    7.11
  -6  -2  -4  407.91   20.89
  -6  -2  -4  351.06   18.78
   6   2   4  314.94   16.83
   6   2   4  338.04   17.34
  -6  -2  -5  140.26    7.78
  -6  -2  -5  150.49    9.56
  -6  -2  -6  267.40   13.96
  -6  -2  -6  261.65   14.47
   6   2   6  243.55   13.62
   6   2   6  253.53   13.45
  -6  -2  -7   64.21    6.34
  -6  -2  -7   57.27    4.31
   6   2   7   57.61    4.40
   6   2   7   64.12    6.18
  -6  -2  -8  243.04   12.86
  -6  -2  -8  242.19   14.04
   6   2   8  233.06   12.52
   6   2   8  245.41   13.96
  -6  -2  -9   19.63    3.81
  -6  -2  -9   26.39    6.34
   6   2   9   18.19    3.98
   6   2   9   16.16    5.84
  -6  -2 -10   45.26    7.78
  -6  -2 -10   43.99    4.65
   6   2  10   29.18    6.85
   6   2  10   39.76    4.57
  -6  -3  15  135.27   10.66
  -6  -3  15  120.04    7.70
   6   3 -15  130.44    7.95
   6   3 -15  148.55   10.91
  -6  -3  14   29.95    4.06
  -6  -3  14   26.31    6.51
   6   3 -14   36.04    7.36
   6   3 -14   24.19    3.81
  -6  -3  13  181.20    9.90
  -6  -3  13  200.40   12.10
   6   3 -13  190.67   12.01
   6   3 -13  181.12    9.98
  -6  -3  12  223.33   12.94
  -6  -3  12  203.03   10.91
   6   3 -12  220.79   13.20
   6   3 -12  211.32   11.34
  -6  -3  11  376.19   19.37
  -6  -3  11  395.22   20.98
   6   3 -11  384.48   20.73
   6   3 -11  377.97   19.46
  -6  -3  10  141.27    7.87
  -6  -3  10  142.71    8.97
   6   3 -10  129.51    7.28
   6   3 -10  135.27    9.05
  -6  -3   9  224.17   12.52
   6   3  -9  265.03   14.89
   6   3  -9  295.74   15.40
  -6  -3   8   15.57    2.45
  -6  -3   8   11.93    3.89
   6   3  -8   13.96    4.31
   6   3  -8   10.83    2.37
  -6  -3   7  949.99   47.71
  -6  -3   7  983.83   49.91
   6   3  -7  947.45   47.54
   6   3  -7 1002.44   50.84
  -6  -3   6  280.34   14.97
  -6  -3   6  245.66   12.60
   6   3  -6  257.42   13.87
   6   3  -6  253.19   12.94
  -6  -3   5   -0.59    1.44
  -6  -3   5   -1.44    2.88
   6   3  -5    3.21    2.79
   6   3  -5    0.76    1.35
  -6  -3   4    5.41    1.86
  -6  -3   4    2.20    2.54
   6   3  -4    4.15    1.86
   6   3  -4    4.48    2.54
  -6  -3   3   44.07    3.81
  -6  -3   3   33.67    2.71
   6   3  -3   31.13    2.54
   6   3  -3   39.17    3.64
  -6  -3   2    3.47    2.37
  -6  -3   2    2.71    2.45
   6   3  -2    3.89    2.20
   6   3  -2    3.13    2.20
  -6  -3   1   32.31    2.71
  -6  -3   1   32.57    3.64
   6   3  -1   33.25    2.71
   6   3  -1   33.16    3.21
  -6  -3   0    9.05    2.28
  -6  -3   0   16.92    3.21
   6   3   0    7.19    2.71
   6   3   0    6.51    2.03
  -6  -3  -1  148.46    7.95
  -6  -3  -1  145.76    8.71
   6   3   1  126.72    6.85
   6   3   1  130.95    7.78
  -6  -3  -2   59.38    3.64
  -6  -3  -2   70.21    5.84
   6   3   2   55.24    3.47
   6   3   2   71.90    5.58
  -6  -3  -3    2.88    4.15
  -6  -3  -3    3.55    2.03
   6   3   3    0.00    4.23
   6   3   3    3.89    2.03
  -6  -3  -4  372.38   19.96
  -6  -3  -4  359.52   18.36
   6   3   4  332.20   17.93
   6   3   4  344.38   17.68
  -6  -3  -5  441.50   22.42
  -6  -3  -5  427.88   22.59
   6   3   5  403.01   20.64
   6   3   5  395.31   20.98
  -6  -3  -6  894.16   45.17
  -6  -3  -6  764.48   39.25
   6   3   6  694.09   35.70
   6   3   6  744.00   37.64
  -6  -3  -7  139.41    7.95
  -6  -3  -7  118.77    8.71
   6   3   7  115.72    7.02
   6   3   7  117.25    8.54
  -6  -3  -8   33.41    6.43
  -6  -3  -8   28.09    3.89
   6   3   8   23.43    5.92
   6   3   8   18.86    3.98
  -6  -3  -9  470.68   24.28
  -6  -3  -9  424.66   23.09
   6   3   9  453.25   23.35
   6   3   9  432.44   23.18
  -6  -4  14   64.21    7.61
  -6  -4  14   53.29    4.91
   6   4 -14   64.88    7.53
   6   4 -14   58.79    4.91
  -6  -4  13   32.48    3.72
  -6  -4  13   28.93    6.51
   6   4 -13   30.37    3.64
   6   4 -13   29.35    7.11
  -6  -4  12  175.96    9.81
  -6  -4  12  163.77   10.49
   6   4 -12  168.17   11.08
   6   4 -12  169.19    9.31
  -6  -4  11  123.76    8.71
  -6  -4  11  133.91    7.70
   6   4 -11  128.67    7.44
   6   4 -11  115.22    8.80
  -6  -4  10  344.21   18.53
  -6  -4  10  364.85   18.78
   6   4 -10  345.99   18.95
   6   4 -10  368.15   18.95
  -6  -4   9   24.87    4.82
  -6  -4   9   30.28    2.88
   6   4  -9   24.36    5.24
   6   4  -9   23.52    2.96
  -6  -4   8  368.91   19.63
  -6  -4   8  347.93   17.76
   6   4  -8  352.42   18.02
   6   4  -8  392.09   21.06
  -6  -4   7   74.70    6.18
  -6  -4   7   67.42    4.15
   6   4  -7   71.06    4.31
   6   4  -7   70.97    6.43
  -6  -4   6  472.63   23.94
  -6  -4   6  492.59   25.63
   6   4  -6  465.01   23.60
   6   4  -6  451.48   23.52
  -6  -4   5  118.26    6.51
  -6  -4   5  119.62    7.36
   6   4  -5  111.16    6.09
   6   4  -5   96.78    6.43
  -6  -4   4   54.56    4.91
  -6  -4   4   45.00    3.55
   6   4  -4   46.27    3.55
   6   4  -4   51.94    4.74
  -6  -4   3  397.85   20.39
  -6  -4   3  439.97   22.76
   6   4  -3  359.95   18.44
   6   4  -3  401.91   20.89
  -6  -4   2   42.64    3.72
  -6  -4   2   47.20    3.89
   6   4  -2   41.96    3.64
   6   4  -2   42.21    3.64
  -6  -4   1  350.13   18.44
  -6  -4   1  322.22   16.66
   6   4  -1  328.82   17.34
   6   4  -1  296.42   15.31
  -6  -4   0  364.18   18.78
  -6  -4   0  317.82   16.92
   6   4   0  351.23   18.10
   6   4   0  316.89   16.75
  -6  -4  -1   77.40    6.18
  -6  -4  -1   76.47    4.99
   6   4   1   78.00    4.91
   6   4   1   74.78    5.67
  -6  -4  -2   25.21    5.33
  -6  -4  -2   39.25    3.13
   6   4   2   31.13    2.88
   6   4   2   23.26    4.65
  -6  -4  -3   30.03    5.67
  -6  -4  -3   29.44    2.79
   6   4   3   20.64    2.45
   6   4   3   27.49    4.91
  -6  -4  -4  136.20    9.22
  -6  -4  -4  128.67    7.11
   6   4   4  130.53    7.28
   6   4   4  131.46    8.88
  -6  -4  -5   33.50    6.01
  -6  -4  -5   40.35    3.47
   6   4   5   42.47    3.64
   6   4   5   28.76    5.33
  -6  -4  -6  365.02   18.70
  -6  -4  -6  357.92   19.54
   6   4   6  349.80   18.95
   6   4   6  343.28   17.76
  -6  -4  -7  113.36    8.80
  -6  -4  -7  131.54    7.53
   6   4   7  114.96    6.94
   6   4   7  113.95    8.54
  -6  -4  -8   15.57    3.89
  -6  -4  -8   18.02    7.11
   6   4   8   11.50    6.34
   6   4   8   13.37    3.55
  -6  -5  13  380.84   21.15
  -6  -5  13  454.02   23.35
   6   5 -13  393.95   21.74
   6   5 -13  453.08   23.26
  -6  -5  12  151.08   10.57
  -6  -5  12  168.09    9.39
   6   5 -12  173.42    9.64
   6   5 -12  141.27   10.66
  -6  -5  11    7.61    6.09
  -6  -5  11   10.32    3.21
   6   5 -11    6.94    6.26
   6   5 -11   16.24    3.47
  -6  -5  10    4.15    2.45
  -6  -5  10   -0.68    5.16
   6   5 -10    0.59    2.71
   6   5 -10    7.61    5.50
  -6  -5   9   43.74    3.30
  -6  -5   9   49.06    6.18
   6   5  -9   38.91    3.30
   6   5  -9   40.27    6.26
  -6  -5   8   67.42    6.51
  -6  -5   8   66.66    4.23
   6   5  -8   63.28    4.15
   6   5  -8   66.15    6.60
  -6  -5   7   37.14    2.88
  -6  -5   7   27.75    4.99
   6   5  -7   33.16    5.16
   6   5  -7   37.81    3.13
  -6  -5   6   45.68    3.38
  -6  -5   6   48.81    4.99
   6   5  -6   47.46    3.47
   6   5  -6   39.25    5.16
  -6  -5   5  170.12    9.31
  -6  -5   5  161.83    9.81
   6   5  -5  150.83    9.73
   6   5  -5  183.06    9.98
  -6  -5   4    9.47    4.40
   6   5  -4    0.93    2.88
   6   5  -4    8.21    4.65
  -6  -5   3    0.59    3.89
  -6  -5   3    1.95    2.96
   6   5  -3    7.11    4.06
  -6  -5   2   19.12    3.72
  -6  -5   2   28.76    3.81
   6   5  -2   23.94    3.47
   6   5  -2   23.26    3.64
  -6  -5   1  223.58   12.52
  -6  -5   1  198.46   10.66
   6   5  -1  188.73   10.41
   6   5  -1  195.33   11.08
  -6  -5   0  891.62   45.00
  -6  -5   0  901.77   45.85
   6   5   0  800.43   40.77
   6   5   0  839.59   42.47
  -6  -5  -1    9.22    4.15
  -6  -5  -1   14.04    3.21
  -6  -5  -2    6.51    4.82
  -6  -5  -2    6.01    2.79
   6   5   2    2.62    4.48
   6   5   2    9.39    3.05
  -6  -5  -3  135.01    9.14
  -6  -5  -3  127.14    7.19
   6   5   3  133.91    8.88
   6   5   3  113.53    6.60
  -6  -5  -4  352.00   18.02
  -6  -5  -4  386.17   20.98
   6   5   4  324.93   16.83
   6   5   4  345.06   18.78
  -6  -5  -5  272.82   15.73
  -6  -5  -5  265.54   13.87
   6   5   5  248.03   14.38
   6   5   5  246.17   13.03
  -6  -5  -6  241.60   14.30
  -6  -5  -6  221.38   11.67
   6   5   6  198.96   12.35
   6   5   6  212.42   11.42
  -6  -5  -7   -1.10    3.13
  -6  -5  -7    3.64    7.11
   6   5   7   10.74    6.85
   6   5   7    0.51    3.05
  -6  -6  12  276.37   14.55
  -6  -6  12  277.81   16.75
   6   6 -12  282.97   16.83
   6   6 -12  290.16   15.23
  -6  -6  11   53.55    7.78
  -6  -6  11   56.17    4.31
   6   6 -11   53.63    8.04
   6   6 -11   59.05    4.40
  -6  -6  10   98.21    8.80
  -6  -6  10   85.27    5.33
   6   6 -10   79.60    5.08
   6   6 -10   96.01    8.80
  -6  -6   9   13.03    2.88
  -6  -6   9   26.82    6.18
   6   6  -9   23.01    6.85
   6   6  -9   14.13    2.96
  -6  -6   8   70.21    4.57
  -6  -6   8   68.52    7.11
   6   6  -8   85.36    7.61
   6   6  -8   70.81    4.57
  -6  -6   7  262.49   13.70
  -6  -6   7  259.62   14.55
   6   6  -7  244.39   14.13
   6   6  -7  242.28   12.60
  -6  -6   6   20.56    3.21
  -6  -6   6   15.23    5.08
   6   6  -6   21.83    5.41
   6   6  -6   30.96    3.38
  -6  -6   5   54.48    4.40
  -6  -6   5   49.57    5.92
   6   6  -5   45.68    6.09
   6   6  -5   52.45    4.23
  -6  -6   4   82.56    6.77
  -6  -6   4   65.56    4.65
   6   6  -4   73.85    6.85
   6   6  -4   68.18    4.82
  -6  -6   3   71.99    5.08
  -6  -6   3   76.73    6.26
   6   6  -3   73.68    5.16
   6   6  -3   73.00    6.01
  -6  -6   2    7.53    3.64
  -6  -6   2   -4.99    3.64
   6   6  -2   -2.20    3.98
   6   6  -2    4.99    3.47
  -6  -6   1   85.69    6.68
  -6  -6   1   73.77    5.33
   6   6  -1   78.42    5.58
   6   6  -1   70.13    6.18
  -6  -6   0  174.69   10.49
  -6  -6   0  170.46    9.56
   6   6   0  161.66   10.07
   6   6   0  165.21    9.47
  -6  -6  -1  850.17   43.40
  -6  -6  -1  888.24   44.92
   6   6   1  781.99   40.01
   6   6   1  868.78   43.99
  -6  -6  -2   97.28    7.78
  -6  -6  -2  112.93    7.11
   6   6   2  101.17    6.51
   6   6   2  101.77    7.78
  -6  -6  -3    1.86    3.47
  -6  -6  -3    4.99    5.84
   6   6   3   -1.10    5.24
   6   6   3    0.85    3.47
  -6  -6  -4  226.20   13.70
  -6  -6  -4  202.94   11.00
   6   6   4  185.85   11.76
   6   6   4  190.08   10.41
  -6  -6  -5  388.96   21.57
  -6  -6  -5  365.61   18.86
   6   6   5  345.57   19.20
   6   6   5  340.91   17.60
  -6  -7  10    5.08    7.19
  -6  -7  10    1.02    2.88
   6   7 -10   11.17    3.05
   6   7 -10   18.10    7.02
  -6  -7   9   11.25    3.05
  -6  -7   9    8.63    7.11
   6   7  -9   21.91    7.19
   6   7  -9   12.10    3.13
  -6  -7   8  118.09    6.85
  -6  -7   8  114.20    9.14
   6   7  -8  124.35    9.73
   6   7  -8  102.70    6.18
  -6  -7   7   92.55    8.04
  -6  -7   7  101.85    6.34
   6   7  -7   92.71    8.04
   6   7  -7  103.63    5.92
  -6  -7   6  795.35   40.18
  -6  -7   6  758.72   38.91
  -6  -7   5  119.11    7.19
  -6  -7   5  127.31    9.31
   6   7  -5  127.06    9.39
   6   7  -5  120.55    7.28
  -6  -7   4   81.04    5.50
  -6  -7   4   87.39    7.61
   6   7  -4   91.02    7.87
   6   7  -4   78.59    5.41
  -6  -7   3   54.48    6.01
  -6  -7   3   43.31    4.40
   6   7  -3   47.12    4.31
   6   7  -3   58.88    6.18
  -6  -7   2  593.00   30.37
  -6  -7   2  637.58   32.57
   6   7  -2  582.43   29.78
   6   7  -2  577.61   29.78
  -6  -7   1   39.42    4.48
  -6  -7   1   36.97    5.50
   6   7  -1   34.51    5.50
   6   7  -1   34.18    4.65
  -6  -7   0  308.18   16.33
  -6  -7   0  367.81   19.79
   6   7   0  315.45   16.75
   6   7   0  332.45   17.85
  -6  -7  -1   28.42    4.23
  -6  -7  -1   40.77    6.43
   6   7   1   31.64    5.92
   6   7   1   33.41    4.74
  -6  -7  -2  464.93   24.02
  -6  -7  -2  391.25   21.06
  -6  -7  -3   -0.17    4.15
  -6  -7  -3   -4.74    6.09
   6   7   3    0.42    4.15
   6   7   3    3.64    6.26
  -6  -8   7    4.91    4.06
  -6  -8   7    6.43    5.92
   6   8  -7    7.87    6.26
   6   8  -7   -3.38    4.48
  -6  -8   6   10.66    4.06
  -6  -8   6    9.73    6.51
   6   8  -6   11.42    4.40
   6   8  -6   11.17    7.02
  -6  -8   5  513.40   26.31
  -6  -8   5  533.70   28.17
   6   8  -5  533.45   28.34
   6   8  -5  472.88   24.36
  -6  -8   4    8.37    4.15
  -6  -8   4   11.59    6.26
   6   8  -4   18.36    7.11
   6   8  -4   11.00    4.06
  -6  -8   3   23.94    4.65
  -6  -8   3   29.86    6.43
   6   8  -3   34.35    6.60
   6   8  -3   27.24    4.48
  -6  -8   2  105.57    7.70
  -6  -8   2  106.50    7.87
   6   8  -2   86.37    7.11
   6   8  -2   85.19    7.02
  -6  -8   1  626.25   32.31
  -6  -8   1  550.79   28.25
   6   8  -1  548.00   28.25
   6   8  -1  620.50   32.15
  -6  -8   0  126.47    7.78
  -6  -8   0  128.08    9.05
   6   8   0  113.95    9.31
   6   8   0  130.61    8.46
  -7  11   4  119.87    8.97
  -7  11   4  103.71    7.11
   7 -11  -4  101.26    7.28
   7 -11  -4  120.38    8.71
  -7  11   3   22.84    5.67
  -7  11   3   16.07    4.74
   7 -11  -3   25.46    4.91
   7 -11  -3   11.84    4.91
  -7  11   2   12.86    5.33
  -7  11   2   12.69    4.65
   7 -11  -2    8.46    4.23
   7 -11  -2    9.64    5.50
  -7  11   1   87.81    6.43
  -7  11   1  112.00    8.63
   7 -11  -1  104.73    8.12
   7 -11  -1  101.43    6.77
  -7  11   0  362.40   19.88
  -7  11   0  300.31   15.90
   7 -11   0  314.44   16.50
   7 -11   0  338.38   18.70
  -7  11  -1  198.88   11.08
  -7  11  -1  192.96   12.18
   7 -11   1  194.57   10.83
   7 -11   1  165.04   11.08
  -7  10   7  119.11    8.88
  -7  10   7  148.80    8.88
   7 -10  -7  134.93    9.22
   7 -10  -7  146.69    8.97
  -7  10   6    2.11    5.84
  -7  10   6    2.88    3.98
   7 -10  -6    3.55    5.58
   7 -10  -6    4.99    4.31
  -7  10   5   66.58    6.43
  -7  10   5   62.68    5.08
   7 -10  -5   72.75    6.51
   7 -10  -5   66.15    5.67
  -7  10   4    2.54    3.64
  -7  10   4    4.15    5.24
   7 -10  -4   -4.31    4.31
   7 -10  -4   -7.36    4.65
  -7  10   3  209.03   11.84
  -7  10   3  184.41   10.32
   7 -10  -3  207.59   11.59
   7 -10  -3  181.54   10.49
  -7  10   2   39.25    4.40
  -7  10   2   39.25    4.99
   7 -10  -2   28.59    3.98
   7 -10  -2   26.82    5.33
  -7  10   1   61.42    6.18
  -7  10   1   54.22    4.57
   7 -10  -1   45.43    4.23
   7 -10  -1   51.52    6.51
  -7  10   0    4.65    3.55
  -7  10   0    9.14    5.84
   7 -10   0    0.25    3.47
   7 -10   0   -0.17    6.09
  -7  10  -1  517.97   26.48
  -7  10  -1  558.74   29.10
   7 -10   1  509.51   26.05
   7 -10   1  545.97   28.93
  -7  10  -2   82.14    7.36
  -7  10  -2   86.79    5.92
   7 -10   2   79.52    5.24
   7 -10   2   63.87    7.36
  -7  10  -3   37.73    6.43
  -7  10  -3   45.85    3.89
   7 -10   3   30.71    6.51
   7 -10   3   44.24    3.89
  -7  10  -4   46.02    7.19
  -7  10  -4   38.32    3.72
   7 -10   4   38.57    7.44
   7 -10   4   45.60    3.81
  -7   9  10  237.54   12.60
  -7   9  10  245.83   14.89
   7  -9 -10  253.10   15.06
   7  -9 -10  252.85   13.45
  -7   9   9   22.42    6.60
  -7   9   9   31.30    3.55
   7  -9  -9   32.99    6.68
   7  -9  -9   30.20    3.81
  -7   9   8   10.49    3.38
  -7   9   8    5.92    5.84
   7  -9  -8    7.95    5.75
   7  -9  -8    8.88    3.72
  -7   9   7   15.14    5.16
  -7   9   7   24.96    3.64
   7  -9  -7   18.27    4.06
   7  -9  -7   16.58    5.41
  -7   9   6  756.78   38.32
  -7   9   6  689.52   35.36
   7  -9  -6  636.74   32.82
   7  -9  -6  716.76   36.46
  -7   9   5  339.31   17.68
  -7   9   5  356.22   19.03
   7  -9  -5  338.63   18.19
   7  -9  -5  361.98   19.12
  -7   9   4  101.34    7.53
  -7   9   4   97.28    6.01
   7  -9  -4   89.25    6.26
   7  -9  -4  106.67    7.28
  -7   9   3   28.59    3.55
  -7   9   3   22.42    4.23
   7  -9  -3   24.19    3.89
   7  -9  -3   33.41    4.40
  -7   9   2  358.17   18.70
  -7   9   2  354.28   18.44
   7  -9  -2  328.39   17.51
   7  -9  -2  345.74   17.93
  -7   9   1   77.23    6.18
  -7   9   1   71.82    5.16
   7  -9  -1   72.41    4.99
   7  -9  -1   70.30    6.68
  -7   9   0  188.64   10.41
  -7   9   0  192.87   11.42
   7  -9   0  196.17   10.66
   7  -9   0  197.78   12.01
  -7   9  -1  173.67    9.73
  -7   9  -1  153.79    9.81
   7  -9   1  154.38    8.63
   7  -9   1  145.33   10.07
   7  -9   2  108.87    8.29
   7  -9   2  124.01    7.11
  -7   9  -3  121.48    6.94
  -7   9  -3  128.84    8.80
   7  -9   3  115.56    6.60
   7  -9   3  110.48    8.46
  -7   9  -4  242.53   14.04
  -7   9  -4  233.06   12.27
   7  -9   4  228.91   12.01
   7  -9   4  235.26   14.30
  -7   9  -5    3.30    2.88
  -7   9  -5    0.85    6.09
   7  -9   5    4.15    2.79
   7  -9   5   13.28    7.19
  -7   9  -6  323.91   16.75
  -7   9  -6  342.52   19.12
   7  -9   6  315.37   18.02
   7  -9   6  301.32   15.57
  -7   8  11   47.54    7.36
  -7   8  11   44.16    3.98
   7  -8 -11   43.48    4.15
   7  -8 -11   43.48    7.02
  -7   8  10   31.47    7.02
  -7   8  10   30.62    3.30
   7  -8 -10   38.32    3.98
   7  -8 -10   19.63    6.77
  -7   8   9  110.06    8.46
  -7   8   9  116.49    6.68
   7  -8  -9  126.21    9.14
   7  -8  -9  116.57    6.94
  -7   8   8   19.54    2.62
  -7   8   8    8.63    5.24
   7  -8  -8   24.70    5.58
   7  -8  -8   20.05    3.30
  -7   8   7    4.48    4.99
  -7   8   7   -1.27    2.62
   7  -8  -7    0.93    3.05
   7  -8  -7    0.08    4.74
  -7   8   6   86.71    6.68
  -7   8   6   92.63    5.67
   7  -8  -6   80.28    6.43
   7  -8  -6   84.85    5.75
  -7   8   5  364.52   18.86
  -7   8   5  354.11   18.86
   7  -8  -5  354.53   18.61
   7  -8  -5  349.37   18.61
  -7   8   4  141.36    8.04
  -7   8   4  152.10    9.22
   7  -8  -4  129.68    7.87
   7  -8  -4  132.47    8.29
  -7   8   3   18.95    3.13
  -7   8   3   14.47    3.81
   7  -8  -3   16.50    3.72
   7  -8  -3   12.69    3.55
  -7   8   2    3.89    3.05
  -7   8   2    4.40    3.21
   7  -8  -2   -2.79    3.05
   7  -8  -2   -4.31    3.81
  -7   8   1 1412.72   71.23
  -7   8   1 1267.22   63.70
   7  -8  -1 1327.28   67.08
   7  -8  -1 1324.74   66.58
  -7   8   0  446.99   22.84
  -7   8   0  436.00   22.84
   7  -8   0  433.63   22.16
   7  -8   0  420.09   22.25
  -7   8  -1  249.72   13.62
  -7   8  -1  289.99   15.14
   7  -8   1  244.56   12.77
   7  -8   1  231.28   13.37
  -7   8  -2  321.12   16.50
  -7   8  -2  326.28   17.51
   7  -8   2  329.49   16.92
   7  -8   2  306.06   16.83
  -7   8  -3  449.87   23.69
  -7   8  -3  436.34   22.25
   7  -8   3  414.76   21.15
   7  -8   3  438.45   23.35
  -7   8  -4  127.48    8.63
  -7   8  -4  129.68    7.19
   7  -8   4  110.56    6.26
   7  -8   4  126.81    9.47
  -7   8  -5   90.77    5.41
  -7   8  -5  105.15    8.29
   7  -8   5   88.57    5.33
   7  -8   5   91.45    8.21
  -7   8  -6   92.12    5.75
  -7   8  -6  103.80    8.54
   7  -8   6  100.16    6.09
   7  -8   6  114.37    9.47
  -7   8  -7   18.44    6.34
  -7   8  -7   15.82    3.47
   7  -8   7   21.66    7.02
   7  -8   7   16.58    3.38
  -7   8  -8   18.27    6.34
  -7   8  -8   22.42    4.06
   7  -8   8   26.56    7.11
   7  -8   8   18.78    4.23
  -7   7  12  116.82    6.85
  -7   7  12  118.09    9.22
   7  -7 -12  114.54    9.14
   7  -7 -12  118.77    7.11
  -7   7  11  315.20   17.60
  -7   7  11  311.47   16.07
   7  -7 -11  299.80   16.58
   7  -7 -11  333.13   17.26
  -7   7  10  144.66    7.95
  -7   7  10  169.02   10.66
   7  -7 -10  157.85   10.24
   7  -7 -10  156.24    8.71
  -7   7   9    6.01    2.37
  -7   7   9   15.82    5.50
   7  -7  -9    6.51    5.50
   7  -7  -9    6.68    2.62
  -7   7   8  133.15    8.80
  -7   7   8  130.19    7.19
   7  -7  -8  128.58    7.28
   7  -7  -8  135.18    9.05
  -7   7   7  439.89   23.09
  -7   7   7  412.56   21.06
   7  -7  -7  394.63   20.22
   7  -7  -7  425.17   22.33
  -7   7   6  274.17   14.89
  -7   7   6  284.91   14.72
   7  -7  -6  287.45   15.06
   7  -7  -6  255.90   14.04
  -7   7   5    4.74    2.79
   7  -7  -5    3.47    3.21
   7  -7  -5    3.38    4.06
  -7   7   4  325.09   17.34
   7  -7  -4  314.52   16.75
   7  -7  -4  291.00   15.40
  -7   7   3   38.57    3.64
  -7   7   3   41.96    4.40
   7  -7  -3   32.91    3.98
   7  -7  -3   29.78    3.55
  -7   7   2   67.34    5.24
  -7   7   2   70.81    4.91
   7  -7  -2   56.93    4.65
   7  -7  -2   69.37    4.65
  -7   7   1  130.02    8.12
  -7   7   1  121.98    7.02
   7  -7  -1  129.51    8.21
   7  -7  -1  126.30    7.11
  -7   7   0 1427.10   71.74
  -7   7   0 1416.10   71.40
   7  -7   0 1383.11   69.87
   7  -7   0 1337.43   67.17
   7  -7   1  416.54   22.08
   7  -7   1  450.89   22.92
  -7   7  -2   98.55    6.77
  -7   7  -2   97.79    5.67
   7  -7   2   98.21    7.44
   7  -7   2   96.86    5.58
  -7   7  -3   49.83    5.58
  -7   7  -3   47.88    3.47
   7  -7   3   44.83    5.84
   7  -7   3   46.95    3.38
  -7   7  -4  601.55   30.37
  -7   7  -4  651.12   33.58
   7  -7   4  571.94   28.93
   7  -7   4  572.19   29.95
  -7   7  -5  204.55   10.83
  -7   7  -5  203.87   12.18
   7  -7   5  190.93   10.24
   7  -7   5  196.26   12.10
  -7   7  -6  218.84   11.67
  -7   7  -6  205.73   12.35
   7  -7   6  198.20   12.44
   7  -7   6  200.15   10.74
  -7   7  -7  430.08   23.01
  -7   7  -7  454.10   23.26
   7  -7   7  388.79   21.23
   7  -7   7  448.60   22.92
  -7   7  -8   54.39    4.82
  -7   7  -8   56.76    7.28
   7  -7   8   36.80    7.36
   7  -7   8   56.59    5.08
  -7   6  13   14.47    3.89
  -7   6  13   28.34    6.43
   7  -6 -13   11.34    5.92
   7  -6 -13   15.73    4.23
  -7   6  12   69.71    4.99
  -7   6  12   59.89    6.60
   7  -6 -12   67.17    7.02
   7  -6 -12   71.65    5.58
  -7   6  11  311.47   16.16
  -7   6  11  302.93   16.75
  -7   6  10  202.26   10.74
  -7   6  10  205.22   12.01
   7  -6 -10  211.23   11.34
   7  -6 -10  201.84   11.93
  -7   6   9   83.24    6.77
  -7   6   9   77.91    4.74
   7  -6  -9   69.37    6.18
   7  -6  -9   86.29    5.24
  -7   6   8   57.61    5.92
  -7   6   8   53.12    3.55
   7  -6  -8   47.88    3.72
   7  -6  -8   45.26    5.58
  -7   6   7  549.27   27.75
  -7   6   7  624.13   32.23
   7  -6  -7  609.16   31.47
   7  -6  -7  563.65   28.59
  -7   6   6 1667.35   83.58
  -7   6   6 1705.41   85.86
   7  -6  -6 1673.27   84.26
   7  -6  -6 1652.96   82.90
  -7   6   5  862.86   43.48
  -7   6   5  784.86   39.93
   7  -6  -5  794.93   40.10
   7  -6  -5  798.14   40.61
  -7   6   4   25.55    2.62
  -7   6   4   23.43    3.55
   7  -6  -4   25.38    3.72
   7  -6  -4   25.97    2.88
  -7   6   3  147.45    8.04
  -7   6   3  169.86    9.47
  -7   6   2  326.62   17.00
  -7   6   2  311.14   16.16
   7  -6  -2  285.25   14.72
   7  -6  -2  309.87   16.24
  -7   6   1  842.30   42.64
  -7   6   1  771.75   38.91
   7  -6  -1  729.37   36.80
   7  -6  -1  804.40   40.77
  -7   6   0  428.05   21.83
  -7   6   0  376.27   19.54
   7  -6   0  375.34   19.12
   7  -6   0  383.13   19.88
  -7   6  -1   81.38    4.65
  -7   6  -1   90.60    6.09
   7  -6   1   80.79    5.75
   7  -6   1   77.32    4.48
  -7   6  -2  171.39    9.05
  -7   6  -2  204.38   11.67
   7  -6   2  182.64   10.49
   7  -6   2  159.63    8.37
  -7   6  -3    0.42    2.11
  -7   6  -3    4.31    4.06
   7  -6   3    0.85    1.95
   7  -6   3    5.16    4.48
  -7   6  -4   22.67    4.82
  -7   6  -4   25.97    2.96
   7  -6   4   19.71    2.79
   7  -6   4   15.99    4.82
  -7   6  -5   41.96    3.55
  -7   6  -5   37.22    5.08
   7  -6   5   41.70    3.64
   7  -6   5   37.98    5.75
   7  -6   6  119.02    7.11
   7  -6   6  111.75    8.37
  -7   6  -7  135.18    7.95
  -7   6  -7  122.83    8.80
   7  -6   7  107.10    8.37
   7  -6   7  129.85    7.78
  -7   6  -8  181.20   11.42
  -7   6  -8  184.75   10.24
   7  -6   8  174.35    9.56
   7  -6   8  181.88   11.67
  -7   6  -9  221.38   12.01
  -7   6  -9  244.56   14.55
   7  -6   9  216.14   11.84
   7  -6   9  197.87   12.60
  -7   5  14  230.94   14.04
  -7   5  14  199.47   11.17
   7  -5 -14  209.45   13.03
   7  -5 -14  201.33   11.17
  -7   5  13  388.12   20.89
  -7   5  13  381.60   19.79
   7  -5 -13  390.40   20.30
   7  -5 -13  369.34   19.88
  -7   5  12  236.02   13.70
  -7   5  12  254.29   13.45
   7  -5 -12  237.37   12.86
   7  -5 -12  237.54   13.87
  -7   5  11   62.35    4.48
  -7   5  11   68.01    6.34
   7  -5 -11   69.79    5.24
   7  -5 -11   56.51    6.09
  -7   5  10  162.67    9.98
  -7   5  10  173.08    9.31
   7  -5 -10  189.57   10.41
   7  -5 -10  165.80   10.15
  -7   5   9   48.73    3.38
  -7   5   9   46.87    5.50
   7  -5  -9   63.36    4.57
   7  -5  -9   47.71    5.50
  -7   5   8    4.74    1.86
  -7   5   8    5.84    4.15
   7  -5  -8   -0.59    3.81
   7  -5  -8    4.31    2.20
  -7   5   7   53.21    3.30
  -7   5   7   63.95    5.33
   7  -5  -7   60.99    4.99
   7  -5  -7   54.65    3.47
  -7   5   6  368.91   18.70
  -7   5   6  380.93   19.96
   7  -5  -6  390.57   20.39
   7  -5  -6  349.46   17.76
  -7   5   5  668.71   34.09
  -7   5   5  705.94   35.53
   7  -5  -5  645.87   32.57
   7  -5  -5  662.62   33.67
  -7   5   4  198.63   10.74
  -7   5   4  172.99    9.05
   7  -5  -4  164.37    8.71
   7  -5  -4  178.07    9.64
  -7   5   3    7.53    2.45
  -7   5   3    9.98    2.28
   7  -5  -3    7.61    2.45
   7  -5  -3    9.22    2.28
  -7   5   2  305.30   15.82
  -7   5   2  310.88   16.07
   7  -5  -2  287.70   14.80
   7  -5  -2  304.96   15.82
  -7   5   1  728.35   36.71
  -7   5   1  790.02   39.93
   7  -5  -1  684.53   34.51
   7  -5  -1  742.31   37.56
  -7   5   0  196.17   10.24
  -7   5   0  181.88    9.90
   7  -5   0  179.34    9.31
   7  -5   0  180.78    9.90
  -7   5  -1  409.10   21.15
  -7   5  -1  423.65   21.40
   7  -5   1  395.39   19.96
   7  -5   1  437.94   22.59
  -7   5  -2  125.96    7.53
  -7   5  -2  113.61    6.09
   7  -5   2  104.14    6.68
   7  -5   2  108.53    5.84
  -7   5  -3    6.18    3.55
  -7   5  -3   14.13    2.11
   7  -5   3   11.50    2.03
   7  -5   3   10.15    3.64
  -7   5  -4  241.68   13.28
  -7   5  -4  257.33   13.37
   7  -5   4  232.80   12.94
   7  -5   4  267.15   13.87
   7  -5   5  414.51   21.99
   7  -5   5  432.36   22.16
  -7   5  -6    7.11    2.88
  -7   5  -6    8.46    4.91
   7  -5   6    3.89    4.99
   7  -5   6    3.47    2.79
  -7   5  -7   -1.86    5.24
  -7   5  -7   -0.93    3.05
   7  -5   7   -1.02    2.96
   7  -5   7   -3.64    5.16
  -7   5  -8   19.20    6.18
  -7   5  -8   23.60    3.72
   7  -5   8   29.18    6.09
   7  -5   8   19.96    3.30
  -7   5  -9   54.82    7.28
  -7   5  -9   46.44    4.65
   7  -5   9   49.40    4.65
   7  -5   9   43.48    7.44
  -7   5 -10   -2.03    6.01
  -7   5 -10   -1.10    3.89
   7  -5  10    5.16    4.65
   7  -5  10    5.41    6.68
  -7   4  14    9.73    6.09
  -7   4  14    4.74    3.64
   7  -4 -14    8.63    6.09
   7  -4 -14    4.65    3.89
  -7   4  13  259.03   14.80
  -7   4  13  235.76   12.60
   7  -4 -13  279.16   15.65
   7  -4 -13  244.22   13.11
  -7   4  12  519.91   27.15
  -7   4  12  489.12   24.96
   7  -4 -12  503.33   25.80
   7  -4 -12  547.24   28.42
  -7   4  11  197.02   10.57
  -7   4  11  194.31   11.50
   7  -4 -11  191.61   10.49
   7  -4 -11  199.47   11.59
  -7   4  10  199.90   10.74
  -7   4  10  186.19   11.25
   7  -4 -10  202.43   11.76
   7  -4 -10  198.80   10.83
  -7   4   9  158.78    9.64
  -7   4   9  172.66    9.31
   7  -4  -9  168.26    9.90
   7  -4  -9  168.76    9.14
  -7   4   8 1457.55   73.09
  -7   4   8 1427.95   71.99
  -7   4   7   55.92    4.57
  -7   4   7   55.75    3.30
   7  -4  -7   51.43    4.40
   7  -4  -7   58.29    3.47
  -7   4   6  211.74   10.83
  -7   4   6  218.42   11.67
   7  -4  -6  198.20   10.15
   7  -4  -6  228.23   12.18
  -7   4   5  124.52    6.94
  -7   4   5  141.44    7.44
   7  -4  -5  125.62    7.02
   7  -4  -5  132.39    6.94
  -7   4   4   59.05    3.38
  -7   4   4   59.13    3.64
   7  -4  -4   58.88    3.72
   7  -4  -4   52.19    3.13
  -7   4   3   17.09    1.52
  -7   4   3   16.83    1.78
   7  -4  -3   22.25    2.11
   7  -4  -3   21.40    2.03
  -7   4   2  148.21    7.78
  -7   4   2  140.51    7.36
   7  -4  -2  150.07    7.87
   7  -4  -2  150.24    7.87
  -7   4   1  230.43   11.84
  -7   4   1  259.36   13.28
   7  -4  -1  238.81   12.27
   7  -4  -1  237.20   12.10
  -7   4   0   15.48    2.03
  -7   4   0   11.84    1.35
   7  -4   0   16.16    1.52
   7  -4   0   12.27    2.11
  -7   4  -1  207.85   10.57
  -7   4  -1  214.36   11.25
   7  -4   1  205.90   10.91
   7  -4   1  185.60    9.47
  -7   4  -2    4.48    2.71
  -7   4  -2    2.45    1.44
   7  -4   2    2.96    2.88
   7  -4   2    3.13    1.44
  -7   4  -3   56.00    4.48
  -7   4  -3   57.52    3.64
   7  -4   3   43.90    3.13
   7  -4   3   48.13    4.23
  -7   4  -4  147.19    8.80
  -7   4  -4  167.24    9.05
   7  -4   4  148.55    8.12
   7  -4   4  147.11    8.63
  -7   4  -5  734.95   37.14
  -7   4  -5  787.23   40.27
   7  -4   5  752.97   38.57
   7  -4   5  686.90   34.68
   7  -4   6  516.61   27.15
   7  -4   6  444.79   22.76
  -7   4  -7    1.78    5.16
  -7   4  -7    3.72    3.05
   7  -4   7    6.34    3.21
   7  -4   7   15.40    5.33
  -7   4  -8   30.62    5.41
  -7   4  -8   24.19    3.81
   7  -4   8   21.06    6.18
   7  -4   8   26.31    4.06
  -7   4  -9   64.29    6.85
  -7   4  -9   61.33    5.33
   7  -4   9   51.43    7.02
   7  -4   9   52.19    4.91
  -7   4 -10  422.04   22.42
  -7   4 -10  406.90   21.23
   7  -4  10  392.01   21.06
   7  -4  10  401.14   20.98
  -7   3  15  342.10   18.53
  -7   3  15  329.41   17.43
   7  -3 -15  350.39   19.20
   7  -3 -15  324.42   17.26
  -7   3  14    8.29    5.33
  -7   3  14    8.88    3.89
   7  -3 -14    1.86    4.15
   7  -3 -14    2.11    5.75
  -7   3  13    2.54    5.16
  -7   3  13   -0.59    3.55
   7  -3 -13   -5.67    3.98
   7  -3 -13   -1.44    5.16
  -7   3  12   48.56    3.98
  -7   3  12   64.88    6.09
   7  -3 -12   58.20    5.08
   7  -3 -12   51.94    6.01
  -7   3  11  667.19   34.26
  -7   3  11  591.23   30.03
   7  -3 -11  646.89   33.33
   7  -3 -11  570.59   29.10
  -7   3  10    6.01    4.15
  -7   3  10    9.56    2.79
   7  -3 -10   12.01    4.23
  -7   3   9  165.47    8.88
  -7   3   9  161.24    9.47
   7  -3  -9  168.93    9.64
   7  -3  -9  167.33    8.97
  -7   3   8  319.43   16.75
  -7   3   8  316.04   16.16
   7  -3  -8  327.55   17.09
   7  -3  -8  339.73   17.34
  -7   3   7 1048.96   52.87
  -7   3   7 1019.36   51.09
  -7   3   6  163.94    8.71
  -7   3   6  147.70    7.53
   7  -3  -6  160.90    8.63
   7  -3  -6  137.21    7.02
   7  -3  -5  175.53    8.97
   7  -3  -5  161.66    8.37
  -7   3  -1  212.92   10.91
  -7   3  -1  250.65   12.77
   7  -3   1  190.84    9.73
   7  -3   1  212.58   11.00
  -7   3  -2  118.85    6.51
  -7   3  -2  128.08    6.68
   7  -3   2  119.36    6.60
   7  -3   2  133.40    6.94
  -7   3  -3   94.32    5.67
  -7   3  -3  113.27    6.18
   7  -3   3  100.75    5.50
   7  -3   3   97.28    5.92
  -7   3  -4   12.27    3.13
  -7   3  -4   13.62    2.28
   7  -3   4   16.83    2.28
   7  -3   4    8.12    3.05
  -7   3  -5  204.13   11.34
  -7   3  -5  190.00   10.24
   7  -3   5  177.22   10.15
   7  -3   5  192.03   10.32
  -7   3  -6  257.93   14.04
  -7   3  -6  258.77   13.96
   7  -3   6  283.64   15.14
   7  -3   6  259.28   14.38
  -7   3  -7  514.67   26.48
  -7   3  -7  493.52   25.72
   7  -3   7  502.15   25.89
   7  -3   7  494.96   25.89
  -7   3  -8    2.54    4.48
  -7   3  -8   -3.47    4.91
   7  -3   8    1.35    4.23
   7  -3   8    2.28    5.16
   7  -3   9  130.78    8.97
   7  -3   9  142.88    9.14
  -7   3 -10  167.92   10.49
  -7   3 -10  185.60   11.25
   7  -3  10  175.79   11.08
   7  -3  10  183.65   10.91
  -7   2  15  178.92   10.74
  -7   2  15  168.85   10.07
   7  -2 -15  194.82   11.76
   7  -2 -15  169.53   10.74
  -7   2  14  586.24   30.03
  -7   2  14  592.24   30.54
   7  -2 -14  603.07   31.22
   7  -2 -14  600.62   31.05
  -7   2  13  136.45    8.29
  -7   2  13  116.23    7.70
   7  -2 -13  135.10    8.88
   7  -2 -13  128.84    8.37
  -7   2  12   31.47    4.15
  -7   2  12   29.18    4.48
   7  -2 -12   34.01    5.08
   7  -2 -12   30.20    4.74
  -7   2  11   30.03    4.40
  -7   2  11   33.92    3.81
   7  -2 -11   36.71    4.82
   7  -2 -11   33.58    4.40
  -7   2  10  110.99    7.02
  -7   2  10   96.01    5.92
   7  -2 -10  102.10    6.51
   7  -2 -10   99.14    6.18
  -7   2   9   19.96    2.45
  -7   2   9   17.76    3.13
   7  -2  -9   23.35    3.21
   7  -2  -9   20.22    2.54
  -7   2   8  209.88   10.83
  -7   2   8  208.27   11.08
   7  -2  -8  191.61    9.98
   7  -2  -8  206.66   11.00
  -7   2   7    6.94    1.35
  -7   2   7    3.72    2.11
   7  -2  -7    6.68    1.95
   7  -2  -7    4.15    1.52
   7  -2  -6  343.54   17.43
   7  -2  -6  390.32   19.79
  -7   2  -2  649.51   32.74
  -7   2  -2  756.10   38.07
   7  -2   2  654.76   32.99
   7  -2   2  682.67   34.43
  -7   2  -3  176.04    9.22
  -7   2  -3  200.32   10.49
   7  -2   3  190.67   10.15
   7  -2   3  170.29    8.97
  -7   2  -4  725.39   36.71
  -7   2  -4  720.99   36.54
   7  -2   4  705.01   35.70
   7  -2   4  718.54   36.29
  -7   2  -5  678.61   34.51
  -7   2  -5  682.93   34.77
   7  -2   5  615.17   31.38
   7  -2   5  655.10   33.33
  -7   2  -6   18.70    4.40
   7  -2   6   12.35    4.15
   7  -2   6   15.06    3.72
  -7   2  -7   71.31    5.92
  -7   2  -7   76.22    6.43
   7  -2   7   57.69    5.50
   7  -2   7   68.77    5.92
  -7   2  -8  216.31   12.27
  -7   2  -8  235.09   13.28
   7  -2   8  193.64   11.59
   7  -2   8  209.62   12.01
  -7   2  -9   -2.79    5.67
  -7   2  -9   -0.76    5.16
   7  -2   9   -2.88    5.41
   7  -2   9   -2.54    4.91
  -7   2 -10  143.73    9.47
  -7   2 -10  128.84    9.14
   7  -2  10  142.20    9.31
   7  -2  10  134.59    9.31
  -7   1  15   52.53    6.34
  -7   1  15   33.84    5.67
   7  -1 -15   39.34    6.18
   7  -1 -15   58.96    6.94
  -7   1  14   11.59    4.91
  -7   1  14   14.21    4.99
   7  -1 -14   18.02    4.99
   7  -1 -14   10.15    5.41
  -7   1  13  925.46   46.95
  -7   1  13  951.68   48.30
   7  -1 -13  922.92   47.03
   7  -1 -13  911.92   46.27
  -7   1  12  253.19   13.87
  -7   1  12  250.57   13.62
   7  -1 -12  259.28   14.55
   7  -1 -12  245.15   13.45
  -7   1  11   85.27    6.01
  -7   1  11   93.56    6.77
   7  -1 -11   83.66    6.43
  -7   1  10  254.20   13.70
  -7   1  10  259.70   13.87
   7  -1 -10  251.84   13.54
   7  -1 -10  253.19   13.62
  -7   1   9   78.33    5.24
  -7   1   9   75.29    4.91
   7  -1  -9   71.74    4.91
   7  -1  -9   81.21    5.16
  -7   1   8   10.32    2.28
  -7   1   8    9.05    2.11
   7  -1  -8    9.81    2.45
   7  -1  -8    6.26    2.28
  -7   1   7  186.61    9.56
  -7   1   7  180.02    9.31
   7  -1  -7  175.87    9.14
   7  -1  -7  178.49    9.22
   7  -1   2  365.36   18.61
   7  -1   2  393.95   19.88
  -7   1  -3  660.51   33.41
  -7   1  -3  596.73   30.03
   7  -1   3  640.80   32.48
   7  -1   3  571.69   28.85
  -7   1  -4  211.40   11.08
  -7   1  -4  242.36   12.94
   7  -1   4  227.05   12.10
   7  -1   4  215.04   11.25
  -7   1  -5  859.47   43.65
  -7   1  -5  832.49   42.04
   7  -1   5  769.72   39.08
   7  -1   5  846.78   42.80
  -7   1  -6  744.43   37.81
  -7   1  -6  726.75   37.14
   7  -1   6  718.29   36.63
   7  -1   6  685.72   35.02
  -7   1  -7   38.57    4.65
  -7   1  -7   27.58    4.65
   7  -1   7   24.87    4.15
   7  -1   7   36.46    4.82
  -7   1  -8    3.72    4.48
  -7   1  -8    1.95    4.74
   7  -1   8    5.92    4.06
   7  -1   8    3.30    4.57
  -7   1  -9  390.32   20.56
  -7   1  -9  378.13   20.13
   7  -1   9  403.94   21.32
   7  -1   9  345.74   18.44
  -7   1 -10  129.09    8.88
  -7   1 -10  107.01    8.12
   7  -1  10   94.66    7.19
   7  -1  10  107.94    7.78
  -7   0  15   -1.02    5.16
  -7   0  15   -0.85    5.16
   7   0 -15   -3.72    5.92
   7   0 -15   -1.86    5.75
  -7   0  14   13.96    5.50
  -7   0  14    8.80    4.74
   7   0 -14    8.54    5.67
   7   0 -14   15.40    5.24
  -7   0  13   40.61    5.24
  -7   0  13   36.21    4.91
   7   0 -13   50.42    5.75
   7   0 -13   38.74    5.58
  -7   0  12   57.19    5.50
  -7   0  12   74.10    5.75
   7   0 -12   56.17    5.50
   7   0 -12   58.62    6.01
  -7   0  11    8.37    3.89
  -7   0  11    1.69    3.81
   7   0 -11   11.42    4.48
   7   0 -11    4.06    4.06
  -7   0  10   26.48    3.47
  -7   0  10   32.65    4.06
   7   0 -10   29.78    3.64
   7   0 -10   28.25    3.98
  -7   0   9   17.34    3.13
  -7   0   9   13.62    2.45
   7   0  -9   12.94    3.05
   7   0  -9   17.00    2.54
  -7   0   8 1214.77   61.08
  -7   0   8 1215.61   60.99
   7   0  -8 1196.16   60.15
   7   0  -8 1183.47   59.38
  -7   0   7   60.57    3.81
  -7   0   7   63.53    3.55
   7   0  -7   51.94    3.47
   7   0  -7   58.03    3.38
   7   0  -6  383.80   19.54
   7   0  -6  350.05   17.76
   7   0   1  323.99   16.58
   7   0   1  305.55   15.57
  -7   0  -2  361.39   18.27
  -7   0  -2  350.56   17.93
   7   0   2  336.51   17.26
   7   0   2  348.61   17.60
   7   0   3  542.08   27.41
   7   0   3  531.33   27.07
  -7   0  -4  116.74    6.43
  -7   0  -4  120.88    7.28
   7   0   4  115.56    6.43
   7   0   4  114.46    6.94
  -7   0  -5   12.44    2.79
  -7   0  -5   11.00    4.23
   7   0   5    8.97    2.62
   7   0   5    7.87    3.89
  -7   0  -6  270.87   14.13
   7   0   6  287.28   15.57
   7   0   6  267.91   14.21
  -7   0  -7  116.82    8.04
  -7   0  -7  102.44    6.34
   7   0   7  101.94    7.36
   7   0   7   94.75    6.34
  -7   0  -8  134.17    7.95
  -7   0  -8  141.19    9.47
   7   0   8  153.54    9.64
   7   0   8  135.86    8.37
  -7   0  -9   97.03    7.70
  -7   0  -9   92.12    6.34
   7   0   9   90.68    6.34
   7   0   9   89.67    7.19
  -7  -1  15  182.72   10.74
  -7  -1  15  181.28   10.83
   7   1 -15  208.35   12.01
   7   1 -15  201.84   12.44
  -7  -1  14   44.07    5.41
  -7  -1  14   58.20    6.68
   7   1 -14   47.54    6.85
   7   1 -14   59.55    5.92
  -7  -1  13   76.73    6.85
  -7  -1  13   70.81    5.67
   7   1 -13   69.96    5.84
   7   1 -13   63.36    6.94
  -7  -1  12  155.40    9.81
  -7  -1  12  132.39    7.78
   7   1 -12  146.43    8.54
   7   1 -12  142.79    9.56
  -7  -1  11   14.63    3.38
  -7  -1  11   16.92    4.48
   7   1 -11   19.29    3.38
   7   1 -11   30.96    5.58
  -7  -1  10   39.59    3.47
  -7  -1  10   43.99    4.82
   7   1 -10   37.73    3.21
   7   1 -10   48.47    5.08
  -7  -1   9   56.34    4.91
  -7  -1   9   51.35    3.81
   7   1  -9   53.21    3.64
   7   1  -9   49.40    4.74
  -7  -1   8  789.26   39.67
  -7  -1   8  715.07   36.29
   7   1  -8  714.40   36.29
   7   1  -8  784.19   39.51
  -7  -1   7 1206.31   60.74
  -7  -1   7 1114.95   55.92
   7   1  -7 1160.63   58.20
   7   1  -7 1186.01   59.72
  -7  -1   6  517.88   26.14
  -7  -1   6  504.94   25.63
   7   1  -6  525.16   26.65
   7   1  -6  492.84   24.79
   7   1   0 1402.57   70.81
   7   1   0 1553.14   78.42
  -7  -1  -1   77.83    4.31
  -7  -1  -1   69.62    4.31
   7   1   1   68.94    3.81
   7   1   1   63.87    4.15
  -7  -1  -2    0.68    2.71
  -7  -1  -2    4.40    1.27
   7   1   2    4.06    1.35
   7   1   2    6.26    3.05
  -7  -1  -3  395.90   20.05
  -7  -1  -3  403.68   20.98
   7   1   3  381.26   19.88
   7   1   3  364.77   18.53
  -7  -1  -4  165.55    9.98
  -7  -1  -4  199.73   10.57
   7   1   4  162.59    8.71
   7   1   4  149.31    9.05
  -7  -1  -5  147.70    8.29
  -7  -1  -5  134.34    8.71
   7   1   5  137.21    7.78
   7   1   5  125.28    8.21
  -7  -1  -6   47.96    6.01
  -7  -1  -6   46.27    3.98
   7   1   6   47.46    4.31
   7   1   6   44.41    5.75
  -7  -1  -7   50.33    4.40
  -7  -1  -7   46.36    6.68
   7   1   7   50.25    4.48
   7   1   7   50.08    6.18
  -7  -1  -8  202.60   11.00
  -7  -1  -8  248.88   14.55
   7   1   8  191.69   10.66
   7   1   8  223.84   12.94
  -7  -1  -9   49.40    7.36
  -7  -1  -9   49.32    4.82
   7   1   9   42.30    6.68
   7   1   9   51.09    5.16
  -7  -2  14   96.44    8.21
  -7  -2  14   86.45    6.09
   7   2 -14   76.47    5.67
   7   2 -14   89.08    8.46
  -7  -2  13  596.98   31.13
  -7  -2  13  514.84   26.31
   7   2 -13  580.99   30.62
   7   2 -13  531.17   27.15
  -7  -2  12  229.16   12.27
  -7  -2  12  268.16   15.40
   7   2 -12  247.52   14.55
   7   2 -12  239.06   12.69
  -7  -2  11  248.62   13.11
  -7  -2  11  264.69   14.63
   7   2 -11  239.06   12.69
   7   2 -11  259.36   15.06
  -7  -2  10  106.08    7.70
  -7  -2  10  116.49    6.94
   7   2 -10   99.99    6.01
   7   2 -10  100.41    7.70
  -7  -2   9   61.50    5.67
  -7  -2   9   63.02    4.31
   7   2  -9   65.39    4.40
   7   2  -9   59.89    5.50
  -7  -2   8  504.26   25.97
  -7  -2   8  472.03   23.86
   7   2  -8  512.39   25.89
   7   2  -8  494.28   25.55
  -7  -2   7 2878.73  144.40
  -7  -2   7 2882.11  144.23
   7   2  -7 2897.34  145.25
   7   2  -7 2893.11  144.74
  -7  -2   6  488.11   24.62
  -7  -2   6  467.89   23.94
   7   2  -6  465.86   23.86
   7   2  -6  445.47   22.50
  -7  -2   5   19.54    2.54
  -7  -2   5   15.14    1.78
   7   2  -5   18.78    2.71
   7   2  -5   20.22    1.95
  -7  -2   4   34.09    2.88
  -7  -2   4   29.35    2.37
   7   2  -4   30.62    2.45
   7   2  -4   29.61    2.88
  -7  -2   3  238.39   12.35
  -7  -2   3  231.53   12.01
   7   2  -3  239.82   12.44
   7   2  -3  225.78   11.67
  -7  -2   2    0.17    1.69
  -7  -2   2    1.69    2.20
   7   2  -2   -1.44    2.11
   7   2  -2   -4.31    2.11
  -7  -2   1  242.02   12.52
  -7  -2   1  236.95   12.44
   7   2  -1  220.54   11.42
   7   2  -1  236.69   12.44
  -7  -2   0  318.92   16.24
  -7  -2   0  324.84   16.92
   7   2   0  317.31   16.41
   7   2   0  290.83   14.89
  -7  -2  -1  431.01   22.25
  -7  -2  -1  461.88   23.43
   7   2   1  440.31   22.33
   7   2   1  395.39   20.47
  -7  -2  -2   49.91    3.30
  -7  -2  -2   52.28    4.99
   7   2   2   53.04    4.82
   7   2   2   42.72    2.88
  -7  -2  -3  361.98   18.44
  -7  -2  -3  352.76   18.86
   7   2   3  347.17   18.36
   7   2   3  348.87   17.76
  -7  -2  -4  125.88    8.63
  -7  -2  -4  127.48    7.11
   7   2   4  117.08    8.21
  -7  -2  -5  347.43   17.85
  -7  -2  -5  345.06   18.70
   7   2   5  326.28   16.92
   7   2   5  307.92   16.83
  -7  -2  -6   70.89    7.28
  -7  -2  -6   84.00    5.67
   7   2   6   80.36    5.58
   7   2   6   73.26    6.94
  -7  -2  -7   33.16    4.06
  -7  -2  -7   22.84    6.34
   7   2   7   28.25    3.98
   7   2   7   18.36    5.92
  -7  -2  -8   38.24    7.53
  -7  -2  -8   54.22    5.08
   7   2   8   49.06    6.85
   7   2   8   44.07    4.65
  -7  -3  14  371.87   20.56
  -7  -3  14  338.63   17.76
   7   3 -14  386.59   21.49
   7   3 -14  350.98   18.27
  -7  -3  13   91.28    7.95
  -7  -3  13   83.24    5.84
   7   3 -13   81.13    8.80
   7   3 -13   76.39    5.41
  -7  -3  12  220.54   13.11
  -7  -3  12  254.71   13.62
   7   3 -12  232.80   14.13
   7   3 -12  236.27   12.60
  -7  -3  11   96.10    7.53
  -7  -3  11  104.81    6.43
   7   3 -11  106.59    6.51
   7   3 -11   99.48    8.29
   7   3 -10  185.09   11.67
   7   3 -10  214.36   11.42
  -7  -3   9    7.28    2.54
  -7  -3   9   16.83    5.16
   7   3  -9    8.29    5.16
   7   3  -9   11.84    2.62
  -7  -3   8  271.63   13.96
  -7  -3   8  262.83   14.55
   7   3  -8  256.83   14.30
   7   3  -8  268.50   13.87
  -7  -3   7  677.34   34.60
  -7  -3   7  700.52   35.28
   7   3  -7  673.11   33.92
   7   3  -7  704.75   36.04
  -7  -3   6  585.47   29.95
  -7  -3   6  620.92   31.38
  -7  -3   5  127.99    7.61
  -7  -3   5  115.64    6.43
   7   3  -5  120.12    6.60
   7   3  -5  123.93    7.53
  -7  -3   4    1.61    2.37
  -7  -3   4    3.30    2.96
   7   3  -4    0.17    2.03
   7   3  -4    5.92    2.96
  -7  -3   3  490.90   25.04
  -7  -3   3  539.62   27.49
   7   3  -3  501.98   25.63
   7   3  -3  532.69   27.15
  -7  -3   2  468.90   24.11
  -7  -3   2  477.70   24.45
   7   3  -2  408.84   21.06
   7   3  -2  432.27   22.16
  -7  -3   1  154.30    8.88
  -7  -3   1  140.09    7.78
   7   3  -1  133.40    7.36
   7   3  -1  133.40    7.78
  -7  -3   0    6.34    4.23
  -7  -3   0    2.54    2.37
   7   3   0    3.89    2.28
   7   3   0    1.35    3.72
  -7  -3  -1   24.96    3.13
  -7  -3  -1   17.09    4.48
   7   3   1   24.79    2.88
   7   3   1   12.69    3.98
  -7  -3  -2  165.97   10.24
  -7  -3  -2  175.36    9.39
   7   3   2  164.11    9.98
   7   3   2  155.99    8.46
  -7  -3  -3  130.11    9.05
   7   3   3  114.71    8.37
   7   3   3  111.33    6.43
  -7  -3  -4   58.79    6.09
  -7  -3  -4   55.75    3.89
   7   3   4   55.24    6.09
   7   3   4   49.99    3.89
  -7  -3  -5   53.21    4.06
  -7  -3  -5   46.78    6.77
   7   3   5   51.52    4.06
   7   3   5   53.29    6.34
  -7  -3  -6  351.57   18.10
  -7  -3  -6  343.87   18.95
   7   3   6  334.48   17.34
   7   3   6  330.25   18.19
  -7  -3  -7   58.54    4.57
  -7  -3  -7   51.09    7.36
   7   3   7   59.64    4.91
   7   3   7   50.84    7.28
   7   4 -13  224.17   14.21
   7   4 -13  270.45   14.38
  -7  -4  12   35.95    6.51
  -7  -4  12   44.50    4.23
   7   4 -12   41.96    4.31
   7   4 -12   40.35    7.02
  -7  -4  11    5.41    5.84
  -7  -4  11    2.54    3.13
   7   4 -11    1.44    6.60
   7   4 -11    2.71    3.13
  -7  -4  10  144.91    9.98
  -7  -4  10  146.43    8.04
   7   4 -10  149.65    8.21
   7   4 -10  141.78    9.81
  -7  -4   9   10.41    5.75
  -7  -4   9   14.89    2.62
   7   4  -9   12.18    2.79
   7   4  -9    4.91    5.58
  -7  -4   8    5.67    2.71
  -7  -4   8    5.50    5.08
   7   4  -8    6.85    5.67
   7   4  -8    4.31    2.37
  -7  -4   7  113.78    8.29
  -7  -4   7  109.55    6.34
  -7  -4   6   26.56    3.21
  -7  -4   6   21.57    4.91
   7   4  -6   29.69    3.47
   7   4  -6   23.77    4.74
  -7  -4   5   96.27    6.01
  -7  -4   5  107.27    7.36
   7   4  -5   99.31    6.01
   7   4  -5  102.10    6.77
  -7  -4   4    0.93    2.96
  -7  -4   4   -2.71    3.72
   7   4  -4    1.61    3.64
   7   4  -4    1.44    2.71
  -7  -4   3  216.05   11.93
  -7  -4   3  231.36   12.77
   7   4  -3  186.78   10.41
   7   4  -3  218.34   12.10
  -7  -4   2  320.19   17.00
  -7  -4   2  305.89   16.24
   7   4  -2  280.18   14.89
   7   4  -2  298.79   15.90
  -7  -4   1  493.10   25.29
  -7  -4   1  526.94   27.24
   7   4  -1  503.76   26.05
   7   4  -1  457.65   23.43
  -7  -4   0   21.15    4.99
  -7  -4   0   15.23    3.47
   7   4   0   23.18    4.65
   7   4   0   23.77    3.47
  -7  -4  -1   32.31    6.01
   7   4   1   30.28    4.15
   7   4   1   31.64    5.50
  -7  -4  -2    3.13    3.21
  -7  -4  -2   -1.52    5.75
   7   4   2    5.92    5.41
   7   4   2    4.06    3.30
  -7  -4  -3  468.57   24.87
  -7  -4  -3  466.20   23.77
   7   4   3  438.03   22.42
   7   4   3  448.77   23.94
  -7  -4  -4  249.89   14.55
  -7  -4  -4  234.92   12.44
   7   4   4  231.96   13.54
   7   4   4  218.93   11.59
  -7  -4  -5   19.88    3.21
  -7  -4  -5   19.88    6.43
   7   4   5   12.60    3.05
   7   4   5   15.90    6.01
  -7  -4  -6   11.42    7.02
  -7  -4  -6   -2.11    3.21
   7   4   6    4.74    2.88
   7   4   6   -0.25    6.26
  -7  -5  12  126.55    7.44
  -7  -5  12  123.85    9.73
   7   5 -12  140.76   10.91
   7   5 -12  152.95    8.54
  -7  -5  11   13.28    3.13
  -7  -5  11    8.71    7.02
   7   5 -11   10.41    2.96
   7   5 -11   19.46    6.85
  -7  -5  10   72.24    7.70
  -7  -5  10   66.91    4.65
   7   5 -10   76.39    4.99
   7   5 -10   63.70    7.78
  -7  -5   9  212.42   11.17
  -7  -5   9  220.03   13.45
   7   5  -9  213.94   11.34
   7   5  -9  226.20   13.79
  -7  -5   8  236.27   12.44
  -7  -5   8  227.05   13.28
   7   5  -8  219.18   11.59
   7   5  -8  232.29   14.13
  -7  -5   7  102.02    6.26
  -7  -5   7   85.95    7.36
  -7  -5   6   30.62    3.64
  -7  -5   6   28.51    5.58
   7   5  -6   32.23    3.89
   7   5  -6   24.19    5.41
  -7  -5   5   11.67    5.08
  -7  -5   5   10.15    3.21
   7   5  -5    5.58    4.99
   7   5  -5    8.71    3.30
  -7  -5   4   -6.60    5.33
   7   5  -4    1.27    3.30
   7   5  -4    5.16    5.16
  -7  -5   3    9.81    5.08
  -7  -5   3   14.80    4.74
   7   5  -3   20.30    5.67
   7   5  -3   13.45    4.40
  -7  -5   2   25.04    4.91
   7   5  -2   21.74    4.99
   7   5  -2   29.52    5.16
  -7  -5   1    6.43    5.58
  -7  -5   1   13.11    3.81
   7   5  -1   16.66    5.08
   7   5  -1   17.76    3.89
  -7  -5   0  453.25   23.86
  -7  -5   0  430.58   22.16
   7   5   0  389.89   20.30
   7   5   0  397.00   21.06
  -7  -5  -1   24.19    5.67
  -7  -5  -1   27.24    4.15
   7   5   1   21.23    5.58
   7   5   1   29.78    4.65
  -7  -5  -2  112.51    7.11
  -7  -5  -2  106.17    8.37
   7   5   2   97.96    6.51
   7   5   2   75.71    7.11
  -7  -5  -3    2.62    3.55
  -7  -5  -3   -7.36    6.77
   7   5   3    6.09    6.26
   7   5   3    7.53    3.72
  -7  -5  -4  721.84   37.39
  -7  -5  -4  702.04   35.53
   7   5   4  719.56   37.22
   7   5   4  671.42   34.01
  -7  -5  -5  281.53   14.89
  -7  -5  -5  272.14   16.50
   7   5   5  264.53   15.57
   7   5   5  256.23   13.54
  -7  -6  10   21.57    7.95
  -7  -6  10   13.11    3.30
   7   6 -10   18.27    7.36
   7   6 -10    9.64    3.38
  -7  -6   9   75.71    5.16
  -7  -6   9   73.34    8.12
   7   6  -9   76.73    8.29
   7   6  -9   69.45    4.82
  -7  -6   8  110.23    9.22
  -7  -6   8  116.23    7.02
   7   6  -8  108.62    6.26
   7   6  -8  107.60    9.22
  -7  -6   7  407.49   20.98
  -7  -6   7  405.37   21.83
   7   6  -7  453.51   23.26
   7   6  -7  394.72   21.32
  -7  -6   6   81.46    7.53
  -7  -6   6   89.92    5.92
   7   6  -6   94.91    7.70
   7   6  -6   83.75    5.75
  -7  -6   5  201.93   11.00
  -7  -6   5  209.37   12.35
   7   6  -5  196.26   10.74
   7   6  -5  217.15   12.86
  -7  -6   4    2.62    5.75
  -7  -6   4    5.08    3.89
   7   6  -4    7.36    6.26
   7   6  -4    1.02    3.72
  -7  -6   3  126.89    8.29
  -7  -6   3  118.77    8.80
   7   6  -3  105.07    7.36
   7   6  -3  120.97    8.80
  -7  -6   2  243.80   13.70
  -7  -6   2  235.93   13.20
   7   6  -2  209.37   12.18
   7   6  -2  203.62   11.93
  -7  -6   1   30.12    5.84
  -7  -6   1   32.40    4.91
   7   6  -1   33.16    5.58
   7   6  -1   30.54    4.57
  -7  -6   0   54.14    6.60
  -7  -6   0   51.35    5.16
   7   6   0   41.37    4.65
   7   6   0   44.92    5.84
  -7  -6  -1  125.96    9.47
  -7  -6  -1  123.34    7.87
   7   6   1  126.04    7.87
   7   6   1  111.33    8.37
  -7  -6  -2    9.98    4.40
  -7  -6  -2    7.36    7.02
   7   6   2    7.28    6.34
   7   6   2    1.52    4.82
  -7  -6  -3   -6.26    8.37
  -7  -6  -3   -3.98    4.74
   7   6   3    1.61    6.94
   7   6   3    2.79    4.91
  -7  -7   7   25.04    7.61
  -7  -7   7   27.92    4.74
   7   7  -7   33.84    7.11
   7   7  -7   37.56    4.91
  -7  -7   6  150.92    9.05
  -7  -7   6  139.92   10.15
   7   7  -6  147.45    8.71
   7   7  -6  137.21    9.73
  -7  -7   5   39.42    6.43
  -7  -7   5   37.64    4.82
   7   7  -5   37.39    7.44
   7   7  -5   32.48    4.57
  -7  -7   4  128.33    9.64
  -7  -7   4  104.81    7.36
   7   7  -4  104.30    7.19
   7   7  -4  115.47    9.39
  -7  -7   3   22.42    5.67
  -7  -7   3   24.28    6.60
   7   7  -3   19.54    6.77
   7   7  -3   24.62    5.58
  -7  -7   2  190.59   11.84
  -7  -7   2  179.00   11.34
   7   7  -2  162.76   10.66
   7   7  -2  166.90   10.66
  -7  -7   1  278.23   15.23
  -7  -7   1  289.23   16.33
   7   7  -1  258.52   14.55
   7   7  -1  280.34   15.90
  -8  10   6  185.85   11.76
  -8  10   6  181.54   10.32
   8 -10  -6  184.16   10.83
   8 -10  -6  192.70   12.10
  -8  10   5    2.45    4.23
  -8  10   5    1.44    6.09
   8 -10  -5   -2.88    4.82
   8 -10  -5    1.44    5.58
  -8  10   4   94.07    7.78
  -8  10   4   78.33    6.34
   8 -10  -4   66.58    6.26
   8 -10  -4   88.40    7.53
  -8  10   3   34.60    5.16
  -8  10   3   36.46    6.34
   8 -10  -3   31.89    5.75
   8 -10  -3   33.08    5.16
  -8  10   2  163.35    9.98
  -8  10   2  169.36   10.66
   8 -10  -2  158.70    9.31
   8 -10  -2  174.43   11.34
  -8  10   1   49.66    5.16
  -8  10   1   46.78    6.43
   8 -10  -1   57.69    7.78
   8 -10  -1   46.44    4.65
  -8  10   0   69.79    5.75
  -8  10   0   84.00    8.21
   8 -10   0   70.38    5.50
   8 -10   0   69.96    8.04
  -8  10  -1   55.16    6.77
  -8  10  -1   60.48    5.41
   8 -10   1   54.39    5.16
   8 -10   1   46.78    7.28
  -8  10  -2   15.73    4.74
  -8  10  -2    3.47    6.18
   8 -10   2    7.02    3.98
   8 -10   2    8.37    6.77
  -8   9   8  133.40    9.98
  -8   9   8  145.42    8.63
   8  -9  -8  154.05    9.39
   8  -9  -8  139.66    9.90
  -8   9   7    1.35    3.55
  -8   9   7    4.06    6.34
   8  -9  -7    2.20    4.82
   8  -9  -7    7.02    5.84
  -8   9   6   23.94    6.09
  -8   9   6   33.16    4.15
   8  -9  -6   21.66    4.65
   8  -9  -6   36.71    6.34
  -8   9   5   94.75    7.36
  -8   9   5   92.04    6.26
   8  -9  -5   90.18    7.53
   8  -9  -5   75.12    5.92
  -8   9   4   69.37    6.51
  -8   9   4   54.06    5.16
   8  -9  -4   61.42    6.60
   8  -9  -4   47.12    5.41
  -8   9   3   -2.03    4.74
  -8   9   3    6.60    5.24
   8  -9  -3    4.23    4.74
   8  -9  -3   -4.15    5.16
  -8   9   2  212.92   11.93
  -8   9   2  240.16   13.79
   8  -9  -2  223.84   13.28
   8  -9  -2  215.97   11.76
  -8   9   1  782.66   40.18
  -8   9   1  674.38   34.26
   8  -9  -1  681.07   34.51
   8  -9  -1  766.08   39.51
  -8   9   0   27.07    3.98
  -8   9   0   28.34    5.24
   8  -9   0   24.36    3.81
   8  -9   0   30.12    6.43
  -8   9  -1  168.43   10.49
  -8   9  -1  162.84    9.22
   8  -9   1  146.77    9.98
   8  -9   1  169.44    9.56
  -8   9  -2   45.26    4.65
  -8   9  -2   56.93    6.77
   8  -9   2   52.03    4.40
   8  -9   2   68.10    7.61
   8  -9   3  567.54   28.76
   8  -9   3  533.28   28.25
  -8   9  -4   13.70    7.02
  -8   9  -4   23.09    3.64
   8  -9   4   27.49    7.61
   8  -9   4   18.02    3.30
  -8   8  10   -2.88    3.05
  -8   8  10   10.49    6.85
   8  -8 -10    0.00    6.01
   8  -8 -10    1.86    3.72
  -8   8   9    7.11    6.60
  -8   8   9    4.31    3.13
   8  -8  -9   13.11    6.60
   8  -8  -9    0.00    3.47
  -8   8   8  165.72   10.83
  -8   8   8  173.59    9.56
   8  -8  -8  168.26    9.73
   8  -8  -8  165.47   10.91
  -8   8   7    8.21    5.84
  -8   8   7    2.71    3.64
   8  -8  -7   -6.01    4.23
   8  -8  -7    5.50    5.41
  -8   8   6   13.20    3.47
  -8   8   6   10.91    5.16
   8  -8  -6   12.86    5.50
   8  -8  -6   18.53    4.57
  -8   8   5   12.01    5.16
  -8   8   5    4.31    3.38
   8  -8  -5   17.09    5.24
   8  -8  -5    9.22    3.98
  -8   8   4  248.37   13.37
  -8   8   4  277.81   15.31
   8  -8  -4  228.91   12.69
   8  -8  -4  260.63   14.38
  -8   8   3   65.39    6.26
  -8   8   3   56.09    5.33
   8  -8  -3   47.96    5.67
   8  -8  -3   57.69    5.50
  -8   8   2    5.16    4.91
  -8   8   2    6.77    4.40
   8  -8  -2    0.51    5.67
   8  -8  -2    5.08    3.55
  -8   8   1   53.97    6.01
  -8   8   1   45.77    4.40
   8  -8  -1   39.59    6.26
   8  -8  -1   38.41    3.98
  -8   8   0  441.75   23.18
  -8   8   0  401.74   20.64
   8  -8   0  436.34   23.18
   8  -8   0  431.09   22.16
  -8   8  -1    1.86    5.08
  -8   8  -1   -0.51    3.38
   8  -8   1    5.92    5.41
   8  -8   1   -1.44    3.21
  -8   8  -2  109.38    6.85
  -8   8  -2   92.71    7.53
   8  -8   2   99.23    6.09
   8  -8   2   88.91    8.37
  -8   8  -3   95.42    5.75
  -8   8  -3   91.11    7.78
   8  -8   3   87.64    8.12
   8  -8   3   96.10    5.84
  -8   8  -4  859.47   43.23
  -8   8  -4  917.00   46.87
   8  -8   4  890.77   45.77
   8  -8   4  904.31   45.51
  -8   8  -5  113.78    8.97
  -8   8  -5  106.50    6.34
   8  -8   5  102.19    9.22
   8  -8   5   98.30    5.92
  -8   8  -6  578.88   30.37
  -8   8  -6  565.68   28.76
   8  -8   6  529.30   26.82
   8  -8   6  555.44   29.52
  -8   7  11  168.43   11.08
  -8   7  11  162.84    8.97
   8  -7 -11  165.04    9.14
   8  -7 -11  166.90   11.08
  -8   7  10    5.41    2.71
  -8   7  10    6.26    6.26
   8  -7 -10    1.02    3.05
   8  -7 -10    5.58    5.75
  -8   7   9    1.95    5.41
  -8   7   9   -0.17    2.71
   8  -7  -9   -2.11    5.75
   8  -7  -9   -1.86    3.30
  -8   7   8   55.16    6.60
  -8   7   8   57.86    4.31
   8  -7  -8   43.57    6.43
   8  -7  -8   49.49    4.48
  -8   7   7 1130.17   57.44
  -8   7   7 1176.70   59.22
   8  -7  -7 1159.78   58.88
   8  -7  -7 1114.95   56.25
  -8   7   6  172.32   10.74
  -8   7   6  172.49    9.56
   8  -7  -6  168.43    9.81
  -8   7   5   13.11    4.65
  -8   7   5    8.46    3.13
   8  -7  -5    4.57    3.55
   8  -7  -5    8.12    4.40
  -8   7   4   23.69    4.82
  -8   7   4   29.52    3.98
   8  -7  -4   21.32    3.64
   8  -7  -4   23.86    4.40
  -8   7   3  578.20   29.78
  -8   7   3  575.75   29.52
   8  -7  -3  563.73   28.93
   8  -7  -3  538.44   27.75
  -8   7   2   69.45    5.75
  -8   7   2   59.89    5.24
   8  -7  -2   66.74    5.84
   8  -7  -2   56.59    4.74
  -8   7   1   72.33    5.08
  -8   7   1   75.88    5.84
   8  -7  -1   77.23    6.09
   8  -7  -1   69.79    4.74
  -8   7   0   93.39    6.68
  -8   7   0   91.02    5.75
   8  -7   0   87.22    5.50
   8  -7   0   79.18    6.34
  -8   7  -1  389.22   20.05
  -8   7  -1  379.91   20.22
   8  -7   1  364.01   18.78
   8  -7   1  380.17   20.47
  -8   7  -2    1.69    4.99
  -8   7  -2    2.79    3.30
   8  -7   2   -0.42    5.58
  -8   7  -3   38.07    5.92
  -8   7  -3   34.43    3.47
   8  -7   3   31.05    3.21
   8  -7   3   36.97    6.34
  -8   7  -4    3.30    2.79
  -8   7  -4   -9.73    5.16
   8  -7   4    0.85    2.54
   8  -7   4    7.87    6.09
  -8   7  -5  366.80   19.79
  -8   7  -5  372.89   19.12
   8  -7   5  348.61   17.85
   8  -7   5  332.71   18.44
  -8   7  -6    5.58    6.34
  -8   7  -6   13.37    3.55
   8  -7   6    9.81    3.30
   8  -7   6   13.37    6.34
  -8   7  -7   96.27    6.34
  -8   7  -7   93.65    8.54
   8  -7   7   89.84    8.80
   8  -7   7   92.04    6.09
  -8   6  12   40.18    3.89
  -8   6  12   42.21    6.94
   8  -6 -12   39.00    3.98
   8  -6 -12   44.16    6.68
  -8   6  11    6.51    2.79
  -8   6  11   -0.68    6.01
   8  -6 -11    4.06    5.67
   8  -6 -11    0.51    3.21
  -8   6  10   64.55    4.48
  -8   6  10   67.84    6.77
   8  -6 -10   59.98    6.51
   8  -6 -10   70.89    4.91
  -8   6   9    7.44    2.54
  -8   6   9    1.52    5.33
   8  -6  -9    7.28    2.88
   8  -6  -9    0.85    5.24
  -8   6   8   -0.59    4.99
  -8   6   8    2.71    2.37
   8  -6  -8   -1.02    2.88
   8  -6  -8   -1.35    5.08
  -8   6   7   47.63    5.75
  -8   6   7   58.62    4.31
   8  -6  -7   46.44    3.81
   8  -6  -7   48.64    5.58
  -8   6   6  992.29   49.91
  -8   6   6 1017.66   51.69
   8  -6  -6  977.91   49.32
   8  -6  -6 1015.13   51.43
  -8   6   5   30.28    4.74
  -8   6   5   23.43    2.71
   8  -6  -5   30.71    4.40
   8  -6  -5   20.22    2.88
  -8   6   4   26.99    4.06
  -8   6   4   22.42    3.30
   8  -6  -4   19.03    3.05
   8  -6  -4   18.86    3.38
  -8   6   3   20.13    3.55
  -8   6   3   25.38    3.72
   8  -6  -3   24.02    3.81
   8  -6  -3   19.88    3.30
  -8   6   2 1687.65   84.85
  -8   6   2 1882.21   94.58
   8  -6  -2 1784.09   89.58
   8  -6  -2 1646.20   82.73
  -8   6   1  533.70   27.32
  -8   6   1  510.95   26.05
   8  -6  -1  474.32   24.11
   8  -6  -1  508.32   26.05
  -8   6   0  328.22   16.92
  -8   6   0  361.98   18.95
   8  -6   0  318.58   16.33
   8  -6   0  328.39   17.26
  -8   6  -1    9.22    4.15
  -8   6  -1    8.71    2.88
   8  -6   1    7.02    3.98
   8  -6   1   13.62    2.45
  -8   6  -2  457.15   23.18
  -8   6  -2  446.57   23.26
   8  -6   2  450.12   22.84
   8  -6   2  437.86   22.92
  -8   6  -3   93.90    5.58
  -8   6  -3   91.02    6.94
   8  -6   3   90.77    7.02
   8  -6   3   87.05    5.16
  -8   6  -4  121.31    8.63
  -8   6  -4  120.88    6.94
   8  -6   4  126.64    7.02
   8  -6   4  121.82    8.88
  -8   6  -5   32.65    6.01
  -8   6  -5   31.30    3.47
   8  -6   5   35.53    3.55
   8  -6   5   42.38    6.60
  -8   6  -6   37.64    3.98
  -8   6  -6   34.26    6.60
   8  -6   6   35.53    3.81
   8  -6   6   28.17    5.92
  -8   6  -7   16.66    4.15
  -8   6  -7   16.66    7.02
   8  -6   7   10.32    6.26
   8  -6   7   15.65    3.81
  -8   5  13  233.56   12.60
  -8   5  13  236.61   14.38
   8  -5 -13  240.84   14.13
   8  -5 -13  247.44   13.45
  -8   5  12  391.59   20.13
  -8   5  12  380.08   20.56
   8  -5 -12  443.44   22.84
   8  -5 -12  399.20   21.40
  -8   5  11   13.70    6.01
  -8   5  11   10.07    2.71
   8  -5 -11   11.84    5.33
   8  -5 -11   17.68    3.64
  -8   5  10   60.23    6.77
  -8   5  10   69.11    4.48
   8  -5 -10   64.55    6.34
   8  -5 -10   70.04    4.82
  -8   5   9  275.61   15.40
  -8   5   9  278.99   14.38
   8  -5  -9  291.85   15.14
   8  -5  -9  273.41   15.14
  -8   5   8  305.05   16.50
  -8   5   8  281.53   14.47
   8  -5  -8  296.08   15.90
   8  -5  -8  278.65   14.30
  -8   5   7   55.83    5.16
  -8   5   7   61.67    3.89
   8  -5  -7   52.53    3.47
   8  -5  -7   51.18    4.74
  -8   5   6    7.11    1.95
  -8   5   6    6.51    3.30
   8  -5  -6    2.62    2.45
   8  -5  -6    4.65    3.13
  -8   5   5  272.56   14.04
  -8   5   5  277.98   14.55
   8  -5  -5  255.47   13.20
   8  -5  -5  270.95   14.21
  -8   5   4   78.00    4.74
  -8   5   4   73.85    4.31
   8  -5  -4   85.27    5.08
   8  -5  -4   83.66    4.99
   8  -5  -3  194.99   10.24
   8  -5  -3  187.88    9.90
   8  -5  -2    7.19    2.03
   8  -5  -2    3.72    1.95
  -8   5   1  640.63   32.65
  -8   5   1  608.57   31.05
   8  -5  -1  710.34   35.95
   8  -5  -1  641.90   32.57
  -8   5   0  487.60   24.70
  -8   5   0  476.01   24.28
   8  -5   0  448.69   22.67
   8  -5   0  491.49   25.04
  -8   5  -1  176.29    9.56
  -8   5  -1  190.76    9.98
   8  -5   1  169.53    8.88
   8  -5   1  177.90    9.73
  -8   5  -2  171.05    8.97
  -8   5  -2  191.69   10.66
   8  -5   2  161.32    9.14
   8  -5   2  152.86    7.95
  -8   5  -3  217.49   11.34
  -8   5  -3  236.86   13.20
   8  -5   3  222.14   12.35
   8  -5   3  204.55   10.57
  -8   5  -4  537.34   27.24
  -8   5  -4  537.09   27.92
   8  -5   4  512.81   26.05
   8  -5   4  500.12   26.05
  -8   5  -5  321.37   16.75
  -8   5  -5  322.05   17.68
   8  -5   5  316.97   17.60
  -8   5  -6  356.73   18.53
  -8   5  -6  330.00   17.93
   8  -5   6  335.16   17.43
   8  -5   6  311.31   17.34
  -8   5  -7  121.98    8.97
  -8   5  -7  133.32    7.87
   8  -5   7  120.21    7.44
   8  -5   7  141.02    9.98
  -8   5  -8  111.33    8.97
  -8   5  -8  114.46    7.28
   8  -5   8  116.57    7.36
   8  -5   8  118.09    9.22
  -8   4  14  134.84    9.73
  -8   4  14  144.82    8.71
   8  -4 -14  145.16    8.71
   8  -4 -14  148.38   10.41
  -8   4  13   45.09    6.68
  -8   4  13   50.33    4.57
   8  -4 -13   57.52    4.99
   8  -4 -13   56.00    6.68
  -8   4  12  546.48   27.83
  -8   4  12  499.19   26.14
   8  -4 -12  521.86   27.32
   8  -4 -12  508.58   26.05
  -8   4  11  153.37    9.81
  -8   4  11  164.79    9.14
   8  -4 -11  178.75   10.07
   8  -4 -11  165.97   10.32
  -8   4  10    7.19    2.62
  -8   4  10    1.69    5.08
   8  -4 -10    2.37    3.21
   8  -4 -10    3.38    4.82
  -8   4   9   17.34    4.48
  -8   4   9   10.41    2.20
   8  -4  -9    5.67    4.06
   8  -4  -9   11.08    2.28
  -8   4   8  979.60   49.66
  -8   4   8  897.54   45.09
   8  -4  -8  956.76   48.39
   8  -4  -8  898.39   45.17
  -8   4   7  546.82   27.92
  -8   4   7  568.47   28.68
   8  -4  -7  526.43   26.82
   8  -4  -7  507.48   25.63
   8  -4  -6  797.55   40.27
   8  -4  -6  791.46   40.10
  -8   4  -2    3.55    2.11
  -8   4  -2    6.26    1.44
   8  -4   2    3.47    2.45
   8  -4   2    5.75    1.35
  -8   4  -3   48.56    3.21
  -8   4  -3   59.05    4.40
   8  -4   3   50.76    3.21
   8  -4   3   54.22    4.48
  -8   4  -4   21.15    4.06
  -8   4  -4   33.84    3.38
   8  -4   4   29.69    4.15
   8  -4   4   35.78    3.47
  -8   4  -5  271.88   14.80
  -8   4  -5  281.11   14.80
   8  -4   5  267.15   14.63
   8  -4   5  290.92   15.23
  -8   4  -6   40.77    3.98
  -8   4  -6   36.38    5.16
   8  -4   6   37.98    5.50
   8  -4   6   32.74    3.64
  -8   4  -7   55.83    4.65
  -8   4  -7   56.85    6.09
   8  -4   7   65.31    6.18
   8  -4   7   57.52    4.74
  -8   4  -8  153.37    8.88
  -8   4  -8  153.79    9.81
   8  -4   8  146.35    8.63
   8  -4   8  167.41   10.83
  -8   3  14  338.97   17.85
  -8   3  14  320.86   17.51
   8  -3 -14  356.99   18.70
   8  -3 -14  360.03   19.46
  -8   3  13   58.71    4.82
  -8   3  13   56.17    6.09
   8  -3 -13   59.64    6.34
   8  -3 -13   54.48    4.82
  -8   3  12   32.57    4.91
  -8   3  12   35.19    3.81
   8  -3 -12   32.48    4.06
   8  -3 -12   25.29    4.91
  -8   3  11   24.96    4.99
  -8   3  11   38.15    3.72
   8  -3 -11   36.54    4.99
   8  -3 -11   32.74    3.98
  -8   3  10  139.58    8.37
  -8   3  10  149.98    8.21
   8  -3 -10  151.08    8.37
   8  -3 -10  145.92    8.80
  -8   3   9    6.77    1.95
  -8   3   9    7.53    3.05
   8  -3  -9    5.92    2.45
   8  -3  -9   11.25    3.38
  -8   3   8  121.22    6.34
  -8   3   8  133.32    7.44
   8  -3  -8  130.27    6.85
   8  -3  -8  124.86    7.02
   8  -3  -7  195.92   10.24
   8  -3  -7  181.37    9.31
  -8   3  -3   94.75    5.41
  -8   3  -3   93.98    5.16
   8  -3   3   94.32    5.16
   8  -3   3   90.94    5.50
  -8   3  -4  358.34   18.61
  -8   3  -4  397.93   20.39
   8  -3   4  334.99   17.43
   8  -3   4  331.52   17.00
  -8   3  -5   38.15    4.74
  -8   3  -5   31.13    3.64
   8  -3   5   37.73    3.64
   8  -3   5   36.80    4.40
  -8   3  -6   46.61    4.15
  -8   3  -6   58.20    5.75
   8  -3   6   57.19    5.92
  -8   3  -7    7.70    4.99
  -8   3  -7    6.18    3.72
   8  -3   7    1.44    4.91
   8  -3   7    6.43    3.89
  -8   3  -8  110.99    7.36
  -8   3  -8  139.66    9.39
   8  -3   8  123.00    7.87
   8  -3   8  125.79    8.88
  -8   2  14  327.63   17.34
  -8   2  14  367.90   19.79
   8  -2 -14  351.57   18.86
   8  -2 -14  325.01   17.43
  -8   2  13  348.19   18.61
  -8   2  13  311.56   16.41
   8  -2 -13  319.51   16.92
   8  -2 -13  353.69   18.86
  -8   2  12  155.65    8.80
  -8   2  12  165.80    9.90
   8  -2 -12  181.37   10.83
   8  -2 -12  160.81    9.39
  -8   2  11    2.20    4.74
  -8   2  11    5.67    3.13
   8  -2 -11    6.18    3.30
   8  -2 -11    7.61    4.65
  -8   2  10  104.64    6.18
  -8   2  10  113.53    7.36
   8  -2 -10   96.52    5.75
   8  -2 -10  101.60    6.77
  -8   2   9  774.20   39.00
  -8   2   9  757.62   38.32
   8  -2  -9  794.84   40.01
   8  -2  -9  776.15   39.25
  -8   2   8  123.68    6.43
  -8   2   8  112.43    5.92
   8  -2  -8  134.59    7.19
   8  -2  -8  155.74    8.04
  -8   2  -3  476.43   24.19
  -8   2  -3  470.09   23.86
   8  -2   3  407.40   20.64
   8  -2   3  405.12   20.56
  -8   2  -4  292.10   14.97
  -8   2  -4  315.54   16.24
   8  -2   4  305.81   15.73
   8  -2   4  281.11   14.55
  -8   2  -5  443.10   22.67
  -8   2  -5  445.47   22.84
   8  -2   5  454.69   23.35
   8  -2   5  461.21   23.60
  -8   2  -6    1.61    3.98
  -8   2  -6    1.61    4.40
   8  -2   6    1.52    4.40
   8  -2   6    4.23    4.15
  -8   2  -7  141.95    8.80
  -8   2  -7  149.48    9.31
   8  -2   7  158.70    9.56
   8  -2   7  150.24    9.14
  -8   2  -8  181.62   11.00
  -8   2  -8  168.26   10.32
   8  -2   8  169.27   10.41
   8  -2   8  160.14   10.15
  -8   1  14   -1.35    5.50
  -8   1  14   -0.93    5.16
   8  -1 -14   -0.68    5.75
   8  -1 -14    0.00    5.50
  -8   1  13  239.99   13.54
  -8   1  13  212.67   11.93
   8  -1 -13  249.97   13.96
   8  -1 -13  232.38   13.28
  -8   1  12  163.77    9.73
  -8   1  12  165.47    9.73
   8  -1 -12  170.96   10.15
   8  -1 -12  177.73   10.66
  -8   1  11   21.66    4.23
  -8   1  11   13.70    3.81
   8  -1 -11   22.92    4.48
   8  -1 -11   14.38    4.23
  -8   1  10   12.44    3.05
  -8   1  10   13.62    3.13
   8  -1 -10   10.49    3.30
   8  -1 -10   10.83    3.21
  -8   1   9  182.64    9.64
  -8   1   9  178.92    9.39
   8  -1  -9  174.35    9.22
   8  -1  -9  183.32    9.73
   8  -1  -8 1228.30   62.01
   8  -1  -8 1306.13   65.90
   8  -1   3  201.25   10.32
   8  -1   3  202.18   10.57
  -8   1  -4  212.08   11.50
  -8   1  -4  234.24   12.18
   8  -1   4  210.89   11.34
   8  -1   4  197.36   10.49
  -8   1  -5  388.37   19.96
  -8   1  -5  401.48   20.98
   8  -1   5  324.59   16.83
   8  -1   5  383.30   19.96
  -8   1  -6  322.30   17.34
   8  -1   6  296.76   15.65
   8  -1   6  318.33   17.09
  -8   1  -7   12.60    5.84
  -8   1  -7    6.60    3.47
   8  -1   7    2.37    5.33
   8  -1   7   14.13    4.15
  -8   1  -8  233.73   13.62
  -8   1  -8  213.18   11.84
   8  -1   8  232.72   13.45
   8  -1   8  231.53   12.86
  -8   0  14    6.34    5.41
  -8   0  14    2.88    4.82
   8   0 -14    7.78    4.65
   8   0 -14   -0.25    6.09
  -8   0  13    2.37    4.15
  -8   0  13    5.24    4.91
   8   0 -13    2.96    4.99
   8   0 -13    0.42    4.23
  -8   0  12    1.35    4.65
  -8   0  12    3.47    3.55
   8   0 -12    5.41    3.47
   8   0 -12    0.25    4.48
  -8   0  11  173.16    9.56
  -8   0  11  202.77   11.67
   8   0 -11  208.35   11.93
   8   0 -11  173.08    9.56
  -8   0  10    9.90    2.88
  -8   0  10    2.79    3.81
   8   0 -10    9.98    3.89
   8   0 -10    5.75    2.71
  -8   0   9   11.34    2.79
  -8   0   9   13.87    2.20
   8   0  -9   17.17    2.45
   8   0  -9   12.69    3.13
   8   0  -8    1.10    1.18
   8   0  -8   -1.10    1.95
  -8   0  -3  318.33   16.58
  -8   0  -3  311.73   15.82
   8   0   3  316.47   16.50
   8   0   3  277.38   14.13
  -8   0  -4  262.16   14.13
  -8   0  -4  287.28   14.80
   8   0   4  278.99   14.38
   8   0   4  254.37   13.54
  -8   0  -5    1.52    3.64
  -8   0  -5   -2.88    4.82
   8   0   5    6.94    3.30
   8   0   5    4.74    3.72
  -8   0  -6    6.85    3.38
   8   0   6   -1.69    3.64
   8   0   6   -0.68    4.57
  -8   0  -7    2.20    5.50
  -8   0  -7    4.99    3.81
   8   0   7    8.88    5.08
   8   0   7    4.06    4.15
  -8  -1  14  557.81   28.93
  -8  -1  14  542.25   27.75
   8   1 -14  559.08   28.59
   8   1 -14  574.22   29.95
  -8  -1  13   10.07    3.81
  -8  -1  13    7.95    5.50
   8   1 -13    0.51    5.50
   8   1 -13    6.18    3.55
  -8  -1  12   86.45    6.85
  -8  -1  12   83.49    5.84
   8   1 -12   79.18    5.41
   8   1 -12   79.86    7.11
  -8  -1  11   44.24    5.92
  -8  -1  11   58.20    4.65
   8   1 -11   47.80    3.81
   8   1 -11   55.32    6.01
  -8  -1  10  272.22   14.89
  -8  -1  10  290.24   15.06
   8   1 -10  256.74   14.13
   8   1 -10  300.14   15.57
  -8  -1   9  122.66    7.36
  -8  -1   9  120.63    6.51
   8   1  -9  127.65    7.70
   8   1  -9  129.09    6.94
  -8  -1   8   70.64    3.98
  -8  -1   8   72.41    4.65
   8   1  -8   76.22    4.23
   8   1  -8   76.22    4.91
   8   1   2  451.48   22.84
   8   1   2  416.71   21.40
  -8  -1  -3  226.37   12.35
  -8  -1  -3  213.52   11.08
   8   1   3  200.40   11.00
   8   1   3  189.49    9.90
  -8  -1  -4  450.80   22.92
  -8  -1  -4  440.31   22.92
   8   1   4  420.09   21.40
   8   1   4  430.41   22.33
  -8  -1  -5  325.26   16.83
  -8  -1  -5  328.48   17.85
   8   1   5  323.49   16.75
   8   1   5  285.59   15.57
  -8  -1  -6   10.57    6.34
   8   1   6   15.14    5.75
   8   1   6   13.45    3.89
  -8  -1  -7    6.01    4.06
  -8  -1  -7    2.28    6.51
   8   1   7   -0.59    4.15
   8   1   7    1.44    5.92
  -8  -2  13  505.79   25.97
  -8  -2  13  443.02   23.52
   8   2 -13  471.53   24.19
   8   2 -13  456.64   24.53
  -8  -2  12   -0.08    3.72
  -8  -2  12   -0.17    6.18
   8   2 -12    3.64    3.81
   8   2 -12    6.09    6.43
  -8  -2  11   36.80    3.89
  -8  -2  11   32.57    5.92
   8   2 -11   39.93    6.34
   8   2 -11   43.57    4.06
  -8  -2  10    2.37    2.37
  -8  -2  10    4.65    5.75
   8   2 -10    6.18    5.33
   8   2 -10    2.20    2.54
  -8  -2   9  354.45   18.95
  -8  -2   9  327.29   16.66
   8   2  -9  357.66   19.12
   8   2  -9  320.36   16.33
  -8  -2   8  477.19   24.70
  -8  -2   8  487.09   24.70
   8   2  -8  453.08   22.92
   8   2  -8  459.77   23.86
  -8  -2   7  194.74   10.57
  -8  -2   7  166.57    8.71
   8   2  -7  198.20   10.32
   8   2  -7  216.56   11.76
   8   2   0    7.28    2.79
   8   2   0    7.36    2.28
  -8  -2  -1  168.09    8.88
  -8  -2  -1  190.08   10.49
   8   2   1  173.93    9.22
   8   2   1  200.32   10.91
  -8  -2  -2   39.17    3.64
  -8  -2  -2   29.02    4.57
   8   2   2   37.14    3.30
   8   2   2   30.71    4.23
  -8  -2  -3  121.39    6.94
  -8  -2  -3  120.46    8.12
   8   2   3  112.34    6.43
   8   2   3  109.63    7.36
  -8  -2  -4   25.04    3.47
  -8  -2  -4   21.32    6.26
   8   2   4   17.93    3.30
   8   2   4   18.95    5.50
  -8  -2  -5  107.27    6.34
  -8  -2  -5  105.66    9.22
   8   2   5   93.81    5.92
   8   2   5   91.19    8.29
  -8  -2  -6  127.06   10.49
  -8  -2  -6  114.54    6.85
   8   2   6  105.23    6.68
   8   2   6  111.83    9.22
  -8  -3  12   73.17    8.29
  -8  -3  12   53.12    4.57
   8   3 -12   70.30    8.71
   8   3 -12   65.48    5.08
  -8  -3  11   -6.43    6.34
  -8  -3  11    1.78    3.13
   8   3 -11    8.97    6.77
   8   3 -11   -0.17    3.05
  -8  -3  10    7.02    2.71
  -8  -3  10    6.09    6.09
   8   3 -10    7.11    6.51
   8   3 -10   13.20    2.96
  -8  -3   9  202.77   10.66
  -8  -3   9  197.95   12.10
   8   3  -9  208.10   10.91
   8   3  -9  212.92   12.69
  -8  -3   8  557.73   29.02
  -8  -3   8  638.09   32.23
   8   3  -8  558.24   28.17
   8   3  -8  552.74   28.76
  -8  -3   7  465.94   23.69
  -8  -3   7  433.21   22.67
   8   3  -7  440.06   22.33
   8   3  -7  413.66   21.66
  -8  -3   6   84.76    5.16
  -8  -3   6   94.15    6.51
   8   3  -6   96.27    6.60
   8   3  -6   91.87    5.41
  -8  -3   5   40.61    4.06
  -8  -3   5   43.90    3.81
   8   3  -5   53.55    4.48
   8   3  -5   59.81    4.91
  -8  -3   4  152.10    8.46
  -8  -3   4  142.37    8.04
   8   3  -4  163.10    9.14
   8   3  -4  156.08    8.80
  -8  -3   3  300.65   15.73
  -8  -3   3  285.08   14.97
   8   3  -3  289.31   15.23
   8   3  -3  275.95   14.55
  -8  -3   2  551.30   28.17
  -8  -3   2  560.43   28.68
   8   3  -2  557.81   28.51
   8   3  -2  523.13   26.73
  -8  -3   1  540.72   27.66
  -8  -3   1  526.09   26.99
   8   3  -1  509.85   26.14
   8   3  -1  489.38   25.21
  -8  -3   0   48.64    4.40
  -8  -3   0   36.38    4.74
   8   3   0   36.46    3.64
   8   3   0   37.64    4.48
  -8  -3  -1   12.77    4.82
  -8  -3  -1   14.13    3.21
   8   3   1   12.01    4.40
   8   3   1   13.45    2.88
  -8  -3  -2   76.81    6.94
  -8  -3  -2   81.46    6.09
   8   3   2   88.57    5.84
   8   3   2   71.90    6.43
  -8  -3  -3  191.77   12.10
  -8  -3  -3  217.32   11.84
   8   3   3  185.68   11.50
   8   3   3  197.70   10.74
  -8  -3  -4    8.04    3.55
  -8  -3  -4    0.08    6.85
   8   3   4   -1.35    3.13
   8   3   4    3.13    6.51
  -8  -3  -5   25.72    3.72
  -8  -3  -5   23.69    8.04
   8   3   5   27.49    3.81
   8   3   5   21.83    7.28
  -8  -4  11    5.08    3.30
  -8  -4  11   -5.58    6.34
   8   4 -11    9.56    6.94
   8   4 -11   -1.61    3.21
  -8  -4  10  113.44    6.77
  -8  -4  10  127.91    9.64
   8   4 -10  102.61    9.14
   8   4 -10  121.31    7.02
  -8  -4   9  351.32   18.19
  -8  -4   9  329.49   18.27
   8   4  -9  319.43   16.50
   8   4  -9  304.88   17.17
  -8  -4   8  261.23   13.79
  -8  -4   8  262.66   14.89
   8   4  -8  255.30   14.97
   8   4  -8  308.26   16.16
  -8  -4   7    9.81    6.18
  -8  -4   7    4.06    3.38
   8   4  -7    6.68    3.21
   8   4  -7    8.97    6.01
  -8  -4   6    1.61    3.30
  -8  -4   6    7.44    6.01
   8   4  -6    0.93    2.88
   8   4  -6    8.46    5.67
  -8  -4   5   43.06    4.48
  -8  -4   5   44.07    5.92
   8   4  -5   41.96    4.15
   8   4  -5   55.49    6.26
  -8  -4   4   85.36    6.18
  -8  -4   4   91.95    7.53
   8   4  -4   77.40    5.92
   8   4  -4   82.06    6.60
  -8  -4   3   14.89    4.99
  -8  -4   3   18.53    4.57
   8   4  -3   20.05    4.74
   8   4  -3   17.34    4.23
  -8  -4   2  121.48    8.21
  -8  -4   2  128.67    8.88
   8   4  -2  108.70    7.53
   8   4  -2  103.29    7.28
  -8  -4   1   74.36    6.94
  -8  -4   1   80.96    7.36
   8   4  -1   63.36    6.43
   8   4  -1   57.27    5.92
  -8  -4   0  272.73   14.89
  -8  -4   0  302.93   16.75
   8   4   0  275.61   15.40
   8   4   0  240.16   12.94
  -8  -4  -1  229.67   13.87
  -8  -4  -1  204.29   11.50
   8   4   1  190.17   10.57
   8   4   1  196.60   11.93
  -8  -4  -2   25.72    7.11
  -8  -4  -2   20.56    4.40
   8   4   2   17.85    6.77
   8   4   2   15.99    4.65
  -8  -4  -3  121.31   10.07
  -8  -4  -3  152.27    9.22
   8   4   3  135.10    8.54
   8   4   3  127.48    9.81
  -8  -5   9  199.56   13.28
  -8  -5   9  221.21   12.01
   8   5  -9  202.94   13.62
  -8  -5   8   64.88    5.75
  -8  -5   8   76.39    8.63
   8   5  -8   73.60    5.75
   8   5  -8   68.35    8.46
  -8  -5   7  346.24   19.37
  -8  -5   7  293.96   15.57
   8   5  -7  309.28   16.33
   8   5  -7  333.64   18.86
  -8  -5   6    4.48    6.68
   8   5  -6    4.06    6.77
   8   5  -6    1.02    3.98
  -8  -5   5   23.18    6.85
  -8  -5   5   20.73    5.84
   8   5  -5   20.13    4.74
   8   5  -5   14.55    6.09
  -8  -5   4    7.53    5.58
   8   5  -4    4.99    6.34
   8   5  -4    0.42    5.92
  -8  -5   3  313.67   17.09
   8   5  -3  339.22   18.95
  -8  -5   2    4.06    6.60
  -8  -5   2    7.44    6.43
   8   5  -2    5.50    6.51
   8   5  -2    4.23    5.92
  -8  -5   1   36.38    6.34
   8   5  -1   23.43    5.67
   8   5  -1   36.21    6.43
  -8  -5   0   45.43    8.04
  -8  -5   0   29.61    5.58
   8   5   0   35.87    7.28
   8   5   0   36.80    5.33
  -8  -5  -1   69.54    5.92
  -8  -5  -1   60.65    8.54
   8   5   1   59.55    8.29
   8   5   1   61.84    6.18
  -8  -6   6  109.63    9.98
  -8  -6   6   97.28    7.70
   8   6  -6   95.68    7.28
   8   6  -6  110.06    9.98
  -8  -6   5   93.31    8.04
  -8  -6   5   88.40    8.46
  -8  -6   4   96.94    8.37
  -8  -6   4   89.33    8.54
   8   6  -4   87.64    8.37
   8   6  -4   88.74    8.63
  -8  -6   3   66.32    8.21
  -8  -6   3   51.18    7.87
   8   6  -3   47.29    7.53
   8   6  -3   60.15    8.46
  -9   9   6   16.66    4.99
  -9   9   6   18.70    7.53
   9  -9  -6   20.56    6.85
   9  -9  -6   11.76    5.50
  -9   9   5    3.98    5.33
  -9   9   5    7.02    7.11
   9  -9  -5    6.18    5.75
   9  -9  -5    2.11    6.01
  -9   9   4    5.50    6.09
  -9   9   4    4.91    6.18
   9  -9  -4    5.08    6.34
   9  -9  -4   12.01    6.51
  -9   9   3  130.61    9.31
  -9   9   3  145.16   10.07
   9  -9  -3  147.87   10.91
   9  -9  -3  126.64    9.05
  -9   9   2   13.20    6.01
  -9   9   2    9.81    6.26
   9  -9  -2    9.05    7.11
   9  -9  -2    1.78    5.75
  -9   9   1  363.84   19.71
  -9   9   1  367.65   19.63
   9  -9  -1  354.36   19.71
   9  -9  -1  356.06   18.78
  -9   9   0  141.36   10.07
  -9   9   0  142.88    8.97
   9  -9   0  160.14   11.50
   9  -9   0  151.59    9.05
  -9   9  -1   13.70    4.99
  -9   9  -1   18.95    7.36
   9  -9   1   16.07    8.29
   9  -9   1   11.25    4.57
  -9   8   8   92.29    8.80
  -9   8   8  112.85    7.44
   9  -8  -8   91.11    8.63
   9  -8  -8  106.25    8.12
  -9   8   7  181.71   10.32
  -9   8   7  205.14   13.03
  -9   8   6   17.26    7.02
  -9   8   6   14.89    4.15
   9  -8  -6   20.89    4.91
   9  -8  -6   27.83    6.85
  -9   8   5   76.81    6.94
  -9   8   5   83.75    8.12
   9  -8  -5   73.51    7.36
   9  -8  -5   60.06    6.51
  -9   8   4   75.71    7.28
  -9   8   4   97.37    8.54
   9  -8  -4   75.80    6.77
   9  -8  -4   80.53    7.95
  -9   8   3  250.82   14.13
  -9   8   3  246.42   14.30
   9  -8  -3  257.08   14.30
  -9   8   2  141.69    9.39
  -9   8   2  119.02    8.88
   9  -8  -2  123.85    8.04
  -9   8   1  183.82   10.83
  -9   8   1  163.69   11.00
   9  -8  -1  176.29   11.76
   9  -8  -1  147.53    8.88
  -9   8   0   34.01    4.91
   9  -8   0   44.58    7.02
  -9   8  -1  199.22   12.27
   9  -8   1  191.35   10.66
   9  -8   1  195.41   12.52
  -9   8  -2  137.21   10.32
  -9   8  -2  140.09    8.63
   9  -8   2  142.46    8.54
   9  -8   2  142.20   10.41
  -9   8  -3  122.83    9.98
  -9   8  -3  146.01    9.05
   9  -8   3  105.74    9.98
   9  -8   3  123.25    7.44
  -9   7  10   12.35    7.19
  -9   7  10   15.48    3.89
   9  -7 -10   15.73    4.31
   9  -7 -10   17.00    7.11
  -9   7   9  332.79   17.34
  -9   7   9  306.48   17.43
   9  -7  -9  329.75   18.53
   9  -7  -9  317.31   16.83
  -9   7   8   -0.34    4.06
  -9   7   8   18.78    7.28
   9  -7  -8    5.16    4.74
   9  -7  -8   -2.96    6.43
  -9   7   7   55.66    5.08
  -9   7   7   64.04    6.85
   9  -7  -7   48.30    6.18
   9  -7  -7   52.53    5.08
  -9   7   6  208.52   11.76
  -9   7   6  222.40   12.86
   9  -7  -6  225.10   12.86
   9  -7  -6  187.97   10.57
  -9   7   5  267.91   14.89
  -9   7   5  263.09   14.55
   9  -7  -5  262.66   14.21
   9  -7  -5  245.41   13.54
  -9   7   4    5.08    4.74
  -9   7   4   -2.71    4.57
   9  -7  -4    3.81    4.23
   9  -7  -4    4.31    4.91
  -9   7   3  442.60   23.01
  -9   7   3  473.81   24.45
   9  -7  -3  449.11   23.35
   9  -7  -3  451.99   23.26
  -9   7   2  831.81   42.13
  -9   7   2  866.24   44.07
   9  -7  -2  856.09   43.57
   9  -7  -2  828.94   41.96
  -9   7   1    4.06    3.98
  -9   7   1    7.19    5.41
   9  -7  -1    7.61    3.64
   9  -7  -1   11.50    4.91
  -9   7   0  151.08   10.07
  -9   7   0  127.23    7.61
   9  -7   0  128.41    7.28
   9  -7   0  144.23    9.39
  -9   7  -1   86.96    7.70
  -9   7  -1   70.30    4.91
   9  -7   1   75.80    4.99
   9  -7   1   85.19    7.19
  -9   7  -2  252.94   14.89
  -9   7  -2  263.17   13.87
   9  -7   2  221.64   13.28
   9  -7   2  250.31   13.20
  -9   7  -3   30.37    7.95
  -9   7  -3   45.26    4.82
   9  -7   3   23.86    6.77
  -9   7  -4  120.29    9.64
  -9   7  -4  105.91    6.60
   9  -7   4  113.78    6.85
   9  -7   4  111.92    9.31
  -9   6  11    3.13    3.30
  -9   6  11   -9.47    7.70
   9  -6 -11   -2.03    3.64
   9  -6 -11    6.09    7.19
  -9   6  10   32.99    3.89
  -9   6  10   28.85    6.94
   9  -6 -10   30.62    6.85
   9  -6 -10   29.02    3.89
  -9   6   9  621.68   32.23
  -9   6   9  651.88   33.16
   9  -6  -9  620.50   32.06
  -9   6   8   13.96    5.24
  -9   6   8   15.48    3.81
   9  -6  -8   18.02    3.81
   9  -6  -8   16.83    5.08
  -9   6   7   18.02    3.13
  -9   6   7   16.07    4.65
   9  -6  -7   15.65    4.31
   9  -6  -7   17.43    3.38
  -9   6   6   50.16    4.65
  -9   6   6   42.04    4.31
   9  -6  -6   47.29    4.15
   9  -6  -6   49.23    4.57
   9  -6  -5   49.49    4.40
   9  -6  -5   47.29    3.89
   9  -6  -4    9.81    2.79
   9  -6  -4    9.81    2.54
   9  -6   0   22.42    2.71
   9  -6   0   20.05    3.47
  -9   6  -1   19.37    4.15
  -9   6  -1   20.47    2.62
   9  -6   1   24.62    4.15
   9  -6   1   14.80    2.37
  -9   6  -2   55.66    3.98
  -9   6  -2   51.43    5.75
   9  -6   2   57.10    4.06
   9  -6   2   54.65    5.58
  -9   6  -3  608.65   31.72
  -9   6  -3  666.01   33.75
   9  -6   3  592.58   30.79
   9  -6   3  568.05   28.76
  -9   6  -4   90.01    8.88
  -9   6  -4   93.22    5.75
   9  -6   4   96.18    8.80
   9  -6   4   87.05    5.33
  -9   6  -5  295.99   15.40
  -9   6  -5  296.59   16.83
   9  -6   5  301.66   17.34
   9  -6   5  272.48   14.21
  -9   5  12   53.97    7.53
  -9   5  12   60.74    4.74
   9  -5 -12   62.68    5.16
   9  -5 -12   64.63    8.21
  -9   5  11   23.26    3.30
  -9   5  11   27.92    6.77
   9  -5 -11   15.40    6.77
   9  -5 -11   22.16    3.55
  -9   5  10   21.57    3.13
  -9   5  10   26.99    5.50
   9  -5 -10   18.44    3.21
   9  -5 -10   21.83    5.92
  -9   5   9  123.51    7.87
  -9   5   9  145.25    8.12
   9  -5  -9  126.72    8.29
   9  -5  -9  122.83    7.02
  -9   5   8  891.62   45.00
  -9   5   8  863.70   43.74
   9  -5  -8  962.68   48.56
   9  -5  -8  954.22   48.30
  -9   5  -3   50.76    4.48
  -9   5  -3   56.09    3.81
   9  -5   3   50.76    3.38
   9  -5   3   47.80    4.57
  -9   5  -4  268.50   13.87
  -9   5  -4  262.92   14.55
   9  -5   4  257.76   14.13
   9  -5   4  239.40   12.44
  -9   5  -5    0.25    6.18
  -9   5  -5    0.51    3.38
   9  -5   5   -0.76    3.30
   9  -5   5    4.15    6.01
  -9   5  -6   42.89    4.82
  -9   5  -6   36.29    6.94
   9  -5   6   46.70    4.91
   9  -5   6   43.82    6.77
  -9   4  12   15.90    3.47
  -9   4  12   11.34    5.67
   9  -4 -12   13.70    6.09
   9  -4 -12    8.21    4.15
  -9   4  11   14.80    4.91
  -9   4  11   15.90    3.05
   9  -4 -11   19.79    3.38
   9  -4 -11   12.60    5.41
  -9   4  10   11.76    3.81
  -9   4  10    8.54    2.62
   9  -4 -10    8.63    2.79
   9  -4 -10   17.26    4.06
  -9   4   9   75.88    5.24
  -9   4   9   89.33    5.08
   9  -4  -9   86.54    4.99
   9  -4  -9   75.80    5.16
  -9   4  -4   20.47    3.47
  -9   4  -4   22.92    2.45
   9  -4   4   21.91    3.98
   9  -4   4   16.75    2.28
  -9   4  -5  155.06    8.63
  -9   4  -5  169.02   10.41
   9  -4   5  165.63    9.05
   9  -4   5  152.95    9.56
  -9   4  -6    5.16    6.43
  -9   4  -6   13.37    4.82
   9  -4   6    8.54    5.92
   9  -4   6   11.25    6.60
  -9   3  13  151.51    9.05
  -9   3  13  144.06   10.15
   9  -3 -13  153.28   10.41
   9  -3 -13  166.48    9.90
  -9   3  12    2.96    6.09
   9  -3 -12    7.28    4.23
  -9   3  11   62.85    4.48
  -9   3  11   61.33    5.75
   9  -3 -11   71.82    6.09
   9  -3 -11   84.34    5.67
  -9   3  10  240.08   12.69
  -9   3  10  208.27   10.83
   9  -3 -10  257.93   13.62
   9  -3 -10  231.20   12.01
  -9   3  -4  237.71   12.35
  -9   3  -4  278.06   14.47
  -9   3  -5   64.12    4.65
  -9   3  -5   53.72    4.31
   9  -3   5   58.79    4.65
   9  -3   5   56.09    4.65
  -9   3  -6   59.98    5.67
  -9   3  -6   65.31    5.84
   9  -3   6   57.61    6.09
   9  -3   6   51.94    4.91
  -9   2  13  181.28   10.32
  -9   2  13  196.34   11.76
  -9   2  12  121.31    8.04
  -9   2  12  125.37    7.87
   9  -2 -12  108.36    7.61
   9  -2 -12  120.29    7.53
  -9   2  11   32.91    3.81
  -9   2  11   25.46    3.38
   9  -2 -11   26.31    3.81
   9  -2 -11   35.02    3.89
   9  -2 -10  122.75    6.60
   9  -2 -10  105.57    5.84
  -9   2  -5   35.02    3.72
  -9   2  -5   34.26    3.64
   9  -2   5   28.42    3.64
   9  -2   5   26.73    3.72
  -9   2  -6    5.50    4.48
  -9   2  -6    5.08    4.23
   9  -2   6   13.28    4.48
   9  -2   6    9.47    4.57
  -9   1  13    3.47    4.74
  -9   1  13    0.25    4.99
   9  -1 -13   -2.11    4.65
   9  -1 -13    6.01    4.99
  -9   1  12    2.62    4.31
  -9   1  12    1.44    4.06
   9  -1 -12    1.52    3.89
   9  -1 -12    5.58    4.15
  -9   1  11   76.22    5.41
  -9   1  11   72.84    4.91
   9  -1 -11   60.15    4.57
   9  -1 -11   64.55    4.65
   9  -1 -10   13.45    2.03
   9  -1 -10   15.31    2.28
  -9   1  -5   75.29    4.74
  -9   1  -5   65.14    4.74
   9  -1   5   75.63    5.58
   9  -1   5   82.90    5.33
   9  -1   6   80.79    7.11
   9  -1   6   74.95    6.09
  -9   0  13   -1.44    5.58
   9   0 -13   -8.46    7.36
   9   0 -13    0.68    4.65
  -9   0  12   38.74    5.67
  -9   0  12   39.67    4.57
   9   0 -12   32.23    5.92
   9   0 -12   40.86    4.65
  -9   0  11   84.51    5.75
  -9   0  11  100.67    5.75
   9   0 -11  113.27    6.68
   9   0 -11   93.90    6.34
   9   0 -10  368.32   18.70
   9   0 -10  322.73   16.58
  -9   0  -5   25.55    3.21
  -9   0  -5   38.49    5.84
   9   0   5   26.05    5.33
   9   0   5   23.69    3.64
  -9  -1  12    2.11    3.98
  -9  -1  12   -7.95    6.68
  -9  -1  11    2.79    5.16
  -9  -1  11    6.18    2.71
   9   1 -11   -2.96    5.33
   9   1 -11    1.27    2.71
   9   1 -10  130.36    7.02
   9   1 -10  136.03    8.21
   9   1   4  299.04   15.57
   9   1   4  293.12   15.73
  -9  -2  11    8.80    6.01
  -9  -2  11   19.03    3.55
   9   2 -11   10.83    6.51
   9   2 -11   22.33    3.47
  -9  -2  10    5.41    4.74
  -9  -2  10    6.01    3.05
   9   2 -10    4.15    2.71
   9   2 -10    4.48    5.24
   9   2  -9   61.50    4.99
   9   2  -9   60.74    3.89
   9   2   3   69.45    5.41
   9   2   3   59.22    5.92
  -9  -3  10   22.42    7.28
  -9  -3  10   28.85    4.40
   9   3 -10   11.50    4.40
   9   3 -10   19.54    7.95
  -9  -3   9   13.11    3.38
  -9  -3   9   16.33    5.75
   9   3  -9   20.81    3.64
   9   3  -9   20.39    6.18
   9   3  -8   25.80    3.05
   9   3  -8   30.88    5.50
   9   3   1  627.69   32.23
   9   3   1  565.59   29.10
   9   3   2    3.47    4.65
   9   3   2    2.79    6.34
  -9  -4   8   42.89    7.61
  -9  -4   8   42.38    5.41
   9   4  -8   55.16    8.63
   9   4  -8   40.61    4.99
  -9  -4   7   60.99    5.67
  -9  -4   7   50.76    7.02
   9   4  -7   75.12    6.34
   9   4  -7   76.64    8.04
   9   4  -6  313.08   16.75
   9   4  -6  325.52   17.85
   9   4  -2  141.27    8.97
   9   4  -2  157.09    9.81
   9   4  -1   -0.25    5.75
   9   4  -1    2.45    5.41
  10  -8  -5   32.06    7.44
  10  -8  -5   19.88    7.02
  10  -8  -4   24.70    6.43
  10  -8  -4    8.12    6.51
  10  -8  -2   29.35    5.50
  10  -8  -2    7.95    7.02
   0   0   0    0.00    0.00

_computing_structure_solution     'SHELXT 2014/5 (Sheldrick, 2014)'
;
_shelx_hkl_checksum              10201
_shelx_shelxl_version_number     2014/7
_olex2_submission_original_sample_id Ni_2a
_olex2_submission_special_instructions 'No special instructions were received'
loop_
_space_group_symop_operation_xyz
'x, y, z'
'-x, -y, -z'
loop_
_atom_site_label
_atom_site_type_symbol
_atom_site_fract_x
_atom_site_fract_y
_atom_site_fract_z
_atom_site_U_iso_or_equiv
_atom_site_adp_type
_atom_site_occupancy
_atom_site_site_symmetry_order
_atom_site_calc_flag
_atom_site_refinement_flags_posn
_atom_site_refinement_flags_adp
_atom_site_refinement_flags_occupancy
_atom_site_disorder_assembly
_atom_site_disorder_group
Ni01 Ni 0.46725(3) 0.34531(3) 0.61665(2) 0.01227(8) Uani 1 1 d . . . . .
Cl01 Cl 0.29656(7) 0.32490(5) 0.44054(4) 0.01750(11) Uani 1 1 d . . . . .
P01 P 0.21480(8) 0.08072(6) 0.87872(4) 0.01525(11) Uani 1 1 d . . . . .
F02 F 0.3691(2) 0.24517(16) 0.91955(11) 0.0238(3) Uani 1 1 d . . . . .
F01 F 0.2178(2) 0.10385(19) 0.74959(11) 0.0292(3) Uani 1 1 d . . . . .
F03 F 0.0664(2) 0.1767(2) 0.86836(15) 0.0351(4) Uani 1 1 d . . . . .
F05 F 0.3659(2) -0.0131(2) 0.88911(15) 0.0338(4) Uani 1 1 d . . . . .
F06 F 0.2143(2) 0.0566(2) 1.00835(12) 0.0327(4) Uani 1 1 d . . . . .
F04 F 0.0594(2) -0.08224(18) 0.83832(13) 0.0320(3) Uani 1 1 d . . . . .
N06 N 0.3295(3) 0.4660(2) 0.66927(14) 0.0172(3) Uani 1 1 d . . . . .
N03 N 0.6914(2) 0.2616(2) 0.81574(13) 0.0144(3) Uani 1 1 d . . . . .
N01 N 0.6037(2) 0.21556(19) 0.57353(14) 0.0147(3) Uani 1 1 d . . . . .
N02 N 0.7002(2) 0.13365(19) 0.64577(14) 0.0143(3) Uani 1 1 d . . . . .
N05 N 0.3951(3) 0.5768(2) 0.76135(14) 0.0189(4) Uani 1 1 d . . . . .
N04 N 0.6507(3) 0.4906(2) 0.84277(14) 0.0158(3) Uani 1 1 d . . . . .
C02 C 0.7837(3) 0.3182(2) 0.92752(16) 0.0172(4) Uani 1 1 d . . . . .
H02 H 0.8511 0.2652 0.9811 0.021 Uiso 1 1 calc R . . . .
C11 C 0.6540(3) 0.2064(2) 0.47667(16) 0.0171(4) Uani 1 1 d . . . . .
H11 H 0.6108 0.2546 0.4106 0.021 Uiso 1 1 calc R . . . .
C01 C 0.6089(3) 0.3663(2) 0.76362(16) 0.0146(3) Uani 1 1 d . . . . .
C08 C 0.1538(3) 0.4516(3) 0.63603(19) 0.0214(4) Uani 1 1 d . . . . .
H08 H 0.0723 0.3810 0.5741 0.026 Uiso 1 1 calc R . . . .
C05 C 0.6684(3) 0.1075(2) 0.75673(16) 0.0153(4) Uani 1 1 d . . . . .
H05A H 0.7544 0.0531 0.8004 0.018 Uiso 1 1 calc R . . . .
H05B H 0.5452 0.0395 0.7484 0.018 Uiso 1 1 calc R . . . .
C03 C 0.7583(3) 0.4640(3) 0.94474(16) 0.0183(4) Uani 1 1 d . . . . .
H03 H 0.8047 0.5340 1.0127 0.022 Uiso 1 1 calc R . . . .
C09 C 0.8043(3) 0.0721(2) 0.59519(17) 0.0166(4) Uani 1 1 d . . . . .
H09 H 0.8815 0.0095 0.6285 0.020 Uiso 1 1 calc R . . . .
C04 C 0.5850(3) 0.6300(2) 0.81648(17) 0.0197(4) Uani 1 1 d . . . . .
H04A H 0.6058 0.6988 0.8871 0.024 Uiso 1 1 calc R . . . .
H04B H 0.6496 0.6925 0.7657 0.024 Uiso 1 1 calc R . . . .
C10 C 0.7782(3) 0.1168(2) 0.48607(17) 0.0192(4) Uani 1 1 d . . . . .
H10 H 0.8330 0.0919 0.4294 0.023 Uiso 1 1 calc R . . . .
C07 C 0.1061(4) 0.5553(3) 0.7052(2) 0.0276(5) Uani 1 1 d . . . . .
H07 H -0.0101 0.5689 0.6992 0.033 Uiso 1 1 calc R . . . .
C06 C 0.2624(4) 0.6329(3) 0.78345(19) 0.0258(5) Uani 1 1 d . . . . .
H06 H 0.2751 0.7118 0.8425 0.031 Uiso 1 1 calc R . . . .
loop_
_atom_site_aniso_label
_atom_site_aniso_U_11
_atom_site_aniso_U_22
_atom_site_aniso_U_33
_atom_site_aniso_U_23
_atom_site_aniso_U_13
_atom_site_aniso_U_12
Ni01 0.01644(16) 0.01127(12) 0.00890(12) 0.00093(8) 0.00156(9) 0.00501(9)
Cl01 0.0209(3) 0.0165(2) 0.0127(2) 0.00055(15) -0.00096(16) 0.00606(16)
P01 0.0164(3) 0.0163(2) 0.0127(2) -0.00035(16) 0.00383(17) 0.00389(18)
F02 0.0242(8) 0.0227(6) 0.0207(6) -0.0032(5) 0.0086(5) -0.0025(5)
F01 0.0378(9) 0.0347(8) 0.0127(6) 0.0010(5) 0.0065(5) 0.0059(6)
F03 0.0259(9) 0.0356(8) 0.0472(10) -0.0047(7) 0.0071(7) 0.0175(6)
F05 0.0316(9) 0.0328(8) 0.0419(9) 0.0059(6) 0.0066(7) 0.0201(7)
F06 0.0393(9) 0.0362(8) 0.0162(6) 0.0026(5) 0.0105(6) -0.0042(6)
F04 0.0311(9) 0.0248(7) 0.0313(8) -0.0083(6) 0.0089(6) -0.0074(6)
N06 0.0254(10) 0.0152(7) 0.0136(7) 0.0030(6) 0.0065(6) 0.0087(6)
N03 0.0167(9) 0.0159(7) 0.0104(7) 0.0019(5) 0.0029(6) 0.0047(6)
N01 0.0188(9) 0.0140(7) 0.0119(7) 0.0018(5) 0.0034(6) 0.0062(6)
N02 0.0177(9) 0.0129(7) 0.0121(7) 0.0019(5) 0.0023(6) 0.0055(6)
N05 0.0304(11) 0.0179(8) 0.0116(7) 0.0019(6) 0.0055(6) 0.0121(7)
N04 0.0209(9) 0.0160(7) 0.0097(7) 0.0010(5) 0.0033(6) 0.0044(6)
C02 0.0177(10) 0.0221(9) 0.0105(8) 0.0013(6) 0.0019(6) 0.0049(7)
C11 0.0229(11) 0.0149(8) 0.0136(8) 0.0009(6) 0.0046(7) 0.0054(7)
C01 0.0166(10) 0.0160(8) 0.0101(7) 0.0012(6) 0.0021(6) 0.0039(7)
C08 0.0239(12) 0.0213(9) 0.0234(10) 0.0087(7) 0.0083(8) 0.0114(8)
C05 0.0189(10) 0.0143(8) 0.0130(8) 0.0034(6) 0.0037(6) 0.0053(7)
C03 0.0205(11) 0.0222(9) 0.0103(8) 0.0008(6) 0.0023(7) 0.0043(7)
C09 0.0207(11) 0.0122(8) 0.0168(8) -0.0016(6) 0.0036(7) 0.0055(7)
C04 0.0317(12) 0.0152(8) 0.0119(8) 0.0000(6) 0.0035(7) 0.0078(8)
C10 0.0253(12) 0.0179(9) 0.0154(9) 0.0000(7) 0.0057(7) 0.0074(7)
C07 0.0326(15) 0.0341(12) 0.0277(11) 0.0127(9) 0.0154(10) 0.0211(10)
C06 0.0438(16) 0.0278(11) 0.0184(9) 0.0088(8) 0.0153(9) 0.0245(10)
loop_
_atom_type_symbol
_atom_type_description
_atom_type_scat_dispersion_real
_atom_type_scat_dispersion_imag
_atom_type_scat_source
C C 0.0033 0.0016 'International Tables Vol C Tables 4.2.6.8 and 6.1.1.4'
H H 0.0000 0.0000 'International Tables Vol C Tables 4.2.6.8 and 6.1.1.4'
Cl Cl 0.1484 0.1585 'International Tables Vol C Tables 4.2.6.8 and 6.1.1.4'
F F 0.0171 0.0103 'International Tables Vol C Tables 4.2.6.8 and 6.1.1.4'
N N 0.0061 0.0033 'International Tables Vol C Tables 4.2.6.8 and 6.1.1.4'
Ni Ni 0.3393 1.1124 'International Tables Vol C Tables 4.2.6.8 and 6.1.1.4'
P P 0.1023 0.0942 'International Tables Vol C Tables 4.2.6.8 and 6.1.1.4'
loop_
_geom_angle_atom_site_label_1
_geom_angle_atom_site_label_2
_geom_angle_atom_site_label_3
_geom_angle
_geom_angle_site_symmetry_1
_geom_angle_site_symmetry_3
N06 Ni01 Cl01 90.68(6) . .
N01 Ni01 Cl01 92.31(6) . .
N01 Ni01 N06 175.68(7) . .
C01 Ni01 Cl01 178.86(6) . .
C01 Ni01 N06 88.40(9) . .
C01 Ni01 N01 88.64(9) . .
F01 P01 F02 90.07(9) . .
F01 P01 F05 89.28(10) . .
F01 P01 F06 179.19(10) . .
F01 P01 F04 90.11(9) . .
F03 P01 F02 89.48(9) . .
F03 P01 F01 90.45(10) . .
F03 P01 F05 179.13(10) . .
F03 P01 F06 90.34(10) . .
F03 P01 F04 89.93(10) . .
F05 P01 F02 89.69(9) . .
F06 P01 F02 89.78(8) . .
F06 P01 F05 89.92(10) . .
F04 P01 F02 179.38(9) . .
F04 P01 F05 90.91(10) . .
F04 P01 F06 90.05(9) . .
N05 N06 Ni01 124.19(15) . .
C08 N06 Ni01 129.52(16) . .
C08 N06 N05 105.91(18) . .
C02 N03 C05 128.28(17) . .
C01 N03 C02 111.48(17) . .
C01 N03 C05 120.13(16) . .
N02 N01 Ni01 124.85(13) . .
C11 N01 Ni01 129.10(14) . .
C11 N01 N02 105.00(17) . .
N01 N02 C05 120.12(17) . .
C09 N02 N01 111.42(16) . .
C09 N02 C05 128.07(17) . .
N06 N05 C04 121.40(18) . .
C06 N05 N06 110.6(2) . .
C06 N05 C04 127.8(2) . .
C01 N04 C03 111.41(17) . .
C01 N04 C04 120.60(17) . .
C03 N04 C04 127.99(17) . .
N03 C02 H02 126.9 . .
C03 C02 N03 106.29(18) . .
C03 C02 H02 126.9 . .
N01 C11 H11 124.5 . .
N01 C11 C10 110.98(18) . .
C10 C11 H11 124.5 . .
N03 C01 Ni01 128.01(15) . .
N03 C01 N04 104.72(16) . .
N04 C01 Ni01 127.27(15) . .
N06 C08 H08 124.8 . .
N06 C08 C07 110.4(2) . .
C07 C08 H08 124.8 . .
N03 C05 H05A 110.1 . .
N03 C05 H05B 110.1 . .
N02 C05 N03 108.05(15) . .
N02 C05 H05A 110.1 . .
N02 C05 H05B 110.1 . .
H05A C05 H05B 108.4 . .
N04 C03 H03 126.9 . .
C02 C03 N04 106.10(18) . .
C02 C03 H03 126.9 . .
N02 C09 H09 126.3 . .
N02 C09 C10 107.33(18) . .
C10 C09 H09 126.3 . .
N05 C04 N04 108.45(17) . .
N05 C04 H04A 110.0 . .
N05 C04 H04B 110.0 . .
N04 C04 H04A 110.0 . .
N04 C04 H04B 110.0 . .
H04A C04 H04B 108.4 . .
C11 C10 H10 127.4 . .
C09 C10 C11 105.26(18) . .
C09 C10 H10 127.4 . .
C08 C07 H07 127.2 . .
C06 C07 C08 105.5(2) . .
C06 C07 H07 127.2 . .
N05 C06 C07 107.6(2) . .
N05 C06 H06 126.2 . .
C07 C06 H06 126.2 . .
loop_
_geom_bond_atom_site_label_1
_geom_bond_atom_site_label_2
_geom_bond_distance
_geom_bond_site_symmetry_2
Ni01 Cl01 2.2199(9) .
Ni01 N06 1.9016(19) .
Ni01 N01 1.8996(18) .
Ni01 C01 1.847(2) .
P01 F02 1.6073(16) .
P01 F01 1.5993(15) .
P01 F03 1.5974(17) .
P01 F05 1.6032(17) .
P01 F06 1.6023(15) .
P01 F04 1.6017(17) .
N06 N05 1.364(2) .
N06 C08 1.333(3) .
N03 C02 1.390(2) .
N03 C01 1.344(3) .
N03 C05 1.453(3) .
N01 N02 1.365(2) .
N01 C11 1.344(3) .
N02 C05 1.451(2) .
N02 C09 1.347(3) .
N05 C04 1.446(3) .
N05 C06 1.351(3) .
N04 C01 1.347(2) .
N04 C03 1.391(3) .
N04 C04 1.455(3) .
C02 H02 0.9500 .
C02 C03 1.355(3) .
C11 H11 0.9500 .
C11 C10 1.395(3) .
C08 H08 0.9500 .
C08 C07 1.400(3) .
C05 H05A 0.9900 .
C05 H05B 0.9900 .
C03 H03 0.9500 .
C09 H09 0.9500 .
C09 C10 1.380(3) .
C04 H04A 0.9900 .
C04 H04B 0.9900 .
C10 H10 0.9500 .
C07 H07 0.9500 .
C07 C06 1.370(4) .
C06 H06 0.9500 .
