#------------------------------------------------------------------------------
#$Date: 2017-09-11 17:09:03 +0300 (Mon, 11 Sep 2017) $
#$Revision: 200456 $
#$URL: file:///home/coder/svn-repositories/cod/cif/4/03/28/4032801.cif $
#------------------------------------------------------------------------------
#
# This file is available in the Crystallography Open Database (COD),
# http://www.crystallography.net/
#
# All data on this site have been placed in the public domain by the
# contributors.
#
data_4032801
loop_
_publ_author_name
'Huang, Adrian'
'Wo, Kellie'
'Lee, So Yeun Christine'
'Kneitschel, Nika'
'Chang, Jennifer'
'Zhu, Kathleen'
'Mello, Tatsiana'
'Bancroft, Laura'
'Norman, Natalie J.'
'Zheng, Shao-Liang'
_publ_section_title
;
 Regioselective Synthesis, NMR, and Crystallographic Analysis of
 N1-Substituted Pyrazoles.
;
_journal_issue                   17
_journal_name_full               'The Journal of organic chemistry'
_journal_page_first              8864
_journal_page_last               8872
_journal_paper_doi               10.1021/acs.joc.7b01006
_journal_volume                  82
_journal_year                    2017
_chemical_formula_sum            'C8 H5 Br N4 O2'
_chemical_formula_weight         269.07
_space_group_crystal_system      monoclinic
_space_group_IT_number           14
_space_group_name_Hall           '-P 2ybc'
_space_group_name_H-M_alt        'P 1 21/c 1'
_symmetry_space_group_name_Hall  '-P 2ybc'
_symmetry_space_group_name_H-M   'P 1 21/c 1'
_atom_sites_solution_hydrogens   geom
_audit_creation_method           SHELXL-2014/6
_cell_angle_alpha                90
_cell_angle_beta                 97.1767(16)
_cell_angle_gamma                90
_cell_formula_units_Z            4
_cell_length_a                   3.77840(10)
_cell_length_b                   24.5524(6)
_cell_length_c                   9.8852(3)
_cell_measurement_reflns_used    7386
_cell_measurement_temperature    100(2)
_cell_measurement_theta_max      27.1
_cell_measurement_theta_min      2.65
_cell_volume                     909.85(4)
_computing_cell_refinement       'SAINT 8.34C (Bruker-AXS, 2014)'
_computing_data_collection       'APEX2 v2014.3.0 (Bruker-AXS, 2014)'
_computing_data_reduction        'SAINT 8.34C (Bruker-AXS, 2014)'
_computing_molecular_graphics    'Bruker SHELXTL (Sheldrick, 2015)'
_computing_publication_material  'Bruker SHELXTL (Sheldrick, 2015)'
_computing_structure_refinement  'SHELXL-2014 (Sheldrick, 2015)'
_computing_structure_solution    'SHELXT-2014 (Sheldrick, 2015)'
_diffrn_ambient_temperature      100(2)
_diffrn_measured_fraction_theta_full 1.000
_diffrn_measured_fraction_theta_max 1.000
_diffrn_measurement_device_type
;
Bruker D8 goniometer with CCD area detector  
;
_diffrn_measurement_method       'omega and phi scans'
_diffrn_radiation_monochromator  graphite
_diffrn_radiation_source         'fine-focus sealed tube'
_diffrn_radiation_type           MoK\a
_diffrn_radiation_wavelength     0.71073
_diffrn_reflns_av_R_equivalents  0.0269
_diffrn_reflns_av_unetI/netI     0.0190
_diffrn_reflns_Laue_measured_fraction_full 1.000
_diffrn_reflns_Laue_measured_fraction_max 1.000
_diffrn_reflns_limit_h_max       4
_diffrn_reflns_limit_h_min       -4
_diffrn_reflns_limit_k_max       31
_diffrn_reflns_limit_k_min       -31
_diffrn_reflns_limit_l_max       12
_diffrn_reflns_limit_l_min       -12
_diffrn_reflns_number            11382
_diffrn_reflns_point_group_measured_fraction_full 1.000
_diffrn_reflns_point_group_measured_fraction_max 1.000
_diffrn_reflns_theta_full        25.242
_diffrn_reflns_theta_max         27.199
_diffrn_reflns_theta_min         1.659
_exptl_absorpt_coefficient_mu    4.501
_exptl_absorpt_correction_T_max  0.7455
_exptl_absorpt_correction_T_min  0.5819
_exptl_absorpt_correction_type   multi-scan
_exptl_absorpt_process_details   SADABS
_exptl_crystal_colour            Colorless
_exptl_crystal_density_diffrn    1.964
_exptl_crystal_description       plate
_exptl_crystal_F_000             528
_exptl_crystal_size_max          0.220
_exptl_crystal_size_mid          0.100
_exptl_crystal_size_min          0.080
_refine_diff_density_max         0.407
_refine_diff_density_min         -0.303
_refine_diff_density_rms         0.064
_refine_ls_extinction_method     none
_refine_ls_goodness_of_fit_ref   1.152
_refine_ls_hydrogen_treatment    constr
_refine_ls_matrix_type           full
_refine_ls_number_parameters     136
_refine_ls_number_reflns         2009
_refine_ls_number_restraints     0
_refine_ls_restrained_S_all      1.152
_refine_ls_R_factor_all          0.0245
_refine_ls_R_factor_gt           0.0213
_refine_ls_shift/su_max          0.003
_refine_ls_shift/su_mean         0.000
_refine_ls_structure_factor_coef Fsqd
_refine_ls_weighting_details
'w=1/[\s^2^(Fo^2^)+(0.0163P)^2^+0.6199P] where P=(Fo^2^+2Fc^2^)/3'
_refine_ls_weighting_scheme      calc
_refine_ls_wR_factor_gt          0.0451
_refine_ls_wR_factor_ref         0.0461
_reflns_Friedel_coverage         0.000
_reflns_number_gt                1867
_reflns_number_total             2009
_reflns_threshold_expression     'I > 2\s(I)'
_cod_data_source_file            jo7b01006_si_001.cif
_cod_data_source_block           Lab-29-23
_cod_database_code               4032801
_shelx_space_group_comment
;
The symmetry employed for this shelxl refinement is uniquely defined
by the following loop, which should always be used as a source of
symmetry information in preference to the above space-group names.
They are only intended as comments.
;
_shelx_estimated_absorpt_t_min   0.438
_shelx_estimated_absorpt_t_max   0.715
_shelxl_version_number           2014/6
_shelx_res_file
;
TITL zsl in P2(1)/c
CELL 0.71073 3.7784 24.5524 9.8852 90 97.1767 90
ZERR 4 0.0001 0.0006 0.0003 0 0.0016 0
LATT 1
SYMM -X,0.5+Y,0.5-Z

SFAC C H Br N O
UNIT 32 20 4 16 8

L.S. 10
PLAN  -1
SIZE 0.08 0.1 0.22
TEMP -173.17
REM Old TITL zsl in P2(1)/n
BOND $H
LIST 4
fmap 2
conf
acta
REM <HKL>G:/zsl/Huang/AHuang1503/work/zsl.hkl</HKL>

WGHT    0.016300    0.619900
FVAR       0.09334
C1    1    0.309479    0.480301    0.634781    11.00000    0.01269    0.01203 =
         0.01435    0.00184    0.00167    0.00042
AFIX  43
H1    2    0.223650    0.512925    0.590552    11.00000   -1.20000
AFIX   0
C2    1    0.526540    0.483970    0.758193    11.00000    0.01094    0.01263 =
         0.01515   -0.00301    0.00335   -0.00151
C3    1    0.652757    0.436962    0.825399    11.00000    0.01307    0.01837 =
         0.01208   -0.00064    0.00004    0.00005
AFIX  43
H3    2    0.801357    0.438769    0.910212    11.00000   -1.20000
AFIX   0
C4    1    0.556251    0.387353    0.765497    11.00000    0.01235    0.01347 =
         0.01374    0.00261    0.00090    0.00116
AFIX  43
H4    2    0.635014    0.354015    0.807821    11.00000   -1.20000
AFIX   0
C5    1    0.340074    0.388119    0.641267    11.00000    0.01069    0.01294 =
         0.01112   -0.00108    0.00194   -0.00088
C6    1    0.197003    0.254194    0.545427    11.00000    0.01312    0.01227 =
         0.01463    0.00000    0.00140   -0.00002
C7    1   -0.002145    0.276142    0.429326    11.00000    0.01601    0.01804 =
         0.01197   -0.00112    0.00108   -0.00146
AFIX  43
H7    2   -0.127431    0.257560    0.353715    11.00000   -1.20000
AFIX   0
C8    1    0.028501    0.331099    0.451824    11.00000    0.01368    0.01717 =
         0.01318    0.00143   -0.00087    0.00031
AFIX  43
H8    2   -0.073478    0.359100    0.393073    11.00000   -1.20000
AFIX   0
N1    4    0.215825    0.432411    0.575325    11.00000    0.01313    0.01222 =
         0.01177    0.00128    0.00010    0.00125
N2    4    0.233648    0.338084    0.574849    11.00000    0.01391    0.01016 =
         0.01069    0.00206   -0.00071    0.00054
N3    4    0.341545    0.290523    0.634727    11.00000    0.01433    0.01107 =
         0.01308    0.00005   -0.00064    0.00103
N4    4    0.262164    0.197066    0.575717    11.00000    0.01889    0.01351 =
         0.01441   -0.00133   -0.00065   -0.00041
O1    5    0.475831    0.184758    0.674133    11.00000    0.03161    0.01534 =
         0.02290    0.00112   -0.01072    0.00286
O2    5    0.097796    0.164003    0.498269    11.00000    0.03210    0.01502 =
         0.02336   -0.00455   -0.00771   -0.00374
BR1   3    0.646132    0.553732    0.829738    11.00000    0.01498    0.01369 =
         0.01952   -0.00443    0.00030   -0.00195
HKLF 4

REM  zsl in P2(1)/c
REM R1 =  0.0213 for    1867 Fo > 4sig(Fo)  and  0.0245 for all    2009 data
REM    136 parameters refined using      0 restraints

END

WGHT      0.0163      0.6199

REM Highest difference peak  0.407,  deepest hole -0.303,  1-sigma level  0.064
Q1    1   0.8756  0.5517  0.7968  11.00000  0.05    0.41
;
_shelx_res_checksum              29245
_shelx_hkl_file
;
   1   0   0   88.90    1.97
   1   0   0   86.76    1.97
  -1   0   0   87.37    1.98
  -1   0   0   89.02    1.97
  -2   0   0   10.70    0.32
  -2   0   0   10.55    0.30
   2   0   0   10.55    0.30
   2   0   0   10.50    0.30
  -3   0   0   44.82    1.09
  -3   0   0   43.18    1.13
   3   0   0   45.55    1.09
   3   0   0   45.31    1.10
  -4   0   0    5.95    0.34
   1  -1   0  146.56    3.30
  -1  -1   0  148.39    3.31
  -1  -1   0  150.11    3.30
   1  -1   0  148.14    3.31
  -1   1   0  147.23    3.31
   1   1   0  150.29    3.30
   1   1   0  146.87    3.30
  -1   1   0  147.88    3.31
   2  -1   0    3.41    0.14
  -2  -1   0    3.54    0.17
  -2  -1   0    3.39    0.14
   2  -1   0    3.40    0.14
   2   1   0    3.40    0.15
  -2   1   0    3.52    0.16
   2   1   0    3.46    0.14
  -2   1   0    3.49    0.14
   3  -1   0    0.08    0.08
   3  -1   0    0.14    0.08
  -3  -1   0    0.18    0.08
  -3  -1   0    0.23    0.11
  -3   1   0    0.00    0.09
   3   1   0    0.15    0.08
  -3   1   0    0.12    0.08
   3   1   0    0.08    0.08
  -4  -1   0    1.69    0.24
  -4   1   0    1.82    0.25
   0  -2   0   18.10    0.40
   0  -2   0   17.44    0.41
   0   2   0   18.34    0.41
   0   2   0   17.34    0.41
  -1  -2   0   93.32    2.07
   1  -2   0   92.54    2.06
   1  -2   0   92.60    2.07
  -1  -2   0   91.97    2.08
   1   2   0   91.36    2.07
   1   2   0   92.50    2.07
  -1   2   0   90.45    2.07
  -1   2   0   92.65    2.07
  -2  -2   0    5.95    0.20
   2  -2   0    6.31    0.21
   2  -2   0    6.04    0.20
  -2  -2   0    6.04    0.23
  -2   2   0    6.51    0.21
   2   2   0    6.17    0.21
   2   2   0    5.98    0.20
  -2   2   0    6.35    0.22
  -3  -2   0   18.09    0.51
   3  -2   0   18.77    0.52
   3  -2   0   18.78    0.51
  -3  -2   0   18.67    0.56
   3   2   0   19.03    0.52
  -3   2   0   17.96    0.51
   3   2   0   18.67    0.53
  -3   2   0   18.23    0.55
  -4  -2   0   14.24    0.55
  -4   2   0   14.81    0.53
   0  -3   0    0.02    0.01
   0  -3   0    0.00    0.02
   0   3   0    0.01    0.01
   0   3   0   -0.02    0.02
   1  -3   0   28.41    0.67
  -1  -3   0   30.13    0.68
  -1  -3   0   29.27    0.69
  -1   3   0   29.16    0.68
   1   3   0   28.90    0.69
   1   3   0   28.82    0.68
  -1   3   0   28.06    0.67
  -1   3   0   28.04    0.68
  -2  -3   0   27.79    0.72
   2  -3   0   28.30    0.68
  -2  -3   0   28.67    0.69
   2  -3   0   28.04    0.69
  -2   3   0   28.04    0.70
   2   3   0   27.71    0.69
  -2   3   0   28.35    0.70
   2   3   0   27.53    0.70
   3  -3   0    1.75    0.14
  -3  -3   0    1.62    0.18
   3  -3   0    1.60    0.15
  -3  -3   0    1.56    0.13
  -3   3   0    1.61    0.15
   3   3   0    1.65    0.15
  -3   3   0    2.01    0.17
   3   3   0    1.61    0.15
  -4  -3   0    5.85    0.35
  -4   3   0    5.90    0.32
   0  -4   0   12.99    0.33
   0  -4   0   12.81    0.31
   0   4   0   13.45    0.33
   0   4   0   14.23    0.32
   1  -4   0    2.58    0.10
  -1  -4   0    2.37    0.11
  -1   4   0    2.47    0.10
  -1   4   0    2.59    0.09
  -1   4   0    2.57    0.10
   1   4   0    2.38    0.11
   1   4   0    2.60    0.11
   2  -4   0    1.37    0.09
  -2  -4   0    1.65    0.13
  -2  -4   0    1.53    0.11
   2  -4   0    1.39    0.10
  -2   4   0    1.58    0.11
   2   4   0    1.35    0.12
  -2   4   0    1.46    0.11
   2   4   0    1.64    0.11
   3  -4   0    1.69    0.15
  -3  -4   0    1.76    0.14
  -3  -4   0    1.41    0.18
   3  -4   0    1.92    0.14
  -3   4   0    1.63    0.17
   3   4   0    1.92    0.15
   3   4   0    1.88    0.16
  -3   4   0    1.99    0.15
  -4  -4   0    0.11    0.16
  -4   4   0    0.12    0.13
   0  -5   0   -0.11    0.01
   0  -5   0   -0.07    0.03
   0  -5   0   -0.06    0.02
   0   5   0   -0.10    0.03
  -1  -5   0   54.13    1.27
  -1  -5   0   56.16    1.28
   1  -5   0   55.35    1.26
   1   5   0   54.50    1.28
  -1   5   0   56.46    1.27
   1   5   0   55.99    1.27
  -1   5   0   54.26    1.27
  -1   5   0   54.66    1.25
  -2  -5   0   65.26    1.54
   2  -5   0   66.70    1.54
   2  -5   0   66.25    1.52
  -2  -5   0   66.16    1.57
  -2   5   0   64.72    1.53
   2   5   0   67.98    1.54
  -2   5   0   66.65    1.54
   2   5   0   65.14    1.55
  -3  -5   0    1.14    0.12
   3  -5   0    0.97    0.12
   3  -5   0    0.92    0.13
  -3  -5   0    1.39    0.18
  -3   5   0    1.15    0.13
  -3   5   0    1.17    0.15
   3   5   0    0.96    0.13
   3   5   0    1.11    0.14
  -4  -5   0    2.30    0.28
  -4   5   0    1.72    0.23
   0  -6   0    0.38    0.03
   0  -6   0    0.34    0.05
   0   6   0    0.29    0.05
  -1  -6   0    7.13    0.22
   1  -6   0    7.19    0.21
  -1  -6   0    7.22    0.23
  -1   6   0    7.49    0.22
   1   6   0    7.20    0.23
  -1   6   0    7.28    0.22
   1   6   0    7.51    0.22
  -1   6   0    7.47    0.19
   2  -6   0    8.61    0.26
  -2  -6   0    8.78    0.30
  -2  -6   0    9.13    0.28
   2  -6   0    8.52    0.28
   2   6   0    8.19    0.29
  -2   6   0    8.87    0.27
  -2   6   0    8.87    0.28
   2   6   0    8.89    0.28
   3  -6   0    8.18    0.27
   3  -6   0    7.98    0.30
  -3  -6   0    8.04    0.34
  -3  -6   0    8.30    0.29
   3   6   0    8.17    0.32
  -3   6   0    7.84    0.29
  -3   6   0    7.56    0.30
   3   6   0    7.89    0.29
  -4  -6   0    6.66    0.38
  -4   6   0    7.42    0.36
   0  -7   0   -0.01    0.04
   0  -7   0    0.02    0.02
   0   7   0   -0.01    0.03
  -1  -7   0   71.62    1.64
  -1  -7   0   70.05    1.64
  -1  -7   0   69.93    1.63
   1  -7   0   71.49    1.62
  -1   7   0   71.23    1.59
  -1   7   0   70.66    1.63
  -1   7   0   70.68    1.63
   1   7   0   72.09    1.63
  -2  -7   0   23.37    0.60
  -2  -7   0   22.16    0.62
   2  -7   0   23.27    0.58
  -2   7   0   22.47    0.58
  -2   7   0   22.79    0.60
   2   7   0   23.12    0.59
   2   7   0   22.86    0.62
  -3  -7   0    4.02    0.20
   3  -7   0    3.85    0.20
   3  -7   0    3.72    0.18
  -3  -7   0    3.73    0.25
   3   7   0    4.02    0.21
  -3   7   0    3.91    0.21
  -3   7   0    3.79    0.20
   3   7   0    4.04    0.23
  -4  -7   0    3.32    0.31
  -4   7   0    4.07    0.28
   0  -8   0  180.16    4.07
   0  -8   0  183.11    4.04
   0   8   0  182.36    4.07
   1  -8   0   24.11    0.60
  -1  -8   0   23.79    0.61
  -1  -8   0   23.75    0.62
  -1  -8   0   23.97    0.60
  -1   8   0   23.76    0.55
   1   8   0   25.32    0.60
  -1   8   0   24.09    0.61
  -1   8   0   23.40    0.61
  -2  -8   0    6.71    0.27
   2  -8   0    7.53    0.23
  -2  -8   0    7.48    0.26
   2   8   0    7.23    0.25
  -2   8   0    7.09    0.23
  -2   8   0    7.19    0.26
  -2   8   0    7.27    0.26
   2   8   0    7.40    0.27
  -3  -8   0   26.88    0.73
   3  -8   0   28.06    0.75
  -3  -8   0   28.11    0.79
   3   8   0   27.97    0.77
  -3   8   0   28.43    0.75
  -3   8   0   27.84    0.74
   3   8   0   26.81    0.73
  -4  -8   0    8.66    0.44
  -4  -8   0    9.31    0.40
  -4   8   0    9.52    0.42
  -1  -9   0    0.32    0.06
   1  -9   0    0.10    0.05
  -1  -9   0   -0.02    0.05
  -1  -9   0    0.03    0.06
  -1   9   0    0.04    0.03
  -1   9   0    0.02    0.05
  -1   9   0   -0.01    0.05
   1   9   0    0.06    0.05
  -2  -9   0   -0.01    0.08
   2  -9   0    0.02    0.06
  -2  -9   0    0.13    0.07
  -2   9   0    0.02    0.05
  -2   9   0    0.04    0.07
  -2   9   0    0.14    0.07
   2   9   0    0.04    0.06
   3  -9   0    0.04    0.08
  -3  -9   0    0.16    0.09
  -3  -9   0    0.18    0.11
  -3   9   0   -0.01    0.09
   3   9   0    0.10    0.09
  -3   9   0    0.16    0.09
  -4  -9   0    0.87    0.20
  -4  -9   0    0.51    0.16
   0 -10   0   80.03    1.83
   0 -10   0   79.41    1.75
   0 -10   0   77.55    1.81
   0  10   0   76.27    1.81
  -1 -10   0    0.30    0.08
  -1 -10   0    0.23    0.06
  -1 -10   0    0.27    0.07
   1 -10   0    0.27    0.07
  -1  10   0    0.23    0.03
   1  10   0    0.25    0.06
  -1  10   0    0.19    0.06
  -1  10   0    0.26    0.06
  -2 -10   0    9.61    0.33
  -2 -10   0    9.65    0.33
   2 -10   0    9.40    0.30
  -2 -10   0   10.17    0.35
  -2  10   0    9.76    0.33
   2  10   0    9.85    0.32
  -2  10   0    9.26    0.28
  -2  10   0    9.49    0.32
  -3 -10   0   18.21    0.58
  -3 -10   0   19.11    0.55
  -3 -10   0   18.93    0.60
   3 -10   0   18.34    0.55
  -3  10   0   18.79    0.56
   3  10   0   18.21    0.54
  -3  10   0   18.41    0.53
  -4 -10   0   13.35    0.55
  -4 -10   0   14.14    0.53
   0 -11   0    0.16    0.06
   1 -11   0   14.05    0.41
  -1 -11   0   14.17    0.39
  -1 -11   0   14.86    0.43
  -1 -11   0   14.44    0.42
  -1  11   0   14.78    0.42
  -1  11   0   14.63    0.42
   1  11   0   14.40    0.41
  -2 -11   0    0.48    0.10
  -2 -11   0    0.41    0.10
   2 -11   0    0.46    0.08
  -2 -11   0    0.53    0.10
  -2  11   0    0.45    0.10
   2  11   0    0.32    0.08
  -2  11   0    0.54    0.07
  -2  11   0    0.54    0.09
   3 -11   0    3.06    0.21
  -3 -11   0    3.48    0.22
  -3 -11   0    2.87    0.24
  -3 -11   0    3.43    0.24
   3  11   0    2.63    0.20
  -3  11   0    3.25    0.22
  -3  11   0    2.77    0.27
  -4 -11   0    2.21    0.27
  -4 -11   0    2.21    0.30
   0 -12   0    8.85    0.29
   0 -12   0    8.50    0.22
   0 -12   0    8.10    0.28
   0  12   0    8.43    0.28
  -1 -12   0   39.58    0.95
  -1 -12   0   42.06    0.99
  -1 -12   0   38.78    0.99
   1 -12   0   38.66    0.98
  -1  12   0   39.32    0.98
   1  12   0   38.92    0.97
   2 -12   0    1.93    0.14
  -2 -12   0    1.68    0.17
  -2 -12   0    1.62    0.18
  -2 -12   0    1.49    0.15
  -2  12   0    1.98    0.11
   2  12   0    2.01    0.15
  -2  12   0    1.95    0.17
  -2  12   0    1.97    0.15
  -3 -12   0   23.10    0.71
  -3 -12   0   23.07    0.71
  -3 -12   0   24.55    0.68
   3 -12   0   23.26    0.68
  -3  12   0   23.51    0.68
   3  12   0   22.92    0.66
  -4 -12   0    8.00    0.43
  -4 -12   0    7.96    0.41
   0 -13   0    0.02    0.03
   0 -13   0   -0.06    0.06
   0 -13   0    0.02    0.06
   0  13   0    0.07    0.06
  -1 -13   0   18.28    0.50
   1 -13   0   20.08    0.54
  -1 -13   0   18.96    0.55
   1 -13   0   19.26    0.54
  -1 -13   0   19.33    0.54
  -1  13   0   18.87    0.54
   1  13   0   18.90    0.53
  -2 -13   0   49.29    1.24
  -2 -13   0   50.09    1.23
   2 -13   0   49.04    1.20
  -2 -13   0   49.62    1.25
   2  13   0   50.65    1.22
  -2  13   0   50.00    1.23
  -2  13   0   45.89    1.20
  -2  13   0   51.02    1.23
   3 -13   0    3.08    0.23
  -3 -13   0    3.08    0.24
  -3 -13   0    2.91    0.22
  -3 -13   0    2.83    0.25
   3  13   0    2.94    0.21
  -3  13   0    2.84    0.22
  -4 -13   0    1.37    0.22
  -4 -13   0    1.41    0.25
   0 -14   0    1.00    0.13
   0 -14   0    0.90    0.06
   0 -14   0    1.05    0.12
   0  14   0    0.97    0.12
  -1 -14   0    0.57    0.11
   1 -14   0    0.58    0.10
  -1 -14   0    0.54    0.11
   1 -14   0    0.34    0.09
  -1 -14   0    0.61    0.09
   1  14   0    0.55    0.09
  -1  14   0    0.65    0.11
   2 -14   0    2.02    0.16
  -2 -14   0    1.76    0.19
  -2 -14   0    1.92    0.19
  -2 -14   0    1.87    0.17
   2  14   0    1.88    0.16
  -2  14   0    2.09    0.17
  -2  14   0    1.97    0.17
  -3 -14   0    1.07    0.18
  -3 -14   0    1.45    0.20
  -3 -14   0    0.97    0.18
  -3  14   0    1.21    0.17
   3  14   0    0.95    0.14
  -4 -14   0    0.06    0.15
  -4 -14   0    0.27    0.20
   0 -15   0    0.07    0.08
   0 -15   0    0.02    0.03
   0 -15   0    0.01    0.07
   0  15   0   -0.05    0.07
  -1 -15   0   24.95    0.71
  -1 -15   0   25.13    0.65
   1 -15   0   25.93    0.70
  -1 -15   0   26.75    0.71
   1 -15   0   25.24    0.70
  -1  15   0   25.99    0.70
   1  15   0   25.33    0.69
   2 -15   0   28.21    0.74
  -2 -15   0   27.56    0.78
  -2 -15   0   26.53    0.78
  -2 -15   0   27.24    0.74
  -2  15   0   28.09    0.77
  -2  15   0   27.32    0.76
   2  15   0   27.13    0.74
  -3 -15   0    3.24    0.27
  -3 -15   0    3.72    0.27
  -3 -15   0    3.41    0.26
  -3  15   0    2.93    0.24
   3  15   0    3.30    0.23
  -4 -15   0    1.33    0.23
  -4 -15   0    1.49    0.26
   0 -16   0   37.13    0.83
   0 -16   0   33.99    0.93
   0 -16   0   35.63    0.93
   0  16   0   35.84    0.92
  -1 -16   0   26.31    0.67
  -1 -16   0   27.08    0.74
   1 -16   0   26.23    0.73
   1 -16   0   27.41    0.73
  -1 -16   0   25.56    0.73
   1  16   0   26.79    0.72
  -1  16   0   25.71    0.72
  -2 -16   0    2.56    0.20
   2 -16   0    2.51    0.19
  -2 -16   0    2.40    0.23
  -2 -16   0    2.13    0.21
  -2  16   0    2.73    0.21
   2  16   0    2.63    0.20
  -3 -16   0    2.44    0.25
  -3 -16   0    2.36    0.25
  -3 -16   0    2.58    0.25
   3  16   0    2.40    0.21
  -3  16   0    2.60    0.23
  -3  16   0    2.31    0.22
  -4 -16   0    3.95    0.37
  -4 -16   0    3.96    0.35
   0 -17   0    0.36    0.10
  -1 -17   0    8.03    0.27
   1 -17   0    7.31    0.31
  -1 -17   0    7.59    0.33
   1 -17   0    8.11    0.33
  -1 -17   0    8.34    0.34
  -1  17   0    8.02    0.32
   1  17   0    8.17    0.31
  -2 -17   0    6.71    0.32
  -2 -17   0    6.52    0.29
   2 -17   0    6.56    0.29
  -2 -17   0    6.11    0.32
  -2  17   0    6.98    0.31
   2  17   0    6.76    0.30
  -3 -17   0    3.28    0.29
  -3 -17   0    4.52    0.30
  -3 -17   0    4.17    0.29
  -3  17   0    4.17    0.29
  -3  17   0    4.49    0.28
   3  17   0    3.64    0.26
  -4 -17   0    3.25    0.35
  -4 -17   0    3.69    0.35
   0 -18   0   86.95    2.07
   0 -18   0   83.72    2.07
   0 -18   0   90.21    1.95
   0  18   0   84.72    2.06
  -1 -18   0    6.44    0.24
   1 -18   0    6.81    0.31
  -1 -18   0    6.15    0.30
   1 -18   0    6.60    0.30
  -1 -18   0    6.68    0.31
   1  18   0    6.56    0.29
  -1  18   0    6.55    0.30
   2 -18   0   -0.01    0.11
  -2 -18   0   -0.04    0.12
   2 -18   0   -0.02    0.10
  -2 -18   0   -0.03    0.11
  -2 -18   0   -0.04    0.10
  -2  18   0    0.05    0.11
   2  18   0    0.03    0.10
  -3 -18   0   28.92    0.88
  -3 -18   0   29.93    0.88
  -3 -18   0   29.31    0.90
  -3  18   0   29.40    0.87
   3  18   0   30.80    0.99
  -1 -19   0    0.77    0.14
   1 -19   0    0.81    0.15
  -1 -19   0    0.76    0.10
  -1 -19   0    0.78    0.15
   1 -19   0    0.73    0.14
  -1  19   0    0.97    0.15
   1  19   0    0.98    0.14
   2 -19   0    0.17    0.12
  -2 -19   0    0.28    0.14
   2 -19   0    0.18    0.12
  -2 -19   0    0.11    0.11
  -2 -19   0    0.04    0.13
   2  19   0    0.22    0.11
  -2  19   0    0.02    0.11
  -3 -19   0    0.33    0.16
  -3 -19   0    0.38    0.17
  -3 -19   0    0.19    0.22
   3 -19   0    0.19    0.15
  -3  19   0    0.16    0.14
   0 -20   0   21.45    0.65
   0 -20   0   22.47    0.67
   0  20   0   21.12    0.65
  -1 -20   0   14.15    0.50
   1 -20   0   13.64    0.49
   1 -20   0   13.29    0.48
  -1 -20   0   14.35    0.42
  -1 -20   0   14.05    0.51
   1  20   0   14.30    0.48
  -1  20   0   14.25    0.49
  -2 -20   0    7.73    0.39
  -2 -20   0    8.90    0.42
   2 -20   0    8.64    0.39
   2 -20   0    8.80    0.37
  -2 -20   0    9.29    0.36
  -2  20   0    9.33    0.40
   2  20   0    8.49    0.37
   3 -20   0    9.55    0.43
  -3 -20   0    9.47    0.44
  -3 -20   0    9.54    0.47
  -3  20   0    8.77    0.43
   0 -21   0    0.36    0.12
   0 -21   0    0.22    0.13
   0  21   0    0.13    0.11
   1 -21   0   27.08    0.80
  -1 -21   0   27.55    0.82
  -1 -21   0   28.62    0.83
  -1 -21   0   27.36    0.72
   1 -21   0   27.92    0.81
   1  21   0   28.93    0.80
  -1  21   0   27.74    0.81
  -2 -21   0    9.48    0.37
   2 -21   0    9.53    0.41
  -2 -21   0    9.13    0.43
  -2 -21   0    8.85    0.42
   2 -21   0    8.90    0.43
   2  21   0    8.81    0.38
  -2  21   0    9.00    0.40
   3 -21   0    0.18    0.16
  -3 -21   0   -0.08    0.16
  -3 -21   0    0.16    0.17
  -3  21   0    0.03    0.15
   0 -22   0    4.59    0.28
   0 -22   0    3.72    0.26
   0  22   0    4.06    0.27
  -1 -22   0    0.68    0.17
   1 -22   0    0.42    0.13
   1 -22   0    0.60    0.16
  -1 -22   0    0.39    0.15
  -1  22   0    0.54    0.15
   1  22   0    0.52    0.14
  -2 -22   0    2.46    0.28
  -2 -22   0    2.79    0.23
  -2 -22   0    2.79    0.28
   2 -22   0    2.92    0.27
   2  22   0    2.53    0.23
  -2  22   0    2.75    0.26
  -3 -22   0    1.81    0.24
  -3 -22   0    2.11    0.28
   3 -22   0    1.61    0.23
  -3  22   0    1.55    0.23
   0 -23   0    0.12    0.13
   0 -23   0    0.09    0.13
   0  23   0    0.20    0.13
   1 -23   0    4.14    0.28
   1 -23   0    3.86    0.28
  -1 -23   0    4.13    0.30
  -1 -23   0    4.42    0.30
  -1  23   0    4.40    0.29
   1  23   0    4.15    0.27
  -2 -23   0   24.72    0.81
   2 -23   0   25.68    0.80
  -2 -23   0   24.30    0.80
  -2 -23   0   25.94    0.74
   2  23   0   23.89    0.76
  -2  23   0   25.87    0.79
  -3 -23   0    2.97    0.29
   3 -23   0    3.05    0.31
  -3 -23   0    3.03    0.35
  -3  23   0    3.17    0.33
   0 -24   0    4.08    0.31
   0 -24   0    4.02    0.29
   0  24   0    3.50    0.28
  -1 -24   0    7.24    0.39
  -1 -24   0    7.50    0.39
   1 -24   0    7.60    0.40
   1 -24   0    7.45    0.38
   1  24   0    7.22    0.36
  -1  24   0    7.47    0.38
  -2 -24   0    0.21    0.14
  -2 -24   0   -0.12    0.16
  -2 -24   0    0.31    0.18
   2 -24   0    0.09    0.15
  -2  24   0    0.32    0.16
   2  24   0    0.23    0.14
  -3 -24   0    0.52    0.21
  -3 -24   0    0.70    0.20
   3 -24   0    0.66    0.21
  -3  24   0    0.47    0.20
   0 -25   0    0.04    0.16
   0 -25   0   -0.07    0.14
   0  25   0    0.21    0.14
   1 -25   0   12.79    0.51
  -1 -25   0   12.66    0.53
  -1 -25   0   12.64    0.53
   1 -25   0   12.32    0.51
   1  25   0   13.38    0.51
  -1  25   0   12.55    0.51
  -2 -25   0   10.07    0.50
   2 -25   0   10.19    0.48
  -2 -25   0   11.03    0.50
  -2  25   0   10.82    0.48
   2  25   0    9.80    0.45
   0 -26   0   20.57    0.71
   0 -26   0   19.99    0.70
   0  26   0   19.87    0.68
   1 -26   0    5.08    0.35
  -1 -26   0    4.65    0.35
  -1 -26   0    4.70    0.34
   1 -26   0    4.74    0.33
  -1  26   0    4.61    0.33
   1  26   0    5.14    0.33
  -2 -26   0    1.21    0.24
  -2 -26   0    1.09    0.24
   2 -26   0    0.85    0.23
  -2  26   0    1.04    0.21
   2  26   0    0.77    0.19
   0 -27   0    0.42    0.17
   0 -27   0    0.40    0.17
   0  27   0    0.45    0.18
  -1 -27   0    1.59    0.25
   1 -27   0    1.23    0.22
  -1 -27   0    1.17    0.23
   1 -27   0    1.43    0.24
   1  27   0    1.38    0.21
  -1  27   0    1.22    0.21
  -2 -27   0    1.13    0.25
   2 -27   0    1.41    0.25
  -2 -27   0    1.20    0.25
   2  27   0    2.00    0.28
  -2  27   0    1.00    0.22
   0 -28   0   23.60    0.79
   0 -28   0   24.35    0.81
   0  28   0   22.73    0.78
   1 -28   0    3.68    0.34
  -1 -28   0    4.13    0.37
   1 -28   0    4.02    0.36
  -1 -28   0    4.21    0.36
  -1  28   0    3.81    0.34
   1  28   0    3.93    0.32
  -2 -28   0    1.07    0.26
  -2 -28   0    1.19    0.27
   2 -28   0    0.90    0.23
  -2  28   0    1.69    0.26
   2  28   0    1.19    0.22
   0 -29   0    0.23    0.18
   0 -29   0    0.58    0.22
   0  29   0    0.44    0.19
   1 -29   0    2.31    0.31
  -1 -29   0    2.56    0.34
  -1 -29   0    3.22    0.34
   1 -29   0    2.80    0.34
  -1  29   0    2.44    0.31
   1  29   0    2.17    0.30
   0 -30   0    9.43    0.50
   0 -30   0    8.66    0.50
   0  30   0    9.98    0.51
  -1 -30   0   12.25    0.58
   1 -30   0   12.12    0.58
   1 -30   0   12.31    0.56
  -1 -30   0   12.07    0.58
  -1  30   0   11.45    0.55
   1  30   0   11.50    0.54
   0 -31   0    0.13    0.21
   0 -31   0    0.23    0.20
   0  31   0    0.27    0.20
  -4   0   1    0.14    0.14
  -3   0   1   -0.07    0.06
   3   0  -1    0.02    0.07
   3   0  -1    0.00    0.08
  -3   0   1    0.25    0.11
  -2   0   1   -0.14    0.04
   2   0  -1   -0.11    0.05
   2   0  -1   -0.09    0.04
  -2   0   1    0.05    0.06
   1   0  -1   -0.13    0.04
  -1   0   1   -0.18    0.04
   1   0  -1   -0.11    0.02
  -1   0   1   -0.10    0.02
   0   0  -1   -0.01    0.01
   0   0  -1   -0.05    0.01
   0   0   1   -0.01    0.01
   0   0  -1    0.00    0.02
  -1   0  -1   -0.08    0.04
   1   0   1   -0.10    0.04
  -1   0  -1   -0.08    0.04
   1   0   1   -0.06    0.03
   2   0   1    0.01    0.04
  -2   0  -1   -0.06    0.05
  -2   0  -1    0.07    0.06
   2   0   1    0.01    0.06
  -3   0  -1    0.04    0.08
   3   0   1   -0.06    0.07
   3   0   1   -0.04    0.07
  -3   0  -1   -0.03    0.09
  -4   0  -1    0.17    0.15
  -4  -1   1    1.76    0.24
   4   1  -1    1.67    0.23
  -4   1   1    1.58    0.22
  -3  -1   1   31.11    0.83
  -3  -1   1   29.35    0.75
   3  -1  -1   30.55    0.79
   3  -1  -1   30.62    0.76
   3   1  -1   30.92    0.76
  -3   1   1   30.23    0.75
  -3   1   1   29.98    0.81
   3   1  -1   29.89    0.79
  -2  -1   1   47.09    1.06
  -2  -1   1   46.42    1.11
   2  -1  -1   45.71    1.06
   2  -1  -1   44.81    1.09
  -2   1   1   46.22    1.06
  -2   1   1   46.13    1.10
   2   1  -1   46.28    1.06
   2   1  -1   44.32    1.10
  -1  -1   1    5.14    0.16
  -1  -1   1    5.12    0.13
   1  -1  -1    4.99    0.16
   1   1  -1    5.23    0.16
  -1   1   1    5.20    0.14
   1   1  -1    5.06    0.13
  -1   1   1    5.06    0.16
   0  -1  -1    4.37    0.13
   0  -1   1    4.69    0.12
   0  -1  -1    4.35    0.13
   0  -1  -1    4.82    0.13
   0   1   1    4.49    0.13
   0   1  -1    4.40    0.13
   0   1  -1    4.71    0.12
   0   1  -1    4.79    0.12
  -1  -1  -1   93.13    2.10
  -1  -1  -1   90.35    2.09
   1  -1   1   91.00    2.09
   1  -1   1   93.06    2.06
  -1   1  -1   92.65    2.09
  -1   1  -1   94.82    2.09
   1   1   1   93.67    2.09
   2  -1   1   68.38    1.58
  -2  -1  -1   68.58    1.58
  -2  -1  -1   67.80    1.59
   2  -1   1   65.94    1.55
  -2   1  -1   67.26    1.59
  -2   1  -1   70.07    1.58
   2   1   1   67.24    1.56
   2   1   1   66.58    1.58
   3  -1   1    2.02    0.14
   3  -1   1    1.97    0.16
  -3  -1  -1    1.85    0.16
  -3  -1  -1    1.94    0.19
   3   1   1    2.34    0.16
   3   1   1    2.49    0.17
  -3   1  -1    1.85    0.18
  -3   1  -1    1.88    0.16
  -4  -1  -1   12.30    0.51
  -4   1  -1   13.12    0.51
  -4  -2   1    5.04    0.32
   4   2  -1    4.80    0.28
  -4   2   1    5.29    0.32
   3  -2  -1    0.60    0.09
  -3  -2   1    0.57    0.12
   3  -2  -1    0.46    0.10
  -3  -2   1    0.61    0.09
   3   2  -1    0.76    0.12
  -3   2   1    0.81    0.13
   3   2  -1    0.64    0.09
  -3   2   1    0.80    0.10
  -2  -2   1    2.23    0.10
   2  -2  -1    2.08    0.10
   2  -2  -1    2.11    0.13
  -2  -2   1    1.96    0.14
   2   2  -1    2.24    0.13
   2   2  -1    2.30    0.10
  -2   2   1    2.23    0.11
  -2   2   1    2.26    0.13
   1  -2  -1    0.45    0.05
  -1  -2   1    0.42    0.04
  -1  -2   1    0.51    0.06
   1   2  -1    0.44    0.04
  -1   2   1    0.47    0.04
  -1   2   1    0.43    0.05
   1   2  -1    0.38    0.06
  -1   2   1    0.44    0.04
   0  -2  -1    2.48    0.08
   0  -2  -1    2.49    0.09
   0  -2  -1    2.72    0.09
   0   2  -1    2.64    0.08
   0   2  -1    2.64    0.08
   0   2  -1    2.63    0.08
   0   2  -1    2.60    0.08
   0   2   1    2.70    0.09
  -1  -2  -1    2.08    0.09
  -1  -2  -1    2.09    0.10
   1  -2   1    2.22    0.10
  -1  -2  -1    2.41    0.11
   1  -2   1    2.06    0.07
  -1   2  -1    1.85    0.10
  -1   2  -1    2.02    0.10
   1   2   1    2.24    0.10
  -2  -2  -1    0.28    0.08
   2  -2   1    0.12    0.05
   2  -2   1    0.12    0.06
  -2  -2  -1    0.17    0.07
  -2   2  -1    0.19    0.07
  -2   2  -1    0.18    0.07
   2   2   1    0.10    0.06
   2   2   1    0.23    0.06
   3  -2   1   17.41    0.46
  -3  -2  -1   16.01    0.52
  -3  -2  -1   16.24    0.49
   3  -2   1   16.43    0.49
  -3   2  -1   17.63    0.50
   3   2   1   16.47    0.49
   3   2   1   16.48    0.48
  -3   2  -1   16.80    0.52
  -4  -2  -1    0.64    0.18
  -4   2  -1    0.86    0.18
  -4  -3   1    0.45    0.17
   4   3  -1    0.61    0.15
  -4   3   1    0.22    0.15
   3  -3  -1   14.60    0.42
  -3  -3   1   14.84    0.41
  -3  -3   1   14.70    0.48
   3  -3  -1   14.74    0.44
   3   3  -1   14.46    0.41
   3   3  -1   14.31    0.46
  -3   3   1   15.09    0.42
  -3   3   1   15.23    0.46
   2  -3  -1   16.65    0.45
   2  -3  -1   16.57    0.43
  -2  -3   1   16.41    0.47
  -2  -3   1   16.61    0.42
   2   3  -1   17.11    0.42
  -2   3   1   16.10    0.42
   2   3  -1   17.43    0.46
  -2   3   1   16.32    0.45
  -1  -3   1   13.32    0.32
  -1  -3   1   12.91    0.34
   1  -3  -1   12.97    0.34
   1   3  -1   12.82    0.31
  -1   3   1   13.33    0.32
  -1   3   1   13.19    0.32
  -1   3   1   12.66    0.32
   1   3  -1   12.74    0.34
   0  -3  -1    7.05    0.20
   0  -3  -1    7.00    0.18
   0   3  -1    7.18    0.18
   0   3   1    7.35    0.19
   0   3  -1    7.03    0.19
   0   3  -1    6.77    0.18
   0   3  -1    7.53    0.18
   1  -3   1   22.37    0.51
  -1  -3  -1   22.82    0.56
  -1  -3  -1   22.36    0.55
  -1  -3  -1   22.41    0.54
   1  -3   1   22.93    0.55
   1   3   1   22.97    0.56
  -1   3  -1   21.80    0.54
  -1   3  -1   22.11    0.55
  -2  -3  -1   13.61    0.39
   2  -3   1   13.17    0.34
  -2  -3  -1   12.99    0.40
   2  -3   1   13.13    0.38
   2   3   1   13.26    0.37
  -2   3  -1   13.66    0.39
  -2   3  -1   13.63    0.39
   2   3   1   13.41    0.39
  -3  -3  -1    2.85    0.18
   3  -3   1    3.06    0.19
   3  -3   1    2.59    0.18
  -3  -3  -1    3.15    0.22
   3   3   1    2.95    0.18
  -3   3  -1    2.87    0.19
  -3   3  -1    2.92    0.21
   3   3   1    2.99    0.19
  -4  -3  -1    3.01    0.29
  -4   3  -1    3.02    0.26
  -4  -4   1   26.35    0.81
   4   4  -1   26.33    0.77
  -4   4   1   26.19    0.78
  -3  -4   1   15.12    0.42
   3  -4  -1   15.15    0.45
   3  -4  -1   14.96    0.43
  -3  -4   1   15.41    0.50
  -3   4   1   15.17    0.43
   3   4  -1   15.12    0.43
  -3   4   1   15.11    0.47
   3   4  -1   15.64    0.47
  -2  -4   1    1.49    0.12
   2  -4  -1    1.58    0.10
   2  -4  -1    1.39    0.11
  -2  -4   1    1.39    0.08
   2   4  -1    1.34    0.12
  -2   4   1    1.39    0.10
  -2   4   1    1.46    0.11
   2   4  -1    1.37    0.09
  -1  -4   1   13.49    0.36
   1  -4  -1   14.04    0.36
  -1  -4   1   14.02    0.34
  -1   4   1   13.74    0.35
   1   4  -1   13.22    0.36
  -1   4   1   13.81    0.35
  -1   4   1   14.13    0.34
   1   4  -1   13.72    0.34
   0  -4  -1    9.23    0.25
   0  -4  -1    9.32    0.23
   0  -4  -1    9.30    0.25
   0   4  -1    9.59    0.24
   0   4  -1    9.35    0.24
   0   4   1    9.74    0.25
   0   4  -1    9.55    0.24
   0   4  -1    9.54    0.24
  -1  -4  -1    5.16    0.17
  -1  -4  -1    5.34    0.18
  -1  -4  -1    5.40    0.19
   1  -4   1    5.06    0.14
  -1   4  -1    5.19    0.17
   1   4   1    5.25    0.18
  -1   4  -1    5.31    0.18
  -2  -4  -1   53.81    1.28
  -2  -4  -1   52.45    1.30
   2  -4   1   54.09    1.28
   2  -4   1   53.52    1.23
  -2   4  -1   54.64    1.28
   2   4   1   54.09    1.28
  -2   4  -1   55.15    1.29
   3  -4   1   40.29    1.01
  -3  -4  -1   38.94    1.00
  -3  -4  -1   39.68    1.04
  -3   4  -1   39.47    1.00
   3   4   1   38.69    1.00
  -3   4  -1   39.52    1.02
  -4  -4  -1    8.65    0.43
  -4   4  -1    8.44    0.40
  -4  -5   1    0.30    0.17
   4   5  -1    0.29    0.14
  -4   5   1    0.37    0.15
  -3  -5   1    3.94    0.18
   3  -5  -1    4.35    0.21
  -3  -5   1    4.11    0.25
   3  -5  -1    4.32    0.19
   3   5  -1    4.58    0.23
   3   5  -1    4.33    0.19
  -3   5   1    4.34    0.20
  -3   5   1    4.24    0.21
  -2  -5   1    0.82    0.08
   2  -5  -1    0.70    0.09
  -2  -5   1    0.78    0.12
  -2   5   1    1.01    0.09
  -2   5   1    1.08    0.10
   2   5  -1    0.92    0.11
   2   5  -1    0.82    0.08
  -1  -5   1    6.07    0.18
   1  -5  -1    5.82    0.19
  -1  -5   1    6.09    0.19
  -1   5   1    6.17    0.18
  -1   5   1    5.90    0.18
  -1   5   1    5.87    0.17
   1   5  -1    5.91    0.20
   1   5  -1    6.39    0.17
   0  -5  -1    0.41    0.06
   0  -5  -1    0.37    0.05
   0  -5  -1    0.50    0.04
   0   5  -1    0.32    0.04
   0   5   1    0.45    0.05
   0   5  -1    0.47    0.05
   0   5  -1    0.53    0.05
  -1  -5  -1    0.42    0.06
  -1  -5  -1    0.54    0.07
   1  -5   1    0.45    0.04
  -1  -5  -1    0.52    0.08
  -1   5  -1    0.47    0.07
  -1   5  -1    0.42    0.06
   1   5   1    0.53    0.08
  -1   5  -1    0.47    0.07
  -2  -5  -1    5.08    0.22
  -2  -5  -1    5.25    0.21
   2  -5   1    5.39    0.16
   2  -5   1    5.18    0.21
   2   5   1    5.27    0.21
  -2   5  -1    5.09    0.20
  -2   5  -1    5.22    0.21
  -3  -5  -1    1.17    0.15
  -3  -5  -1    1.67    0.19
   3  -5   1    1.41    0.16
  -3   5  -1    1.23    0.15
   3   5   1    1.27    0.16
  -3   5  -1    1.43    0.16
  -4  -5  -1    0.74    0.19
  -4   5  -1    0.80    0.17
  -4  -6   1   11.94    0.50
  -4   6   1   12.04    0.46
   4   6  -1   12.19    0.47
   3  -6  -1    9.41    0.31
   3  -6  -1    9.63    0.33
  -3  -6   1    9.97    0.38
  -3  -6   1    9.18    0.30
  -3   6   1    9.78    0.32
   3   6  -1    9.28    0.31
   3   6  -1    9.57    0.36
  -3   6   1    9.57    0.34
  -2  -6   1    9.99    0.29
   2  -6  -1    9.91    0.31
  -2  -6   1    9.70    0.33
   2   6  -1   10.21    0.29
  -2   6   1   10.03    0.29
   2   6  -1   10.09    0.33
  -2   6   1    9.62    0.29
  -2   6   1   10.00    0.30
  -1  -6   1   61.26    1.45
  -1  -6   1   62.78    1.44
   1  -6  -1   62.38    1.45
   1   6  -1   63.80    1.46
  -1   6   1   62.25    1.44
  -1   6   1   64.22    1.41
  -1   6   1   64.14    1.44
   1   6  -1   62.66    1.43
   0  -6  -1   93.28    2.16
   0  -6   1   96.43    2.12
   0  -6  -1   92.36    2.13
   0  -6  -1   93.43    2.10
   0   6  -1   91.82    2.12
   0   6  -1   95.69    2.12
   0   6  -1   95.98    2.10
  -1  -6  -1    5.72    0.21
  -1  -6  -1    5.89    0.20
  -1  -6  -1    5.98    0.20
   1  -6   1    5.98    0.17
  -1   6  -1    6.02    0.18
  -1   6  -1    6.00    0.20
  -1   6  -1    6.13    0.20
   1   6   1    5.69    0.20
   2  -6   1   12.65    0.33
  -2  -6  -1   12.49    0.38
  -2  -6  -1   13.18    0.40
  -2  -6  -1   12.55    0.38
   2  -6   1   12.45    0.38
  -2   6  -1   12.90    0.38
  -2   6  -1   12.55    0.37
   2   6   1   13.11    0.39
   3  -6   1   19.74    0.58
  -3  -6  -1   19.64    0.58
  -3  -6  -1   20.62    0.62
  -3  -6  -1   20.35    0.58
  -3   6  -1   20.55    0.59
   3   6   1   19.87    0.58
  -3   6  -1   20.44    0.59
  -4  -6  -1    2.59    0.29
  -4   6  -1    2.40    0.25
  -4  -7   1    0.83    0.20
  -4   7   1    1.02    0.17
   4   7  -1    1.01    0.18
  -3  -7   1    9.54    0.38
   3  -7  -1    9.83    0.33
   3  -7  -1    9.83    0.33
  -3  -7   1    8.92    0.30
   3   7  -1   10.02    0.37
  -3   7   1    9.50    0.33
  -3   7   1    9.77    0.33
   3   7  -1   10.24    0.36
   2  -7  -1   44.76    1.08
  -2  -7   1   46.40    1.11
  -2  -7   1   44.50    1.07
  -2   7   1   44.55    1.06
   2   7  -1   43.77    1.11
  -2   7   1   45.66    1.08
  -2   7   1   45.53    1.08
   2   7  -1   44.95    1.06
  -1  -7   1    2.63    0.12
   1  -7  -1    2.47    0.13
  -1  -7   1    2.72    0.12
   1   7  -1    2.47    0.11
  -1   7   1    2.54    0.08
  -1   7   1    2.78    0.12
   0  -7  -1    7.99    0.24
   0  -7  -1    7.66    0.20
   0  -7   1    7.55    0.22
   0   7  -1    7.77    0.23
   0   7   1    7.85    0.24
   0   7  -1    8.12    0.23
   0   7  -1    7.98    0.21
  -1  -7  -1   87.41    2.02
  -1  -7  -1   86.58    2.01
  -1  -7  -1   86.22    2.03
   1  -7   1   90.18    1.98
   1   7   1   90.07    2.02
  -1   7  -1   89.72    2.02
  -1   7  -1   88.22    1.98
  -1   7  -1   85.30    2.01
   2  -7   1    9.87    0.27
  -2  -7  -1    9.98    0.34
  -2  -7  -1   10.11    0.33
  -2  -7  -1   10.32    0.33
   2  -7   1   10.32    0.33
  -2   7  -1    9.94    0.31
   2   7   1   10.41    0.33
  -2   7  -1   10.27    0.33
   3  -7   1    1.75    0.18
  -3  -7  -1    1.41    0.17
  -3  -7  -1    1.56    0.18
  -3  -7  -1    1.47    0.16
  -3   7  -1    1.67    0.17
  -3   7  -1    1.73    0.17
   3   7   1    1.37    0.17
  -4  -7  -1    8.78    0.44
  -4   7  -1    8.23    0.38
  -4  -8   1    7.37    0.40
   4   8  -1    7.45    0.37
   3  -8  -1    0.58    0.11
  -3  -8   1    0.65    0.10
  -3  -8   1    0.72    0.14
   3  -8  -1    1.08    0.13
   3   8  -1    0.77    0.14
  -3   8   1    1.08    0.13
  -3   8   1    1.02    0.13
  -2  -8   1    0.50    0.08
   2  -8  -1    0.37    0.08
  -2  -8   1    0.32    0.08
   2   8  -1    0.28    0.06
  -2   8   1    0.55    0.08
  -2   8   1    0.48    0.08
  -2   8   1    0.33    0.06
   2   8  -1    0.64    0.10
   1  -8  -1   21.15    0.55
  -1  -8   1   20.94    0.53
  -1  -8   1   21.06    0.53
  -1   8   1   20.71    0.48
   1   8  -1   21.08    0.52
  -1   8   1   20.25    0.53
   0  -8  -1   14.42    0.39
   0  -8   1   14.73    0.38
   0  -8  -1   13.94    0.35
   0   8  -1   14.67    0.38
   0   8  -1   13.75    0.38
   1  -8   1    1.15    0.08
  -1  -8  -1    1.28    0.11
  -1  -8  -1    1.09    0.10
  -1  -8  -1    1.30    0.10
  -1   8  -1    1.39    0.10
  -1   8  -1    1.02    0.10
   1   8   1    1.40    0.11
  -1   8  -1    1.27    0.08
  -2  -8  -1    3.12    0.18
   2  -8   1    3.36    0.13
  -2  -8  -1    3.30    0.18
   2  -8   1    3.33    0.17
  -2  -8  -1    3.24    0.18
   2   8   1    3.21    0.18
  -2   8  -1    3.36    0.15
  -2   8  -1    3.24    0.17
  -3  -8  -1   16.08    0.51
  -3  -8  -1   16.63    0.51
  -3  -8  -1   17.00    0.55
   3  -8   1   16.72    0.51
  -3   8  -1   16.97    0.50
   3   8   1   15.92    0.51
  -3   8  -1   16.97    0.52
  -4  -8  -1    3.04    0.31
  -4   8  -1    3.25    0.26
  -4  -9   1    0.03    0.17
   4   9  -1    0.40    0.16
  -3  -9   1   34.39    0.95
   3  -9  -1   34.73    0.89
   3  -9  -1   35.20    0.90
  -3  -9   1   35.47    0.91
  -3   9   1   35.55    0.90
  -3   9   1   34.92    0.89
   3   9  -1   33.45    0.94
   2  -9  -1   57.94    1.36
  -2  -9   1   57.33    1.35
  -2  -9   1   57.71    1.38
  -2   9   1   56.69    1.36
  -2   9   1   55.99    1.32
   2   9  -1   56.72    1.38
   2   9  -1   55.84    1.33
  -2   9   1   57.29    1.35
  -1  -9   1   22.94    0.58
  -1  -9   1   23.26    0.59
   1  -9  -1   22.36    0.59
   1  -9  -1   23.35    0.60
   1   9  -1   23.04    0.58
   1   9  -1   23.41    0.60
  -1   9   1   23.03    0.59
  -1   9   1   22.93    0.52
   0  -9  -1   60.18    1.38
   0  -9   1   60.88    1.38
   0  -9  -1   60.78    1.43
   0  -9   1   61.23    1.42
   0   9  -1   59.83    1.42
   0   9   1   64.01    1.43
   1  -9   1  113.32    2.53
  -1  -9  -1  111.89    2.57
  -1  -9  -1  111.18    2.57
  -1  -9  -1  111.28    2.54
  -1   9  -1  112.56    2.56
  -1   9  -1  111.81    2.56
   1   9   1  112.77    2.56
  -1   9  -1  111.35    2.51
  -2  -9  -1   64.61    1.55
   2  -9   1   65.51    1.48
  -2  -9  -1   65.47    1.55
  -2  -9  -1   63.43    1.55
   2   9   1   65.58    1.55
  -2   9  -1   63.85    1.51
  -2   9  -1   64.43    1.55
  -3  -9  -1    2.43    0.20
  -3  -9  -1    2.16    0.20
   3  -9   1    2.33    0.19
  -3  -9  -1    2.20    0.22
  -3   9  -1    2.47    0.20
  -3   9  -1    2.37    0.18
   3   9   1    2.32    0.20
  -4  -9  -1   39.43    1.13
  -4 -10   1    1.95    0.27
   3 -10  -1    0.28    0.10
   3 -10  -1    0.17    0.10
  -3 -10   1    0.14    0.12
  -3  10   1    0.43    0.10
  -3  10   1    0.21    0.10
   3  10  -1    0.16    0.12
   2 -10  -1    8.44    0.30
  -2 -10   1    8.71    0.30
  -2 -10   1    8.51    0.31
  -2  10   1    8.80    0.25
   2  10  -1    8.98    0.28
   2  10  -1    8.20    0.32
  -2  10   1    9.07    0.30
  -2  10   1    9.08    0.30
   1 -10  -1   34.13    0.84
  -1 -10   1   33.77    0.83
  -1 -10   1   34.42    0.84
   1 -10  -1   34.83    0.86
   1  10  -1   35.76    0.83
  -1  10   1   33.12    0.76
  -1  10   1   33.64    0.84
   0 -10  -1   30.05    0.76
   0 -10  -1   30.58    0.70
   0 -10   1   29.85    0.70
   0 -10   1   30.05    0.75
   0 -10   1   29.96    0.75
   0  10   1   30.41    0.75
   0  10  -1   31.53    0.75
  -1 -10  -1   17.17    0.49
   1 -10   1   17.39    0.46
  -1 -10  -1   17.34    0.46
  -1 -10  -1   17.02    0.49
  -1  10  -1   17.87    0.42
   1  10   1   17.23    0.48
  -1  10  -1   17.31    0.48
  -1  10  -1   16.94    0.48
  -2 -10  -1    0.12    0.09
   2 -10   1    0.02    0.05
  -2 -10  -1    0.30    0.09
  -2 -10  -1    0.22    0.10
   2  10   1    0.13    0.08
  -2  10  -1    0.06    0.08
  -2  10  -1    0.20    0.07
  -2  10  -1    0.12    0.08
  -3 -10  -1    3.77    0.24
  -3 -10  -1    2.91    0.22
   3 -10   1    2.89    0.22
  -3 -10  -1    3.29    0.25
  -3  10  -1    3.89    0.23
   3  10   1    3.28    0.22
  -3  10  -1    3.45    0.20
  -4 -10  -1    0.44    0.19
  -4 -11   1    0.20    0.17
   3 -11  -1   11.92    0.39
  -3 -11   1   11.92    0.45
   3 -11  -1   12.08    0.40
  -3  11   1   11.28    0.40
   3  11  -1   12.35    0.45
  -2 -11   1   39.14    0.99
   2 -11  -1   38.96    0.98
  -2 -11   1   40.21    0.98
  -2  11   1   39.40    0.98
  -2  11   1   39.20    0.92
   2  11  -1   39.53    1.01
   2  11  -1   38.05    0.96
  -2  11   1   39.23    0.98
  -1 -11   1    5.72    0.20
   1 -11  -1    5.79    0.22
  -1 -11   1    6.06    0.22
  -1 -11   1    5.82    0.23
   1 -11  -1    5.52    0.23
  -1  11   1    5.83    0.22
   1  11  -1    5.69    0.21
   0 -11   1    1.96    0.12
   0 -11   1    1.87    0.12
   0 -11  -1    1.91    0.08
   0 -11   1    1.81    0.08
   0 -11  -1    2.03    0.13
   0  11  -1    2.18    0.13
   0  11   1    1.98    0.13
   1 -11   1   47.95    1.15
  -1 -11  -1   49.95    1.19
  -1 -11  -1   47.98    1.19
  -1 -11  -1   48.84    1.15
   1  11   1   49.92    1.18
  -1  11  -1   47.45    1.18
  -1  11  -1   49.04    1.18
  -1  11  -1   47.54    1.10
  -2 -11  -1   11.93    0.40
  -2 -11  -1   12.27    0.40
  -2 -11  -1   12.33    0.41
   2 -11   1   12.63    0.34
  -2  11  -1   11.50    0.34
  -2  11  -1   11.74    0.39
   2  11   1   12.07    0.39
  -2  11  -1   12.00    0.39
  -3 -11  -1    1.54    0.20
  -3 -11  -1    1.22    0.18
  -3 -11  -1    1.47    0.19
   3 -11   1    1.20    0.16
  -3  11  -1    1.25    0.17
  -3  11  -1    1.15    0.15
   3  11   1    1.42    0.18
  -4 -11  -1   13.44    0.56
  -4 -11  -1   12.17    0.54
  -4 -12   1   16.12    0.59
  -4 -12   1   15.27    0.61
  -3 -12   1    4.55    0.28
   3 -12  -1    4.10    0.23
  -3  12   1    4.15    0.23
   2 -12  -1    7.45    0.28
  -2 -12   1    7.83    0.29
  -2 -12   1    7.89    0.30
  -2  12   1    7.51    0.22
   2  12  -1    7.61    0.27
  -2  12   1    7.40    0.28
   1 -12  -1   17.62    0.51
  -1 -12   1   18.49    0.52
  -1 -12   1   19.15    0.51
  -1 -12   1   17.22    0.48
   1 -12  -1   18.22    0.51
   1  12  -1   17.94    0.49
  -1  12   1   18.21    0.51
   0 -12   1   37.69    0.92
   0 -12   1   36.17    0.90
   0 -12  -1   37.16    0.85
   0 -12  -1   36.82    0.92
   0 -12   1   36.51    0.85
   0  12   1   36.02    0.91
   0  12  -1   36.73    0.91
  -1 -12  -1    8.81    0.27
   1 -12   1    8.79    0.28
  -1 -12  -1    9.05    0.31
  -1 -12  -1    8.28    0.31
  -1  12  -1    7.91    0.29
  -1  12  -1    8.94    0.22
   1  12   1    8.69    0.30
  -1  12  -1    8.05    0.29
  -2 -12  -1    9.30    0.35
   2 -12   1    9.34    0.28
  -2 -12  -1    8.71    0.33
  -2 -12  -1    9.11    0.35
  -2  12  -1    9.62    0.34
  -2  12  -1    9.15    0.34
  -2  12  -1    9.52    0.28
   2  12   1    9.04    0.34
   3 -12   1   32.34    0.86
  -3 -12  -1   30.16    0.88
  -3 -12  -1   29.81    0.85
  -3 -12  -1   30.53    0.87
  -3  12  -1   31.42    0.86
   3  12   1   30.83    0.84
  -4 -12  -1    1.23    0.24
  -4 -12  -1    1.18    0.20
  -4 -13   1    0.88    0.21
  -4 -13   1    0.56    0.19
  -3 -13   1    0.41    0.15
  -3  13   1    0.26    0.11
  -2 -13   1    6.14    0.26
  -2 -13   1    5.63    0.25
   2 -13  -1    5.56    0.25
  -2 -13   1    5.19    0.27
   2  13  -1    5.29    0.23
  -2  13   1    5.77    0.25
   1 -13  -1    4.99    0.22
  -1 -13   1    5.09    0.19
  -1 -13   1    4.93    0.22
  -1 -13   1    4.94    0.23
   1 -13  -1    5.11    0.23
   1  13  -1    5.26    0.21
  -1  13   1    4.97    0.22
   0 -13   1   18.67    0.46
   0 -13  -1   18.48    0.45
   0 -13   1   18.71    0.52
   0 -13   1   18.75    0.52
   0 -13  -1   18.74    0.53
   0  13  -1   18.94    0.52
   0  13   1   18.76    0.52
  -1 -13  -1    8.36    0.27
  -1 -13  -1    8.16    0.31
  -1 -13  -1    7.84    0.30
   1 -13   1    7.85    0.28
   1  13   1    7.61    0.29
  -1  13  -1    8.35    0.21
  -1  13  -1    8.11    0.29
  -1  13  -1    7.85    0.29
   2 -13   1    0.05    0.07
  -2 -13  -1    0.02    0.10
  -2 -13  -1    0.25    0.10
  -2 -13  -1    0.17    0.11
   2  13   1    0.03    0.09
  -2  13  -1    0.15    0.10
  -2  13  -1    0.09    0.06
  -2  13  -1    0.04    0.08
  -3 -13  -1    0.37    0.14
  -3 -13  -1    0.16    0.14
   3 -13   1   -0.04    0.10
  -3 -13  -1    0.17    0.13
  -3  13  -1    0.24    0.12
   3  13   1   -0.06    0.10
  -4 -13  -1    1.89    0.28
  -4 -13  -1    2.26    0.27
  -4  13  -1    2.71    0.41
  -4 -14   1    8.84    0.48
  -4 -14   1    8.86    0.44
  -3 -14   1   12.07    0.47
  -3 -14   1   12.36    0.48
  -3  14   1   13.05    0.44
  -2 -14   1    3.05    0.20
  -2 -14   1    2.63    0.19
   2 -14  -1    2.86    0.19
  -2 -14   1    2.61    0.21
   2 -14  -1    3.10    0.20
  -2  14   1    2.94    0.20
   2  14  -1    3.31    0.18
   1 -14  -1   85.20    1.97
  -1 -14   1   81.95    1.92
  -1 -14   1   83.40    1.96
  -1 -14   1   82.83    1.97
   1 -14  -1   84.62    1.97
   1  14  -1   81.90    1.94
  -1  14   1   82.63    1.96
   0 -14  -1   68.42    1.64
   0 -14   1   68.32    1.62
   0 -14   1   66.84    1.55
   0 -14   1   68.36    1.63
   0 -14  -1   70.37    1.55
   0  14   1   68.01    1.63
   0  14  -1   68.07    1.62
  -1 -14  -1    1.38    0.15
   1 -14   1    1.57    0.13
  -1 -14  -1    1.56    0.12
  -1 -14  -1    1.49    0.16
  -1  14  -1    1.56    0.06
   1  14   1    1.25    0.14
  -1  14  -1    1.76    0.15
  -1  14  -1    1.39    0.13
   2 -14   1   26.10    0.66
  -2 -14  -1   24.68    0.72
  -2 -14  -1   24.49    0.73
  -2 -14  -1   25.40    0.70
   2  14   1   24.95    0.71
  -2  14  -1   26.36    0.72
  -2  14  -1   25.29    0.71
  -3 -14  -1    7.37    0.35
  -3 -14  -1    7.33    0.37
  -3 -14  -1    7.01    0.35
   3 -14   1    7.50    0.35
  -3  14  -1    7.29    0.35
   3  14   1    7.26    0.33
  -4 -14  -1    1.46    0.23
  -4 -14  -1    1.64    0.26
  -4  14  -1    1.92    0.28
  -4 -15   1    1.76    0.25
  -4 -15   1    2.03    0.28
  -3 -15   1    4.54    0.31
  -3 -15   1    4.39    0.30
  -3  15   1    4.20    0.26
  -2 -15   1    8.00    0.33
   2 -15  -1    7.64    0.32
   2 -15  -1    7.74    0.32
  -2 -15   1    8.08    0.32
  -2 -15   1    8.32    0.35
  -2  15   1    8.36    0.32
   2  15  -1    7.98    0.30
   1 -15  -1    3.37    0.21
   1 -15  -1    3.41    0.20
  -1 -15   1    3.49    0.17
  -1 -15   1    3.26    0.20
  -1 -15   1    3.65    0.21
  -1  15   1    3.28    0.20
   1  15  -1    3.65    0.19
   0 -15   1    7.72    0.22
   0 -15   1    7.91    0.30
   0 -15   1    8.02    0.29
   0 -15  -1    7.61    0.22
   0 -15  -1    7.88    0.31
   0  15  -1    7.63    0.29
   0  15   1    7.74    0.30
  -1 -15  -1   11.92    0.42
  -1 -15  -1   11.77    0.36
   1 -15   1   12.30    0.38
  -1 -15  -1   12.31    0.42
   1  15   1   12.01    0.40
  -1  15  -1   11.92    0.40
  -1  15  -1   11.95    0.42
  -2 -15  -1    3.13    0.23
  -2 -15  -1    3.28    0.21
   2 -15   1    2.96    0.17
  -2 -15  -1    2.85    0.22
   2  15   1    3.02    0.21
  -2  15  -1    2.86    0.21
  -2  15  -1    3.16    0.22
  -3 -15  -1    2.08    0.24
  -3 -15  -1    2.27    0.25
  -3 -15  -1    1.74    0.24
   3 -15   1    2.38    0.23
   3  15   1    1.93    0.22
  -3  15  -1    2.40    0.23
  -4 -15  -1   -0.07    0.16
  -4 -15  -1   -0.02    0.19
  -4  15  -1    0.15    0.18
  -4 -16   1    6.85    0.43
  -4 -16   1    7.09    0.43
  -3 -16   1    3.89    0.29
   3 -16  -1    4.08    0.27
  -3 -16   1    4.49    0.31
  -3  16   1    4.06    0.27
  -2 -16   1    2.95    0.23
   2 -16  -1    2.68    0.20
  -2 -16   1    2.76    0.21
   2 -16  -1    3.01    0.21
  -2 -16   1    2.84    0.22
  -2  16   1    2.99    0.22
   2  16  -1    2.91    0.19
  -1 -16   1   25.48    0.71
   1 -16  -1   24.75    0.70
   1 -16  -1   24.54    0.70
  -1 -16   1   23.91    0.64
  -1 -16   1   25.59    0.70
   1  16  -1   25.53    0.68
  -1  16   1   25.62    0.70
   0 -16   1   34.19    0.80
   0 -16   1   33.43    0.89
   0 -16  -1   33.74    0.80
   0 -16  -1   34.50    0.91
   0 -16   1   34.37    0.89
   0  16  -1   34.93    0.89
   0  16   1   34.09    0.89
  -1 -16  -1    1.47    0.12
   1 -16   1    1.53    0.15
  -1 -16  -1    1.55    0.18
  -1 -16  -1    1.53    0.17
  -1  16  -1    1.50    0.16
   1  16   1    1.53    0.16
   2 -16   1    7.31    0.29
  -2 -16  -1    8.46    0.36
  -2 -16  -1    7.90    0.32
  -2 -16  -1    7.95    0.35
  -2  16  -1    7.76    0.33
  -2  16  -1    7.52    0.33
   2  16   1    7.36    0.33
   3 -16   1   18.53    0.62
  -3 -16  -1   17.35    0.62
  -3 -16  -1   19.12    0.64
  -3 -16  -1   20.17    0.65
  -3  16  -1   20.02    0.63
   3  16   1   19.19    0.60
   4 -16   1    0.87    0.32
  -4 -16  -1    1.27    0.26
  -4 -16  -1    0.77    0.20
  -4  16  -1    0.84    0.22
  -4 -17   1    0.72    0.22
  -4 -17   1    0.30    0.22
   3 -17  -1   16.37    0.56
  -3 -17   1   16.58    0.60
  -3 -17   1   17.64    0.58
  -3  17   1   15.92    0.56
  -2 -17   1   31.36    0.87
   2 -17  -1   30.14    0.84
  -2 -17   1   31.48    0.83
  -2 -17   1   29.44    0.85
   2 -17  -1   30.77    0.84
   2  17  -1   31.22    0.82
  -2  17   1   28.93    0.84
   1 -17  -1    2.70    0.20
  -1 -17   1    3.09    0.17
   1 -17  -1    2.19    0.19
  -1 -17   1    2.74    0.20
  -1 -17   1    3.14    0.22
  -1  17   1    3.12    0.21
   1  17  -1    3.04    0.19
   0 -17  -1    5.92    0.28
   0 -17   1    6.40    0.28
   0 -17  -1    5.83    0.18
   0 -17   1    5.85    0.26
   0 -17   1    5.81    0.18
   0  17   1    5.49    0.26
   0  17  -1    5.79    0.26
   1 -17   1   53.96    1.37
  -1 -17  -1   54.11    1.38
  -1 -17  -1   58.09    1.39
   1 -17   1   55.12    1.35
  -1 -17  -1   55.72    1.31
  -1  17  -1   53.57    1.36
   1  17   1   53.01    1.36
  -2 -17  -1   26.09    0.79
  -2 -17  -1   25.74    0.78
  -2 -17  -1   27.19    0.75
  -2  17  -1   27.29    0.77
   2  17   1   27.83    0.76
  -2  17  -1   26.35    0.77
  -3 -17  -1    0.32    0.16
  -3 -17  -1    0.26    0.15
  -3 -17  -1    0.17    0.15
   3 -17   1    0.07    0.14
  -3  17  -1    0.02    0.13
   3  17   1   -0.01    0.13
  -3 -18   1    1.07    0.19
  -3 -18   1    0.94    0.20
   3 -18  -1    0.92    0.17
  -3  18   1    0.85    0.17
  -2 -18   1    1.02    0.17
   2 -18  -1    0.80    0.15
   2 -18  -1    0.90    0.15
  -2 -18   1    0.83    0.14
  -2 -18   1    0.68    0.15
   2  18  -1    0.92    0.14
  -2  18   1    0.68    0.14
  -1 -18   1    5.29    0.27
  -1 -18   1    4.84    0.21
   1 -18  -1    4.93    0.26
  -1 -18   1    4.62    0.27
   1 -18  -1    4.96    0.27
  -1  18   1    4.94    0.26
   1  18  -1    5.14    0.25
   0 -18   1    2.14    0.19
   0 -18  -1    2.44    0.11
   0 -18  -1    2.55    0.20
   0 -18   1    2.42    0.11
   0 -18   1    2.48    0.18
   0  18  -1    2.68    0.19
   0  18   1    2.28    0.19
  -1 -18  -1    0.68    0.10
   1 -18   1    0.68    0.15
  -1 -18  -1    0.72    0.14
   1 -18   1    0.75    0.13
  -1 -18  -1    0.89    0.15
   1  18   1    0.65    0.13
  -1  18  -1    0.73    0.13
  -2 -18  -1    0.58    0.13
  -2 -18  -1    0.76    0.16
  -2 -18  -1    0.58    0.16
  -2  18  -1    0.68    0.14
   2  18   1    0.57    0.14
  -2  18  -1    0.63    0.15
  -3 -18  -1    0.33    0.17
  -3 -18  -1    0.27    0.16
  -3 -18  -1    0.40    0.16
   3  18   1    0.15    0.13
  -3  18  -1    0.17    0.14
  -3 -19   1    9.01    0.42
   3 -19  -1    8.84    0.40
  -3 -19   1    8.42    0.44
  -3  19   1    8.92    0.41
  -2 -19   1   22.98    0.73
  -2 -19   1   23.54    0.67
   2 -19  -1   22.11    0.69
   2 -19  -1   23.84    0.70
  -2 -19   1   23.14    0.71
   2  19  -1   22.57    0.67
  -2  19   1   23.11    0.69
  -1 -19   1    9.93    0.40
   1 -19  -1    9.96    0.40
  -1 -19   1   10.49    0.40
   1 -19  -1    9.36    0.39
  -1 -19   1   10.16    0.33
   1  19  -1   11.41    0.39
  -1  19   1   10.55    0.40
   0 -19  -1    8.33    0.38
   0 -19  -1    8.07    0.34
   0 -19   1    7.49    0.33
   0 -19   1    7.92    0.34
   0  19   1    7.29    0.32
   0  19  -1    7.68    0.32
  -1 -19  -1   20.61    0.56
   1 -19   1   19.41    0.62
   1 -19   1   20.94    0.62
  -1 -19  -1   21.20    0.65
  -1 -19  -1   21.86    0.66
   1  19   1   20.63    0.63
  -1  19  -1   19.73    0.62
  -2 -19  -1   11.88    0.48
  -2 -19  -1   11.48    0.42
  -2 -19  -1   12.16    0.47
  -2  19  -1   11.40    0.45
   2  19   1   11.77    0.44
  -2  19  -1   11.48    0.44
  -3 -19  -1    0.04    0.14
  -3 -19  -1    0.11    0.15
  -3 -19  -1    0.26    0.17
  -3  19  -1   -0.07    0.13
   3  19   1    0.20    0.14
  -3 -20   1   -0.06    0.15
  -3 -20   1    0.29    0.18
   3 -20  -1    0.20    0.15
  -3  20   1    0.24    0.14
   2 -20  -1    0.69    0.16
   2 -20  -1    0.76    0.16
  -2 -20   1    0.76    0.18
  -2 -20   1    0.58    0.14
  -2 -20   1    0.76    0.17
   2  20  -1    0.70    0.14
  -2  20   1    0.57    0.14
   1 -20  -1    3.92    0.26
   1 -20  -1    3.85    0.26
  -1 -20   1    4.52    0.28
  -1 -20   1    4.31    0.27
  -1 -20   1    4.13    0.20
  -1  20   1    3.67    0.26
   1  20  -1    3.70    0.24
   0 -20  -1    2.72    0.23
   0 -20  -1    3.03    0.23
   0 -20   1    2.70    0.21
   0 -20   1    2.88    0.21
   0  20  -1    3.02    0.22
   0  20   1    2.77    0.22
  -1 -20  -1    0.11    0.08
  -1 -20  -1    0.18    0.13
   1 -20   1    0.36    0.13
   1 -20   1    0.15    0.10
  -1 -20  -1    0.22    0.14
  -1  20  -1   -0.04    0.11
   1  20   1    0.19    0.12
  -2 -20  -1    0.16    0.12
  -2 -20  -1    0.16    0.14
  -2 -20  -1    0.18    0.15
   2  20   1    0.13    0.12
  -2  20  -1    0.08    0.13
  -3 -20  -1    6.12    0.37
  -3 -20  -1    7.17    0.41
  -3 -20  -1    6.28    0.39
  -3  20  -1    7.02    0.39
   3  20   1    6.58    0.36
  -3  20  -1    7.03    0.38
   3 -21  -1    4.06    0.33
  -3 -21   1    5.51    0.34
  -3 -21   1    5.21    0.38
  -3  21   1    4.85    0.33
   2 -21  -1   21.12    0.67
   2 -21  -1   20.47    0.67
  -2 -21   1   20.81    0.68
  -2 -21   1   19.97    0.68
  -2 -21   1   20.99    0.62
   2  21  -1   19.91    0.63
  -2  21   1   21.71    0.67
  -1 -21   1    4.94    0.30
  -1 -21   1    5.05    0.22
  -1 -21   1    5.14    0.30
   1 -21  -1    5.06    0.30
   1 -21  -1    5.04    0.30
   1  21  -1    4.56    0.26
  -1  21   1    4.96    0.29
   0 -21  -1   17.17    0.57
   0 -21   1   17.15    0.57
   0 -21   1   16.78    0.55
   0 -21  -1   16.74    0.56
   0  21   1   16.24    0.55
   0  21  -1   16.37    0.55
  -1 -21  -1   32.16    0.83
  -1 -21  -1   31.63    0.93
   1 -21   1   31.32    0.89
   1 -21   1   31.35    0.91
  -1 -21  -1   33.46    0.93
   1  21   1   32.34    0.90
  -1  21  -1   33.04    0.91
   2 -21   1    3.84    0.29
  -2 -21  -1    4.45    0.26
  -2 -21  -1    4.36    0.32
  -2 -21  -1    3.97    0.31
  -2  21  -1    3.77    0.29
   2  21   1    3.56    0.27
  -3 -21  -1    3.99    0.35
  -3 -21  -1    4.55    0.32
  -3 -21  -1    4.14    0.36
  -3  21  -1    4.82    0.33
   3  21   1    4.48    0.31
   3 -22  -1    6.20    0.37
  -3 -22   1    6.05    0.36
  -3 -22   1    6.54    0.42
  -3  22   1    6.11    0.38
  -2 -22   1    1.05    0.20
  -2 -22   1    0.54    0.18
  -2 -22   1    0.80    0.15
   2 -22  -1    0.70    0.17
   2 -22  -1    0.89    0.18
   2  22  -1    0.72    0.15
  -2  22   1    0.91    0.18
   1 -22  -1   20.74    0.68
  -1 -22   1   20.81    0.65
  -1 -22   1   21.43    0.69
   1 -22  -1   21.34    0.68
  -1 -22   1   21.30    0.68
  -1  22   1   21.79    0.68
   1  22  -1   22.04    0.66
   0 -22  -1   18.38    0.61
   0 -22   1   17.81    0.60
   0 -22  -1   17.61    0.59
   0 -22   1   17.38    0.58
   0  22   1   16.99    0.58
   0  22  -1   17.94    0.58
   1 -22   1    0.33    0.15
  -1 -22  -1    0.57    0.17
  -1 -22  -1    0.53    0.16
   1 -22   1    0.40    0.14
   1  22   1    0.35    0.14
  -1  22  -1    0.11    0.12
  -2 -22  -1   13.64    0.55
   2 -22   1   14.17    0.54
  -2 -22  -1   13.31    0.55
  -2 -22  -1   13.84    0.48
   2  22   1   13.78    0.51
  -2  22  -1   13.25    0.52
  -3 -22  -1    9.45    0.48
  -3 -22  -1    9.36    0.45
   3 -22   1    8.97    0.47
  -3 -22  -1    9.98    0.49
   3  22   1    8.96    0.43
  -3  22  -1    9.09    0.46
  -3 -23   1    0.93    0.21
   3 -23  -1    1.32    0.22
  -3 -23   1    0.64    0.22
  -3  23   1    1.00    0.21
  -2 -23   1    0.73    0.20
   2 -23  -1    0.41    0.17
  -2 -23   1    0.60    0.15
  -2 -23   1    0.69    0.18
   2 -23  -1    0.53    0.18
  -2  23   1    0.53    0.16
   2  23  -1    0.54    0.15
  -1 -23   1    0.04    0.14
   1 -23  -1    0.07    0.14
   1 -23  -1    0.02    0.13
  -1 -23   1    0.19    0.14
  -1  23   1    0.33    0.14
   1  23  -1    0.23    0.12
   0 -23   1    0.48    0.14
   0 -23  -1    0.48    0.16
   0 -23   1    0.31    0.15
   0 -23  -1    0.14    0.14
   0  23   1    0.26    0.13
   0  23  -1    0.34    0.14
  -1 -23  -1    0.64    0.17
   1 -23   1    1.20    0.18
  -1 -23  -1    0.57    0.18
   1 -23   1    0.76    0.17
  -1  23  -1    0.60    0.16
   1  23   1    0.76    0.16
  -2 -23  -1    1.66    0.24
   2 -23   1    1.32    0.21
  -2 -23  -1    1.54    0.24
  -2 -23  -1    1.84    0.22
  -2  23  -1    1.07    0.20
   2  23   1    1.54    0.21
   3 -23   1    0.14    0.18
  -3 -23  -1   -0.13    0.17
  -3 -23  -1    0.18    0.19
  -3 -23  -1    0.15    0.21
  -3  23  -1    0.10    0.16
   3  23   1   -0.01    0.15
   3 -24  -1    6.63    0.42
  -3 -24   1    8.01    0.48
  -3 -24   1    7.25    0.41
  -3  24   1    6.97    0.41
   2 -24  -1    1.41    0.22
  -2 -24   1    0.98    0.21
  -2 -24   1    1.48    0.19
   2 -24  -1    1.59    0.23
  -2 -24   1    1.18    0.22
   2  24  -1    1.10    0.18
  -2  24   1    1.04    0.19
  -1 -24   1   26.78    0.82
   1 -24  -1   26.13    0.81
  -1 -24   1   25.24    0.81
   1 -24  -1   25.51    0.81
  -1  24   1   25.70    0.81
   1  24  -1   25.98    0.78
   0 -24  -1   28.77    0.89
   0 -24   1   30.21    0.88
   0 -24  -1   29.02    0.89
   0 -24   1   30.74    0.89
   0  24   1   28.30    0.87
   0  24  -1   29.88    0.87
  -1 -24  -1    0.30    0.16
  -1 -24  -1    0.30    0.16
   1 -24   1    0.17    0.13
   1 -24   1    0.68    0.17
  -1  24  -1    0.24    0.15
   1  24   1    0.08    0.14
  -2 -24  -1    7.83    0.37
   2 -24   1    7.50    0.41
  -2 -24  -1    7.49    0.42
  -2 -24  -1    8.55    0.44
   2  24   1    7.79    0.40
  -2  24  -1    7.93    0.41
   3 -24   1   10.78    0.52
  -3 -24  -1   10.66    0.54
  -3 -24  -1   11.35    0.66
  -3 -24  -1   10.05    0.49
  -3  24  -1   10.80    0.52
  -2 -25   1    6.20    0.42
  -2 -25   1    6.58    0.39
   2 -25  -1    6.37    0.39
  -2  25   1    7.60    0.40
   2  25  -1    7.53    0.37
  -1 -25   1    0.62    0.18
   1 -25  -1    0.41    0.17
   1 -25  -1    0.52    0.18
  -1 -25   1    0.37    0.17
  -1  25   1    0.42    0.17
   1  25  -1    0.55    0.16
   0 -25   1    1.75    0.26
   0 -25  -1    1.04    0.20
   0 -25  -1    1.35    0.22
   0 -25   1    1.39    0.20
   0  25   1    1.47    0.21
   0  25  -1    1.63    0.24
   1 -25   1   12.23    0.48
  -1 -25  -1   11.89    0.51
  -1 -25  -1   11.82    0.51
   1 -25   1   10.35    0.47
   1  25   1   10.74    0.47
  -1  25  -1   10.71    0.47
  -2 -25  -1    3.82    0.35
   2 -25   1    3.50    0.33
  -2 -25  -1    3.55    0.36
   2  25   1    3.95    0.31
  -2  25  -1    4.44    0.34
  -2 -26   1    0.16    0.17
  -2 -26   1    0.05    0.19
   2 -26  -1    0.03    0.18
   2  26  -1    0.24    0.15
  -2  26   1    0.40    0.17
   1 -26  -1    7.84    0.42
  -1 -26   1    6.84    0.42
  -1 -26   1    7.62    0.41
   1 -26  -1    7.89    0.43
  -1  26   1    7.82    0.42
   1  26  -1    7.53    0.39
   0 -26  -1    5.83    0.38
   0 -26   1    6.14    0.36
   0 -26   1    5.30    0.37
   0 -26  -1    6.08    0.38
   0  26  -1    5.35    0.35
   0  26   1    6.35    0.37
  -1 -26  -1    0.14    0.17
  -1 -26  -1    0.23    0.18
   1 -26   1    0.70    0.17
   1 -26   1    0.02    0.17
   1  26   1    0.09    0.15
  -1  26  -1    0.16    0.15
  -2 -26  -1    5.58    0.41
  -2 -26  -1    5.96    0.41
   2 -26   1    6.16    0.40
  -2  26  -1    5.87    0.39
   2  26   1    5.96    0.37
  -2 -27   1    9.21    0.49
  -2 -27   1    9.19    0.50
   2 -27  -1    9.55    0.48
  -2  27   1    9.33    0.48
   2  27  -1    9.25    0.44
   1 -27  -1    3.86    0.34
  -1 -27   1    3.95    0.35
  -1 -27   1    3.44    0.32
   1 -27  -1    4.65    0.35
   1  27  -1    3.16    0.31
  -1  27   1    3.92    0.33
   0 -27  -1    3.24    0.31
   0 -27   1    3.61    0.33
   0 -27   1    3.34    0.30
   0 -27  -1    3.70    0.32
   0  27  -1    4.09    0.33
   0  27   1    4.30    0.33
  -1 -27  -1   11.02    0.51
   1 -27   1   13.00    0.54
   1 -27   1   10.29    0.47
  -1 -27  -1   11.19    0.52
   1  27   1   10.01    0.48
  -1  27  -1   10.55    0.49
  -2 -27  -1    7.08    0.45
   2 -27   1    7.92    0.45
  -2 -27  -1    6.54    0.44
   2  27   1    6.81    0.41
  -2  27  -1    8.04    0.46
  -2 -28   1    0.64    0.22
  -2 -28   1    0.35    0.21
   2 -28  -1    0.59    0.22
  -2  28   1    0.26    0.19
   2  28  -1    0.26    0.17
   1 -28  -1    0.56    0.20
  -1 -28   1    0.48    0.20
  -1 -28   1    0.50    0.20
   1 -28  -1    0.67    0.21
   1  28  -1    0.33    0.18
  -1  28   1    0.78    0.21
   0 -28  -1    0.33    0.19
   0 -28   1    0.52    0.21
   0 -28   1    0.54    0.19
   0 -28  -1    0.34    0.20
   0  28  -1    0.43    0.18
   0  28   1    0.37    0.19
   1 -28   1    1.12    0.22
  -1 -28  -1    1.09    0.24
  -1 -28  -1    1.32    0.25
   1 -28   1    0.99    0.22
  -1  28  -1    1.17    0.22
   1  28   1    1.14    0.22
   2 -28   1    0.41    0.21
  -2 -28  -1    0.34    0.22
  -2 -28  -1    0.64    0.23
  -2  28  -1    0.42    0.21
   2  28   1    0.21    0.18
   1 -29  -1    2.94    0.33
  -1 -29   1    2.62    0.34
   1 -29  -1    2.61    0.34
  -1 -29   1    2.84    0.34
   1  29  -1    2.74    0.32
  -1  29   1    3.66    0.35
   0 -29   1    6.80    0.43
   0 -29   1    6.41    0.39
   0 -29  -1    6.97    0.43
   0 -29  -1    5.88    0.41
   0  29  -1    6.73    0.42
   0  29   1    6.73    0.42
  -1 -29  -1   14.51    0.64
  -1 -29  -1   16.48    0.65
   1 -29   1   14.79    0.64
   1  29   1   14.85    0.61
  -1  29  -1   15.34    0.61
   1 -30  -1   10.07    0.53
   1 -30  -1   10.39    0.52
  -1 -30   1   11.10    0.53
  -1 -30   1    9.88    0.53
  -1  30   1    9.54    0.51
   1  30  -1    9.90    0.50
   0 -30  -1    9.45    0.52
   0 -30   1    9.51    0.49
   0 -30   1    8.84    0.49
   0 -30  -1   10.04    0.51
   0  30   1    8.68    0.48
   0  30  -1    8.77    0.48
   1 -30   1    0.28    0.21
  -1 -30  -1    0.26    0.22
  -1 -30  -1    0.67    0.23
   1  30   1    0.11    0.17
  -1  30  -1    0.18    0.19
   0 -31   1    0.02    0.18
   0 -31  -1    0.40    0.23
   0 -31  -1    0.13    0.19
   0 -31   1    0.46    0.22
   0  31   1    0.20    0.20
   0  31  -1    0.07    0.18
  -4   0   2   26.43    0.80
   4   0  -2   27.23    0.78
  -3   0   2    4.75    0.25
   3   0  -2    4.94    0.24
   2   0  -2  132.87    2.94
   2   0  -2  129.96    3.01
  -2   0   2  134.76    2.94
  -2   0   2  131.55    3.01
   1   0  -2 1000.00   22.77
  -1   0   2  945.66   22.90
   0   0  -2    7.08    0.19
   0   0  -2    6.99    0.21
   0   0   2    7.19    0.19
   0   0  -2    7.10    0.19
  -1   0  -2   23.64    0.60
  -1   0  -2   22.88    0.60
  -1   0  -2   24.78    0.56
   1   0   2   24.68    0.60
  -2   0  -2   59.81    1.43
   2   0   2   60.92    1.43
  -2   0  -2   60.69    1.38
  -2   0  -2   59.32    1.44
  -3   0  -2    9.21    0.35
   3   0   2   10.22    0.36
  -3   0  -2    9.80    0.37
  -4   0  -2    0.21    0.15
  -4   0  -2    0.18    0.16
  -4  -1   2    0.40    0.16
   4  -1  -2    0.16    0.13
  -4   1   2    0.10    0.14
   4   1  -2    0.06    0.12
  -3  -1   2    2.51    0.20
   3  -1  -2    2.54    0.18
   3   1  -2    2.42    0.19
  -3   1   2    2.75    0.20
   2  -1  -2   53.51    1.21
   2  -1  -2   52.35    1.28
  -2  -1   2   53.87    1.21
  -2  -1   2   53.15    1.28
   2   1  -2   53.12    1.28
  -2   1   2   54.40    1.21
   2   1  -2   54.27    1.21
  -2   1   2   53.47    1.27
  -1  -1   2   98.73    2.25
   1  -1  -2  100.61    2.26
   1  -1  -2   97.99    2.21
  -1   1   2  100.63    2.21
   0  -1  -2  101.59    2.25
   0  -1   2  100.71    2.24
   0  -1  -2   97.42    2.25
   0   1  -2  101.02    2.26
   0   1   2   98.64    2.25
   0   1  -2  100.27    2.25
   0   1  -2  103.21    2.24
  -1  -1  -2    7.83    0.24
  -1  -1  -2    8.12    0.25
   1  -1   2    7.48    0.24
  -1  -1  -2    7.88    0.21
  -1   1  -2    7.82    0.19
  -1   1  -2    7.78    0.24
  -1   1  -2    7.80    0.24
  -2  -1  -2    0.66    0.10
  -2  -1  -2    0.77    0.08
  -2  -1  -2    0.50    0.09
   2  -1   2    0.62    0.10
  -2   1  -2    0.54    0.10
  -2   1  -2    0.68    0.07
  -2   1  -2    0.84    0.11
   2   1   2    0.73    0.11
  -3  -1  -2    0.17    0.10
  -3  -1  -2    0.09    0.11
   3  -1   2    0.12    0.09
   3   1   2    0.24    0.10
  -3   1  -2    0.20    0.10
  -3   1  -2    0.20    0.11
   4  -1   2    2.42    0.33
  -4  -1  -2    1.95    0.25
  -4   1  -2    2.46    0.23
  -4   1  -2    2.53    0.27
  -4  -2   2    9.48    0.43
   4  -2  -2    9.36    0.39
   4   2  -2    8.75    0.39
  -4   2   2    8.56    0.40
  -3  -2   2    0.73    0.13
   3  -2  -2    1.00    0.15
   3   2  -2    0.86    0.13
  -3   2   2    0.92    0.13
   2  -2  -2   23.95    0.64
  -2  -2   2   24.13    0.64
   2  -2  -2   24.30    0.58
  -2  -2   2   24.94    0.57
   2   2  -2   24.63    0.57
  -2   2   2   24.49    0.58
  -2   2   2   24.75    0.63
   2   2  -2   24.41    0.64
   1  -2  -2   37.85    0.90
  -1  -2   2   37.73    0.89
   1  -2  -2   37.25    0.85
   1   2  -2   38.09    0.89
  -1   2   2   37.20    0.85
   0  -2   2  138.11    3.07
   0  -2  -2  139.27    3.07
   0  -2  -2  131.84    3.06
   0  -2  -2  136.04    3.07
   0   2   2  140.46    3.06
   0   2  -2  138.81    3.06
   0   2  -2  135.57    3.06
   0   2  -2  136.74    3.07
  -1  -2  -2   12.97    0.33
  -1  -2  -2   12.92    0.36
  -1  -2  -2   12.79    0.36
   1  -2   2   12.38    0.35
  -1   2  -2   13.22    0.36
  -1   2  -2   13.25    0.35
   1   2   2   13.06    0.36
  -1   2  -2   12.17    0.29
  -1   2  -2   13.00    0.29
  -2  -2  -2   31.13    0.80
   2  -2   2   30.86    0.79
  -2  -2  -2   31.02    0.76
  -2  -2  -2   31.57    0.80
  -2   2  -2   31.13    0.79
   2   2   2   31.11    0.79
  -2   2  -2   31.31    0.80
  -3  -2  -2   17.71    0.54
  -3  -2  -2   17.95    0.50
   3  -2   2   17.87    0.54
  -3  -2  -2   17.62    0.56
  -3   2  -2   18.23    0.56
   3   2   2   18.33    0.54
  -3   2  -2   17.07    0.53
  -4  -2  -2    0.96    0.21
   4  -2   2    1.02    0.19
  -4   2  -2    1.01    0.16
  -4   2  -2    0.94    0.20
  -4  -3   2    1.12    0.20
   4  -3  -2    1.35    0.20
  -4   3   2    0.99    0.18
   4   3  -2    1.01    0.18
   3  -3  -2   21.24    0.60
  -3  -3   2   20.83    0.63
  -3   3   2   20.98    0.61
   3   3  -2   21.89    0.62
  -3   3   2   21.15    0.59
   2  -3  -2   13.57    0.34
  -2  -3   2   13.63    0.33
   2  -3  -2   12.98    0.39
  -2  -3   2   13.70    0.40
  -2   3   2   13.91    0.35
   2   3  -2   13.42    0.40
   2   3  -2   13.31    0.33
  -2   3   2   13.34    0.38
   1  -3  -2    2.06    0.11
  -1  -3   2    2.14    0.07
  -1  -3   2    2.14    0.11
   1  -3  -2    1.94    0.08
   1   3  -2    2.01    0.06
  -1   3   2    2.01    0.08
   0  -3  -2   55.64    1.30
   0  -3   2   54.98    1.29
   0  -3  -2   59.26    1.30
   0  -3  -2   56.70    1.31
   0   3  -2   56.50    1.29
   0   3   2   57.95    1.30
   0   3  -2   56.23    1.30
   0   3  -2   57.29    1.28
  -1  -3  -2   27.67    0.69
   1  -3   2   28.32    0.68
  -1  -3  -2   27.23    0.66
  -1  -3  -2   27.63    0.69
  -1   3  -2   28.10    0.68
   1   3   2   27.23    0.69
  -1   3  -2   27.87    0.69
  -2  -3  -2    1.11    0.10
   2  -3   2    1.28    0.13
  -2  -3  -2    1.01    0.12
  -2  -3  -2    1.03    0.12
  -2   3  -2    0.79    0.12
  -2   3  -2    0.86    0.11
   2   3   2    1.09    0.12
  -3  -3  -2   14.87    0.48
  -3  -3  -2   15.62    0.51
  -3  -3  -2   15.73    0.45
   3  -3   2   15.44    0.49
  -3   3  -2   15.53    0.49
  -3   3  -2   15.48    0.49
   3   3   2   15.18    0.49
  -4  -3  -2   12.66    0.52
   4  -3   2   12.29    0.46
  -4   3  -2   12.43    0.46
  -4   3  -2   12.77    0.50
  -4  -4   2    1.27    0.21
  -4   4   2    1.33    0.19
   4   4  -2    1.35    0.19
   3  -4  -2    0.22    0.10
   3  -4  -2    0.21    0.10
  -3  -4   2    0.13    0.11
  -3   4   2    0.13    0.07
   3   4  -2    0.20    0.11
  -3   4   2    0.27    0.10
   2  -4  -2    2.62    0.15
  -2  -4   2    2.49    0.09
  -2  -4   2    2.75    0.16
  -2   4   2    2.61    0.14
  -2   4   2    2.45    0.11
   2   4  -2    2.43    0.09
   2   4  -2    2.54    0.15
  -1  -4   2    6.61    0.21
   1  -4  -2    6.32    0.19
  -1  -4   2    6.63    0.17
   1  -4  -2    6.31    0.21
   1   4  -2    6.55    0.17
  -1   4   2    6.13    0.18
   0  -4  -2    1.65    0.10
   0  -4  -2    1.79    0.09
   0  -4  -2    1.67    0.10
   0   4   2    1.76    0.09
   0   4  -2    1.76    0.09
   0   4  -2    1.84    0.08
   0   4  -2    1.68    0.07
   0   4  -2    1.93    0.08
  -1  -4  -2    6.32    0.20
  -1  -4  -2    5.95    0.22
  -1  -4  -2    6.01    0.21
   1  -4   2    6.03    0.21
  -1   4  -2    6.28    0.21
  -1   4  -2    6.28    0.20
   1   4   2    6.02    0.21
   2  -4   2    1.29    0.13
  -2  -4  -2    1.12    0.12
  -2  -4  -2    0.84    0.10
  -2  -4  -2    0.96    0.12
   2   4   2    1.07    0.13
  -2   4  -2    1.04    0.12
  -2   4  -2    0.96    0.12
  -3  -4  -2    0.46    0.11
   3  -4   2    0.61    0.12
  -3  -4  -2    0.40    0.10
  -3  -4  -2    0.34    0.12
  -3   4  -2    0.45    0.11
   3   4   2    0.32    0.11
  -3   4  -2    0.56    0.13
   4  -4   2    0.24    0.13
  -4  -4  -2    0.27    0.17
  -4   4  -2    0.26    0.16
  -4   4  -2    0.43    0.14
  -4  -5   2    1.61    0.23
  -4   5   2    1.64    0.23
   4   5  -2    1.83    0.24
   3  -5  -2   41.66    1.01
   3  -5  -2   42.10    1.06
  -3  -5   2   42.57    1.10
  -3   5   2   41.93    1.01
   3   5  -2   41.05    1.08
  -3   5   2   42.01    1.06
   2  -5  -2   29.66    0.76
  -2  -5   2   29.51    0.76
  -2  -5   2   29.37    0.69
   2   5  -2   28.26    0.76
   2   5  -2   29.96    0.69
  -2   5   2   29.65    0.71
  -2   5   2   31.04    0.74
  -2   5   2   28.81    0.71
   1  -5  -2    0.02    0.05
  -1  -5   2    0.07    0.05
  -1  -5   2    0.05    0.03
   1  -5  -2    0.06    0.04
  -1   5   2    0.17    0.04
   1   5  -2    0.09    0.03
   1   5  -2    0.13    0.05
   0  -5  -2   73.14    1.68
   0  -5  -2   72.34    1.66
   0   5   2   72.48    1.67
   0   5  -2   74.62    1.66
   0   5  -2   71.20    1.66
   0   5  -2   74.97    1.65
   0   5  -2   73.24    1.66
  -1  -5  -2   60.47    1.46
  -1  -5  -2   62.78    1.44
  -1  -5  -2   62.27    1.44
   1  -5   2   61.44    1.44
  -1   5  -2   61.65    1.45
   1   5   2   61.81    1.45
  -1   5  -2   62.98    1.44
  -2  -5  -2    0.40    0.09
  -2  -5  -2    0.25    0.08
  -2  -5  -2    0.22    0.07
   2  -5   2    0.26    0.08
   2  -5   2    0.31    0.04
  -2   5  -2    0.36    0.08
   2   5   2    0.31    0.09
  -2   5  -2    0.38    0.08
  -3  -5  -2    5.79    0.28
   3  -5   2    5.80    0.28
  -3  -5  -2    5.70    0.30
  -3  -5  -2    5.94    0.25
  -3   5  -2    5.45    0.27
  -3   5  -2    6.01    0.28
   3   5   2    5.65    0.27
  -4  -5  -2   25.32    0.81
   4  -5   2   25.20    0.75
  -4   5  -2   24.82    0.74
  -4   5  -2   24.71    0.77
  -4  -6   2    4.97    0.34
   4   6  -2    5.38    0.33
  -4   6   2    5.35    0.30
   3  -6  -2    1.61    0.16
   3  -6  -2    1.56    0.13
  -3  -6   2    1.51    0.19
  -3   6   2    1.59    0.16
  -3   6   2    1.76    0.13
   3   6  -2    1.70    0.19
  -2  -6   2    2.90    0.17
  -2  -6   2    2.98    0.12
   2  -6  -2    2.73    0.16
  -2   6   2    3.09    0.13
   2   6  -2    2.75    0.17
  -2   6   2    3.18    0.14
   2   6  -2    3.00    0.11
  -1  -6   2    2.59    0.13
   1  -6  -2    2.66    0.11
   1  -6  -2    2.79    0.14
  -1  -6   2    2.69    0.11
  -1   6   2    2.64    0.11
   1   6  -2    2.77    0.10
   1   6  -2    2.40    0.13
   0  -6  -2   15.23    0.42
   0  -6  -2   15.64    0.40
   0  -6  -2   16.09    0.43
   0   6  -2   15.86    0.40
   0   6  -2   15.76    0.41
   0   6   2   15.58    0.42
   0   6  -2   16.93    0.41
   0   6  -2   15.94    0.41
   1  -6   2   18.50    0.42
  -1  -6  -2   18.50    0.48
  -1  -6  -2   17.49    0.48
  -1  -6  -2   18.40    0.50
  -1   6  -2   18.04    0.47
   1   6   2   18.44    0.49
  -1   6  -2   18.54    0.49
  -2  -6  -2    7.14    0.28
   2  -6   2    7.14    0.27
  -2  -6  -2    7.14    0.26
   2  -6   2    7.17    0.18
  -2  -6  -2    7.11    0.28
   2   6   2    7.12    0.27
  -2   6  -2    7.64    0.26
  -2   6  -2    7.68    0.28
   3  -6   2   15.81    0.50
  -3  -6  -2   15.79    0.53
  -3  -6  -2   15.12    0.48
  -3  -6  -2   15.62    0.50
  -3   6  -2   15.65    0.49
   3   6   2   16.67    0.51
  -3   6  -2   15.13    0.50
   4  -6   2    0.73    0.16
  -4  -6  -2    0.78    0.20
  -4   6  -2    0.75    0.18
  -4   6  -2    1.00    0.17
  -4  -7   2    2.27    0.28
   4   7  -2    2.49    0.26
  -4   7   2    2.17    0.23
  -3  -7   2   12.04    0.45
   3  -7  -2   12.35    0.37
   3  -7  -2   12.62    0.41
  -3   7   2   12.59    0.38
  -3   7   2   13.00    0.41
   3   7  -2   12.61    0.44
  -2  -7   2   27.52    0.72
   2  -7  -2   26.20    0.70
  -2  -7   2   27.35    0.66
  -2   7   2   26.77    0.67
  -2   7   2   27.15    0.67
   2   7  -2   27.75    0.65
   2   7  -2   26.90    0.72
  -1  -7   2   11.49    0.30
   1  -7  -2   10.90    0.34
   1  -7  -2   11.28    0.32
  -1  -7   2   11.18    0.32
   1   7  -2   11.53    0.30
  -1   7   2   11.42    0.31
   1   7  -2   11.15    0.33
   0  -7  -2   78.88    1.84
   0  -7  -2   80.23    1.87
   0   7   2   80.28    1.86
   0   7  -2   82.45    1.84
   0   7  -2   81.44    1.85
   0   7  -2   82.21    1.85
   0   7  -2   82.19    1.84
  -1  -7  -2   42.60    1.01
  -1  -7  -2   42.08    1.02
  -1  -7  -2   41.79    1.04
   1  -7   2   42.95    0.96
   1   7   2   42.05    1.03
  -1   7  -2   42.20    1.02
  -1   7  -2   41.91    1.02
  -1   7  -2   42.43    1.00
   2  -7   2    5.09    0.23
  -2  -7  -2    5.12    0.23
  -2  -7  -2    5.43    0.22
   2  -7   2    5.10    0.13
  -2  -7  -2    4.98    0.24
  -2   7  -2    5.52    0.23
   2   7   2    5.12    0.24
  -2   7  -2    4.79    0.21
   3  -7   2    3.79    0.23
  -3  -7  -2    3.21    0.22
  -3  -7  -2    3.09    0.24
  -3  -7  -2    3.51    0.22
  -3   7  -2    3.45    0.23
   3   7   2    3.59    0.23
  -3   7  -2    3.41    0.22
  -4  -7  -2    0.99    0.22
   4  -7   2    1.06    0.18
  -4   7  -2    0.74    0.17
  -4   7  -2    0.84    0.19
  -4  -8   2   13.95    0.56
   4   8  -2   15.10    0.55
   3  -8  -2    2.97    0.20
  -3  -8   2    3.27    0.24
   3  -8  -2    3.09    0.17
  -3   8   2    3.04    0.18
  -3   8   2    3.47    0.20
   3   8  -2    3.33    0.23
   2  -8  -2   22.90    0.63
  -2  -8   2   23.05    0.63
  -2  -8   2   23.32    0.58
   2  -8  -2   22.54    0.59
  -2   8   2   22.55    0.59
   2   8  -2   24.19    0.57
  -2   8   2   24.02    0.59
   2   8  -2   22.72    0.64
  -1  -8   2  107.85    2.45
   1  -8  -2  108.17    2.48
  -1  -8   2  109.05    2.44
  -1   8   2  107.93    2.45
   1   8  -2  105.22    2.47
   1   8  -2  109.03    2.43
   0  -8  -2    5.12    0.20
   0  -8  -2    5.26    0.17
   0   8  -2    5.30    0.17
   0   8  -2    4.84    0.18
   0   8  -2    5.08    0.17
   0   8   2    5.07    0.19
  -1  -8  -2   15.89    0.44
  -1  -8  -2   16.08    0.47
   1  -8   2   16.23    0.40
  -1  -8  -2   15.73    0.45
  -1   8  -2   16.37    0.45
  -1   8  -2   16.71    0.43
   1   8   2   15.95    0.46
  -1   8  -2   16.02    0.45
   2  -8   2   48.30    1.09
  -2  -8  -2   47.35    1.20
  -2  -8  -2   48.96    1.19
  -2  -8  -2   49.04    1.21
   2  -8   2   47.89    1.20
  -2   8  -2   49.52    1.20
   2   8   2   48.97    1.21
  -2   8  -2   49.15    1.17
  -3  -8  -2   14.01    0.48
   3  -8   2   14.67    0.49
  -3  -8  -2   14.14    0.47
  -3  -8  -2   15.00    0.51
  -3   8  -2   14.11    0.47
   3   8   2   14.81    0.49
  -3   8  -2   14.39    0.48
  -4  -8  -2    1.08    0.22
   4  -8   2    1.43    0.20
  -4   8  -2    1.41    0.20
  -4   8  -2    1.31    0.20
  -4  -9   2    0.27    0.17
   4   9  -2    0.10    0.15
   3  -9  -2    0.30    0.09
  -3  -9   2    0.36    0.14
   3  -9  -2    0.14    0.10
  -3   9   2    0.05    0.09
   3   9  -2    0.09    0.12
   2  -9  -2    1.52    0.14
  -2  -9   2    1.77    0.12
  -2  -9   2    1.68    0.15
   2  -9  -2    1.67    0.12
  -2   9   2    1.65    0.11
   2   9  -2    1.55    0.15
  -2   9   2    1.63    0.12
   2   9  -2    1.66    0.10
   1  -9  -2    0.80    0.11
  -1  -9   2    1.00    0.09
  -1  -9   2    0.87    0.10
   1  -9  -2    1.17    0.10
   1   9  -2    0.91    0.11
   1   9  -2    1.12    0.09
  -1   9   2    1.06    0.10
   0  -9  -2    2.53    0.14
   0  -9  -2    1.86    0.12
   0  -9   2    2.38    0.12
   0  -9  -2    2.63    0.11
   0   9  -2    2.47    0.11
   0   9   2    2.19    0.13
   0   9  -2    2.46    0.12
   0   9  -2    2.39    0.12
  -1  -9  -2    0.24    0.08
   1  -9   2    0.22    0.05
  -1  -9  -2    0.24    0.07
  -1  -9  -2    0.24    0.07
  -1   9  -2    0.21    0.05
   1   9   2    0.26    0.08
  -1   9  -2    0.24    0.07
  -1   9  -2    0.16    0.07
   2  -9   2    0.05    0.03
  -2  -9  -2    0.09    0.09
  -2  -9  -2    0.20    0.09
   2  -9   2    0.21    0.09
  -2  -9  -2   -0.02    0.07
  -2   9  -2    0.02    0.08
  -2   9  -2    0.10    0.07
   2   9   2    0.11    0.09
  -3  -9  -2    2.88    0.24
  -3  -9  -2    2.62    0.21
  -3  -9  -2    2.68    0.22
   3  -9   2    2.77    0.21
  -3   9  -2    2.90    0.22
  -3   9  -2    2.68    0.20
   3   9   2    2.30    0.21
   4  -9   2    2.66    0.26
  -4  -9  -2    2.31    0.29
  -4   9  -2    2.63    0.26
  -4 -10   2    9.85    0.47
   4  10  -2    9.94    0.45
   3 -10  -2    7.15    0.30
  -3 -10   2    7.20    0.34
   3  10  -2    6.81    0.33
  -3  10   2    7.30    0.27
  -2 -10   2    4.29    0.22
   2 -10  -2    4.09    0.19
   2 -10  -2    3.94    0.21
  -2 -10   2    3.89    0.18
   2  10  -2    3.77    0.22
  -2  10   2    4.08    0.19
   2  10  -2    4.03    0.16
  -2  10   2    4.12    0.16
  -1 -10   2   58.87    1.38
   1 -10  -2   59.57    1.40
  -1 -10   2   59.83    1.39
   1 -10  -2   57.74    1.42
   1  10  -2   58.32    1.37
  -1  10   2   59.62    1.39
  -1  10   2   59.53    1.33
   0 -10  -2    0.33    0.05
   0 -10  -2    0.24    0.07
   0 -10  -2    0.31    0.07
   0 -10   2    0.31    0.06
   0  10   2    0.34    0.07
   0  10  -2    0.23    0.06
   0  10  -2    0.30    0.05
   0  10  -2    0.49    0.07
   1 -10   2    5.75    0.19
  -1 -10  -2    5.71    0.24
  -1 -10  -2    6.03    0.22
  -1 -10  -2    5.70    0.23
  -1  10  -2    5.66    0.23
  -1  10  -2    5.91    0.23
  -1  10  -2    5.88    0.19
   1  10   2    5.54    0.23
  -2 -10  -2   31.30    0.85
  -2 -10  -2   32.82    0.84
  -2 -10  -2   32.09    0.84
   2 -10   2   31.46    0.84
   2 -10   2   29.97    0.78
  -2  10  -2   32.56    0.85
  -2  10  -2   32.10    0.80
   2  10   2   33.22    0.85
   3 -10   2   27.69    0.78
  -3 -10  -2   27.29    0.77
  -3 -10  -2   27.13    0.78
  -3 -10  -2   25.73    0.79
   3  10   2   27.65    0.78
  -3  10  -2   27.61    0.78
  -3  10  -2   27.50    0.75
  -4 -10  -2    2.06    0.28
   4 -10   2    2.17    0.24
  -4  10  -2    2.20    0.26
  -4 -11   2    0.48    0.19
   4  11  -2    0.76    0.19
   3 -11  -2    0.52    0.13
  -3 -11   2    0.25    0.13
   3 -11  -2    0.35    0.10
   3  11  -2    0.31    0.13
  -2 -11   2   20.02    0.56
   2 -11  -2   18.70    0.53
   2 -11  -2   19.42    0.56
  -2 -11   2   19.14    0.53
  -2  11   2   19.21    0.54
   2  11  -2   19.77    0.51
   2  11  -2   19.35    0.57
  -2  11   2   20.10    0.49
  -1 -11   2    1.41    0.12
   1 -11  -2    1.06    0.13
  -1 -11   2    1.41    0.11
   1 -11  -2    1.39    0.12
  -1  11   2    1.45    0.12
  -1  11   2    1.31    0.06
   1  11  -2    1.42    0.11
   1  11  -2    1.28    0.13
   0 -11  -2    1.06    0.11
   0 -11   2    1.18    0.10
   0 -11  -2    1.28    0.13
   0 -11  -2    1.37    0.09
   0  11  -2    1.36    0.09
   0  11  -2    1.27    0.11
   0  11   2    1.25    0.12
   0  11  -2    1.36    0.11
  -1 -11  -2    0.86    0.12
  -1 -11  -2    0.91    0.13
   1 -11   2    0.85    0.08
  -1 -11  -2    0.97    0.10
  -1  11  -2    0.89    0.08
   1  11   2    0.93    0.12
  -1  11  -2    0.90    0.12
  -1  11  -2    0.86    0.10
  -2 -11  -2   10.20    0.36
   2 -11   2    9.45    0.35
  -2 -11  -2    9.77    0.37
  -2 -11  -2    9.89    0.36
  -2  11  -2   10.24    0.36
  -2  11  -2    9.59    0.31
   2  11   2    9.56    0.35
  -3 -11  -2    2.53    0.22
  -3 -11  -2    2.70    0.25
  -3 -11  -2    2.76    0.23
   3 -11   2    2.43    0.23
   3  11   2    2.51    0.23
  -3  11  -2    2.80    0.24
  -3  11  -2    2.78    0.20
  -4 -11  -2    0.41    0.21
   4 -11   2    0.32    0.15
  -4  11  -2    0.47    0.16
  -4 -12   2   11.54    0.51
   4  12  -2   11.30    0.49
   3 -12  -2    0.25    0.11
   3 -12  -2    0.27    0.11
  -3 -12   2    0.08    0.13
  -3  12   2    0.31    0.11
   3  12  -2    0.15    0.13
  -2 -12   2   16.67    0.47
   2 -12  -2   16.02    0.50
  -2 -12   2   16.58    0.49
   2 -12  -2   15.64    0.47
   2  12  -2   15.84    0.51
   2  12  -2   16.17    0.45
  -2  12   2   16.30    0.48
  -2  12   2   16.79    0.41
   1 -12  -2   11.35    0.36
   1 -12  -2   11.48    0.38
  -1 -12   2   11.74    0.34
  -1 -12   2   11.25    0.35
   1  12  -2   11.30    0.34
   1  12  -2   10.94    0.36
  -1  12   2   11.28    0.27
  -1  12   2   11.14    0.36
   0 -12  -2   41.58    1.06
   0 -12  -2   44.16    1.08
   0 -12   2   43.06    1.04
   0 -12  -2   42.21    1.00
   0  12   2   42.12    1.06
   0  12  -2   42.60    1.05
   0  12  -2   44.25    1.00
   0  12  -2   43.21    1.04
  -1 -12  -2   14.66    0.46
   1 -12   2   15.42    0.41
  -1 -12  -2   15.27    0.43
  -1 -12  -2   13.93    0.46
   1  12   2   15.71    0.46
  -1  12  -2   14.75    0.39
  -1  12  -2   14.52    0.45
  -2 -12  -2   29.98    0.82
  -2 -12  -2   30.45    0.84
  -2 -12  -2   29.60    0.81
  -2  12  -2   30.35    0.76
  -2  12  -2   29.82    0.81
   2  12   2   30.01    0.82
   3 -12   2    8.28    0.36
  -3 -12  -2    8.45    0.37
  -3 -12  -2    7.88    0.37
  -3 -12  -2    8.60    0.39
   3  12   2    8.19    0.36
  -3  12  -2    8.83    0.37
  -4 -12  -2    1.42    0.25
   4 -12   2    1.04    0.20
  -4  12  -2    1.39    0.22
  -4 -13   2    4.77    0.36
   3 -13  -2   30.23    0.83
   3 -13  -2   29.33    0.81
  -3 -13   2   30.33    0.86
  -3  13   2   29.47    0.81
   3  13  -2   30.64    0.87
   2 -13  -2   10.24    0.38
  -2 -13   2   11.16    0.38
  -2 -13   2   11.06    0.36
   2 -13  -2   10.15    0.36
  -2  13   2   10.85    0.36
   2  13  -2   10.43    0.33
   2  13  -2   10.52    0.39
   1 -13  -2    0.54    0.11
  -1 -13   2    0.61    0.09
  -1 -13   2    0.73    0.10
   1 -13  -2    0.77    0.11
  -1  13   2    0.92    0.12
  -1  13   2    0.72    0.03
   1  13  -2    0.93    0.11
  -1  13   2    0.71    0.03
   0 -13   2   29.81    0.71
   0 -13  -2   28.41    0.78
   0 -13   2   29.39    0.75
   0 -13  -2   28.85    0.71
   0 -13  -2   30.11    0.79
   0  13  -2   30.50    0.76
   0  13   2   29.33    0.77
  -1 -13  -2   48.05    1.20
  -1 -13  -2   47.35    1.15
   1 -13   2   48.93    1.14
  -1 -13  -2   46.52    1.20
  -1  13  -2   47.46    1.18
  -1  13  -2   47.72    1.11
   1  13   2   48.25    1.19
  -2 -13  -2    0.69    0.13
  -2 -13  -2    0.52    0.13
  -2 -13  -2    0.65    0.13
  -2  13  -2    0.55    0.12
  -2  13  -2    0.51    0.11
   2  13   2    0.51    0.12
  -2  13  -2    0.62    0.10
   3 -13   2    4.53    0.28
  -3 -13  -2    4.12    0.27
  -3 -13  -2    3.98    0.29
  -3 -13  -2    4.02    0.29
  -3  13  -2    3.62    0.26
   3  13   2    3.81    0.27
  -4 -13  -2   10.62    0.52
   4 -13   2   11.32    0.48
  -4  13  -2   10.97    0.47
  -4 -14   2    0.74    0.21
  -3 -14   2    0.28    0.15
   3 -14  -2    0.26    0.13
   3 -14  -2    0.27    0.11
  -3  14   2    0.49    0.12
   3  14  -2    0.29    0.14
  -2 -14   2    0.30    0.11
  -2 -14   2    0.10    0.09
   2 -14  -2    0.33    0.12
   2 -14  -2    0.37    0.11
   2  14  -2    0.23    0.08
   2  14  -2    0.13    0.11
  -2  14   2    0.13    0.09
  -1 -14   2    0.17    0.08
   1 -14  -2    0.17    0.09
  -1 -14   2    0.23    0.07
  -1 -14   2    0.32    0.10
   1 -14  -2    0.12    0.08
  -1  14   2    0.15    0.08
   1  14  -2    0.34    0.08
   0 -14  -2    0.03    0.05
   0 -14  -2   -0.01    0.08
   0 -14  -2    0.02    0.08
   0 -14   2   -0.02    0.06
   0 -14   2    0.04    0.07
   0 -14   2   -0.01    0.05
   0  14   2    0.03    0.07
   0  14  -2    0.06    0.07
   1 -14   2    3.79    0.18
  -1 -14  -2    3.75    0.18
  -1 -14  -2    3.57    0.22
  -1 -14  -2    4.00    0.23
  -1  14  -2    3.95    0.14
   1  14   2    3.87    0.22
  -2 -14  -2    0.34    0.14
  -2 -14  -2    0.46    0.12
  -2 -14  -2    0.32    0.12
   2  14   2    0.49    0.12
  -2  14  -2    0.38    0.11
  -2  14  -2    0.44    0.12
  -3 -14  -2    0.27    0.16
   3 -14   2    0.14    0.13
  -3 -14  -2    0.23    0.13
  -3 -14  -2    0.38    0.16
   3  14   2    0.09    0.13
  -3  14  -2    0.24    0.13
  -4 -14  -2   -0.19    0.18
   4 -14   2    0.11    0.17
  -4  14  -2    0.22    0.17
  -4 -15   2    1.35    0.24
  -4 -15   2    1.18    0.24
  -3 -15   2   16.45    0.58
   3 -15  -2   16.96    0.55
   3 -15  -2   16.85    0.53
  -3  15   2   15.96    0.53
   2 -15  -2    9.79    0.38
  -2 -15   2    9.00    0.35
   2 -15  -2    9.68    0.35
  -2 -15   2    9.69    0.36
   2  15  -2    9.44    0.32
  -2  15   2    9.68    0.36
  -1 -15   2    1.09    0.11
  -1 -15   2    1.03    0.15
   1 -15  -2    0.98    0.14
   1 -15  -2    1.34    0.16
  -1 -15   2    1.09    0.14
   1  15  -2    1.10    0.13
  -1  15   2    1.20    0.15
   0 -15   2   43.75    1.07
   0 -15  -2   41.42    1.09
   0 -15   2   43.32    1.01
   0 -15  -2   42.51    1.00
   0 -15   2   43.12    1.08
   0  15   2   43.43    1.08
   0  15  -2   42.34    1.07
  -1 -15  -2   36.05    0.90
   1 -15   2   36.12    0.90
  -1 -15  -2   34.82    0.95
  -1 -15  -2   34.93    0.96
  -1  15  -2   34.72    0.93
  -1  15  -2   37.13    0.84
   1  15   2   37.00    0.95
  -2 -15  -2    7.51    0.36
  -2 -15  -2    8.15    0.33
  -2 -15  -2    7.33    0.34
  -2  15  -2    8.00    0.34
  -2  15  -2    8.08    0.34
   2  15   2    7.78    0.34
   3 -15   2    3.28    0.28
  -3 -15  -2    3.55    0.27
  -3 -15  -2    2.83    0.28
  -3 -15  -2    3.25    0.28
  -3  15  -2    3.47    0.27
   3  15   2    3.38    0.27
   4 -15   2   10.03    0.48
  -4 -15  -2   10.68    0.52
  -4  15  -2    9.75    0.46
  -4 -16   2    3.44    0.35
  -4 -16   2    2.84    0.34
  -3 -16   2    0.94    0.19
   3 -16  -2    0.89    0.17
   3 -16  -2    1.13    0.17
  -3 -16   2    1.01    0.19
  -3  16   2    0.82    0.15
  -2 -16   2   16.84    0.52
   2 -16  -2   16.26    0.51
  -2 -16   2   16.04    0.51
  -2 -16   2   16.10    0.54
   2 -16  -2   16.34    0.54
   2  16  -2   16.33    0.48
  -2  16   2   16.27    0.52
  -1 -16   2   28.15    0.72
   1 -16  -2   26.91    0.77
   1 -16  -2   29.20    0.79
  -1 -16   2   28.51    0.78
  -1 -16   2   28.14    0.76
  -1  16   2   28.06    0.77
   1  16  -2   27.13    0.74
   0 -16   2   17.67    0.52
   0 -16   2   18.18    0.53
   0 -16  -2   18.55    0.55
   0 -16  -2   17.73    0.45
   0 -16   2   17.36    0.45
   0  16  -2   17.80    0.52
   0  16   2   16.31    0.53
  -1 -16  -2    4.43    0.20
   1 -16   2    4.34    0.21
  -1 -16  -2    4.69    0.25
  -1 -16  -2    4.32    0.25
   1  16   2    4.62    0.25
  -1  16  -2    4.39    0.23
  -2 -16  -2    3.46    0.23
  -2 -16  -2    4.51    0.28
  -2 -16  -2    3.15    0.24
  -2  16  -2    3.37    0.24
  -2  16  -2    3.60    0.25
   2  16   2    3.81    0.25
  -3 -16  -2    8.79    0.43
  -3 -16  -2    9.46    0.45
   3 -16   2    9.24    0.41
  -3 -16  -2   10.19    0.43
   3  16   2    9.49    0.41
  -3  16  -2    9.47    0.42
  -4 -17   2    4.60    0.38
  -4 -17   2    4.47    0.39
   3 -17  -2    3.40    0.25
  -3 -17   2    3.12    0.29
  -3 -17   2    3.46    0.28
  -3  17   2    3.39    0.25
  -2 -17   2   10.52    0.40
   2 -17  -2   11.21    0.41
   2 -17  -2   11.49    0.43
  -2 -17   2   10.50    0.43
  -2 -17   2   11.36    0.40
   2  17  -2    9.85    0.36
  -2  17   2   10.58    0.40
  -1 -17   2    0.42    0.12
   1 -17  -2    0.43    0.12
   1 -17  -2    0.38    0.12
  -1 -17   2    0.30    0.11
  -1 -17   2    0.39    0.09
  -1  17   2    0.16    0.10
   1  17  -2    0.51    0.11
   0 -17   2    2.24    0.18
   0 -17  -2    2.43    0.20
   0 -17   2    2.40    0.17
   0 -17  -2    2.28    0.12
   0 -17   2    2.37    0.12
   0  17   2    2.45    0.20
   0  17  -2    2.37    0.18
  -1 -17  -2   12.48    0.45
  -1 -17  -2   13.04    0.47
   1 -17   2   12.74    0.41
  -1 -17  -2   12.84    0.39
   1  17   2   13.19    0.45
  -1  17  -2   12.84    0.44
  -2 -17  -2    0.46    0.13
  -2 -17  -2    0.49    0.15
  -2 -17  -2    0.61    0.16
   2  17   2    0.44    0.14
  -2  17  -2    0.36    0.14
  -2  17  -2    0.55    0.14
  -3 -17  -2    7.44    0.38
  -3 -17  -2    7.30    0.41
   3 -17   2    7.09    0.38
  -3 -17  -2    7.95    0.40
  -3  17  -2    7.14    0.38
   3  17   2    7.20    0.37
   3 -18  -2   -0.01    0.13
  -3 -18   2    0.00    0.15
  -3 -18   2   -0.01    0.15
  -3  18   2    0.23    0.13
   2 -18  -2   10.21    0.42
  -2 -18   2   10.50    0.39
  -2 -18   2   10.42    0.43
   2 -18  -2   10.30    0.40
  -2 -18   2   10.50    0.40
   2  18  -2   10.36    0.37
  -2  18   2   10.46    0.41
   1 -18  -2   68.96    1.68
   1 -18  -2   67.66    1.66
  -1 -18   2   67.41    1.66
  -1 -18   2   65.68    1.59
  -1 -18   2   66.07    1.65
  -1  18   2   68.34    1.66
   1  18  -2   68.03    1.63
   0 -18   2    7.12    0.31
   0 -18   2    7.12    0.22
   0 -18  -2    6.79    0.22
   0 -18  -2    7.02    0.32
   0 -18   2    7.14    0.30
   0  18  -2    7.10    0.30
   0  18   2    6.83    0.31
  -1 -18  -2    0.40    0.14
   1 -18   2    0.33    0.10
  -1 -18  -2    0.32    0.12
  -1 -18  -2    0.36    0.10
  -1  18  -2    0.35    0.11
   1  18   2    0.11    0.11
  -1  18  -2    0.36    0.12
  -2 -18  -2   46.26    1.19
  -2 -18  -2   45.62    1.24
  -2 -18  -2   46.33    1.25
  -2  18  -2   46.84    1.23
   2  18   2   46.04    1.22
  -2  18  -2   45.88    1.22
  -3 -18  -2   11.27    0.49
   3 -18   2   11.77    0.49
  -3 -18  -2   11.45    0.49
  -3 -18  -2   10.88    0.49
  -3  18  -2   10.81    0.48
   3  18   2   12.37    0.48
   3 -19  -2    0.44    0.16
  -3 -19   2    0.71    0.20
  -3 -19   2    0.72    0.19
  -3  19   2    0.78    0.17
  -2 -19   2    1.65    0.23
   2 -19  -2    1.77    0.23
  -2 -19   2    1.94    0.21
  -2 -19   2    1.87    0.22
   2 -19  -2    2.05    0.22
   2  19  -2    1.99    0.18
  -2  19   2    1.90    0.22
  -1 -19   2    1.65    0.15
   1 -19  -2    1.54    0.20
  -1 -19   2    0.85    0.16
   1 -19  -2    1.06    0.17
  -1 -19   2    1.37    0.18
  -1  19   2    1.53    0.19
   1  19  -2    1.73    0.18
   0 -19   2    0.16    0.11
   0 -19   2    0.04    0.06
   0 -19  -2   -0.06    0.11
   0 -19  -2    0.05    0.11
   0 -19   2   -0.12    0.09
   0  19   2    0.06    0.11
   0  19  -2   -0.07    0.09
  -1 -19  -2    0.99    0.12
  -1 -19  -2    1.05    0.17
  -1 -19  -2    1.19    0.19
   1 -19   2    1.12    0.15
  -1  19  -2    0.96    0.15
   1  19   2    0.82    0.15
  -2 -19  -2    0.38    0.13
  -2 -19  -2    0.24    0.14
  -2 -19  -2    0.18    0.16
  -2  19  -2    0.08    0.13
   2  19   2    0.27    0.14
  -2  19  -2    0.06    0.13
  -3 -19  -2    0.54    0.18
   3 -19   2    0.71    0.18
  -3 -19  -2    0.64    0.20
  -3 -19  -2    0.43    0.18
   3  19   2    0.68    0.18
  -3  19  -2    0.54    0.18
  -3 -20   2    2.62    0.28
  -3 -20   2    2.24    0.31
   3 -20  -2    2.77    0.28
  -3  20   2    2.74    0.27
   2 -20  -2   13.52    0.51
  -2 -20   2   13.94    0.50
  -2 -20   2   13.23    0.52
   2 -20  -2   12.81    0.49
  -2 -20   2   13.30    0.46
   2  20  -2   12.71    0.45
  -2  20   2   13.80    0.50
  -1 -20   2   19.81    0.63
   1 -20  -2   20.70    0.65
   1 -20  -2   20.84    0.64
  -1 -20   2   21.15    0.64
  -1 -20   2   19.41    0.56
   1  20  -2   20.16    0.61
  -1  20   2   20.50    0.64
   0 -20  -2    7.78    0.35
   0 -20  -2    7.27    0.36
   0 -20   2    7.90    0.33
   0 -20   2    6.78    0.33
   0  20  -2    7.34    0.33
   0  20   2    6.83    0.33
  -1 -20  -2   10.92    0.36
  -1 -20  -2   11.05    0.44
  -1 -20  -2   10.17    0.44
   1 -20   2   10.61    0.39
   1 -20   2   11.23    0.43
   1  20   2   11.41    0.43
  -2 -20  -2   11.49    0.44
  -2 -20  -2   11.55    0.51
  -2 -20  -2   12.00    0.49
  -2  20  -2   12.14    0.48
  -2  20  -2   13.39    0.49
   2  20   2   12.21    0.48
   3 -20   2   13.02    0.53
  -3 -20  -2   12.33    0.51
  -3 -20  -2   12.19    0.53
  -3 -20  -2   12.15    0.54
  -3  20  -2   12.72    0.53
   3  20   2   11.52    0.49
   3 -21  -2   13.59    0.52
  -3 -21   2   13.15    0.57
  -3 -21   2   13.68    0.53
  -3  21   2   12.81    0.52
   2 -21  -2   13.62    0.51
  -2 -21   2   14.67    0.49
  -2 -21   2   13.75    0.51
   2 -21  -2   14.30    0.54
  -2 -21   2   13.94    0.54
   2  21  -2   14.07    0.48
  -2  21   2   14.26    0.52
  -1 -21   2    1.03    0.13
   1 -21  -2    0.92    0.18
  -1 -21   2    1.51    0.21
  -1 -21   2    1.28    0.18
   1 -21  -2    1.18    0.18
   1  21  -2    1.02    0.15
  -1  21   2    1.04    0.17
   0 -21  -2   28.65    0.85
   0 -21   2   29.88    0.82
   0 -21  -2   28.49    0.85
   0 -21   2   28.40    0.83
   0  21  -2   27.78    0.82
   0  21   2   30.94    0.85
  -1 -21  -2    3.00    0.27
   1 -21   2    3.25    0.26
  -1 -21  -2    3.17    0.19
  -1 -21  -2    2.96    0.26
   1 -21   2    3.21    0.23
  -1  21  -2    3.11    0.24
   1  21   2    2.64    0.24
  -2 -21  -2    0.09    0.12
  -2 -21  -2    0.14    0.15
  -2 -21  -2   -0.20    0.15
   2  21   2    0.09    0.14
  -2  21  -2    0.07    0.14
  -2  21  -2    0.00    0.13
  -3 -21  -2    5.60    0.37
   3 -21   2    5.63    0.37
  -3 -21  -2    5.12    0.38
  -3 -21  -2    5.14    0.38
  -3  21  -2    5.19    0.36
   3  21   2    5.16    0.35
   3 -22  -2    1.56    0.23
  -3 -22   2    2.07    0.29
  -3 -22   2    2.06    0.25
  -3  22   2    1.63    0.23
  -2 -22   2    0.87    0.18
   2 -22  -2    0.77    0.18
  -2 -22   2    0.75    0.16
  -2 -22   2    0.52    0.19
   2 -22  -2    0.90    0.19
   2  22  -2    0.72    0.15
  -2  22   2    0.62    0.16
  -1 -22   2    2.84    0.25
   1 -22  -2    3.23    0.26
  -1 -22   2    3.16    0.26
  -1 -22   2    3.13    0.19
   1 -22  -2    2.72    0.26
   1  22  -2    2.92    0.23
  -1  22   2    2.96    0.26
   0 -22  -2    3.37    0.27
   0 -22   2    3.98    0.28
   0 -22  -2    4.07    0.30
   0 -22   2    3.66    0.26
   0  22   2    3.91    0.28
   0  22  -2    3.90    0.26
   1 -22   2    0.34    0.14
  -1 -22  -2    0.48    0.17
   1 -22   2    0.40    0.13
  -1 -22  -2    0.48    0.17
   1  22   2    0.13    0.14
  -1  22  -2    0.17    0.13
  -2 -22  -2    4.99    0.29
  -2 -22  -2    4.51    0.35
  -2 -22  -2    5.37    0.35
  -2  22  -2    4.64    0.33
   2  22   2    4.81    0.33
  -3 -22  -2    1.42    0.26
  -3 -22  -2    1.68    0.25
  -3 -22  -2    2.08    0.31
   3 -22   2    2.00    0.26
  -3  22  -2    1.69    0.25
   3  22   2    1.50    0.23
   3 -23  -2   10.39    0.48
  -3 -23   2    9.56    0.51
  -3 -23   2   10.06    0.47
  -3  23   2    9.42    0.47
  -2 -23   2    1.99    0.22
  -2 -23   2    1.63    0.23
   2 -23  -2    2.21    0.27
   2 -23  -2    1.91    0.26
  -2 -23   2    2.08    0.28
  -2  23   2    1.74    0.24
   2  23  -2    1.75    0.22
   1 -23  -2    0.15    0.15
   1 -23  -2    0.30    0.16
  -1 -23   2    0.13    0.14
  -1 -23   2    0.15    0.14
   1  23  -2    0.44    0.14
  -1  23   2    0.15    0.13
   0 -23  -2   11.14    0.47
   0 -23   2   11.44    0.46
   0 -23   2   10.32    0.43
   0 -23  -2   11.61    0.48
   0  23   2   10.70    0.45
   0  23  -2   10.60    0.43
   1 -23   2   41.84    1.13
   1 -23   2   38.91    1.08
  -1 -23  -2   38.97    1.14
  -1 -23  -2   42.58    1.15
   1  23   2   39.08    1.11
  -1  23  -2   40.01    1.11
  -2 -23  -2    2.93    0.30
  -2 -23  -2    2.98    0.25
   2 -23   2    2.75    0.30
  -2 -23  -2    2.29    0.30
  -2  23  -2    2.89    0.31
   2  23   2    2.70    0.29
  -3 -23  -2    1.95    0.26
  -3 -23  -2    2.00    0.30
  -3 -23  -2    1.29    0.26
   3  23   2    1.94    0.26
   3 -24  -2    0.04    0.17
  -3 -24   2    0.11    0.20
  -3 -24   2    0.20    0.18
  -3  24   2    0.22    0.17
  -2 -24   2    2.95    0.32
   2 -24  -2    3.49    0.31
  -2 -24   2    3.10    0.30
   2 -24  -2    2.68    0.30
  -2 -24   2    3.17    0.25
  -2  24   2    3.41    0.31
   2  24  -2    3.13    0.26
   1 -24  -2    3.52    0.30
  -1 -24   2    3.50    0.31
  -1 -24   2    3.66    0.29
   1 -24  -2    3.43    0.30
  -1  24   2    3.20    0.29
   1  24  -2    3.77    0.27
   0 -24  -2    8.83    0.43
   0 -24   2    8.04    0.40
   0 -24   2    8.97    0.40
   0 -24  -2    9.30    0.43
   0  24   2    8.94    0.41
   0  24  -2    8.80    0.40
   1 -24   2    0.25    0.14
   1 -24   2    0.10    0.16
  -1 -24  -2    0.09    0.16
  -1 -24  -2    0.38    0.17
   1  24   2    0.19    0.15
  -1  24  -2    0.28    0.15
   2 -24   2    0.59    0.19
  -2 -24  -2    0.93    0.23
  -2 -24  -2    0.36    0.18
  -2  24  -2    0.47    0.19
   2  24   2    0.64    0.19
   2 -25  -2    9.90    0.49
   2 -25  -2   10.75    0.49
  -2 -25   2   10.46    0.49
  -2 -25   2   10.81    0.50
   2  25  -2    9.85    0.44
  -2  25   2   11.42    0.49
   1 -25  -2    0.21    0.16
  -1 -25   2    0.24    0.17
   1 -25  -2    0.19    0.15
  -1 -25   2    0.13    0.16
   1  25  -2    0.24    0.15
  -1  25   2    0.15    0.15
   0 -25  -2    9.69    0.46
   0 -25  -2   10.14    0.47
   0 -25   2   10.27    0.43
   0 -25   2   11.17    0.47
   0  25   2   10.43    0.46
   0  25  -2   10.24    0.44
  -1 -25  -2   13.23    0.55
   1 -25   2   12.34    0.51
   1 -25   2   12.91    0.53
  -1 -25  -2   12.30    0.54
   1  25   2   12.34    0.52
  -1  25  -2   12.70    0.51
  -2 -25  -2    2.55    0.33
   2 -25   2    1.53    0.26
  -2 -25  -2    2.29    0.30
  -2  25  -2    2.40    0.30
   2  25   2    1.83    0.25
  -2 -26   2    5.78    0.41
  -2 -26   2    5.23    0.38
   2 -26  -2    5.45    0.38
   2 -26  -2    4.90    0.38
   2  26  -2    5.29    0.33
  -2  26   2    5.12    0.37
   1 -26  -2   17.86    0.66
  -1 -26   2   18.05    0.65
  -1 -26   2   17.65    0.64
   1 -26  -2   17.67    0.66
  -1  26   2   18.10    0.65
   1  26  -2   16.79    0.61
   0 -26  -2    4.44    0.34
   0 -26   2    4.35    0.33
   0 -26   2    4.31    0.31
   0 -26  -2    3.93    0.32
   0  26   2    4.25    0.32
   0  26  -2    4.51    0.31
  -1 -26  -2    1.91    0.27
   1 -26   2    1.54    0.24
  -1 -26  -2    1.39    0.23
  -1  26  -2    1.53    0.23
   1  26   2    1.51    0.23
   2 -26   2   13.12    0.57
  -2 -26  -2   11.99    0.57
  -2 -26  -2   13.66    0.60
  -2  26  -2   12.77    0.56
   2  26   2   12.49    0.54
  -2 -27   2    1.06    0.23
   2 -27  -2    0.55    0.22
   2 -27  -2    0.82    0.23
  -2 -27   2    0.83    0.24
   2  27  -2    0.86    0.19
  -2  27   2    0.54    0.20
   1 -27  -2    0.15    0.17
   1 -27  -2    0.12    0.18
  -1 -27   2    0.40    0.19
  -1 -27   2    0.08    0.16
   1  27  -2    0.29    0.16
  -1  27   2   -0.10    0.16
   0 -27  -2    1.73    0.25
   0 -27   2    1.74    0.23
   0 -27  -2    1.88    0.26
   0 -27   2    1.59    0.25
   0  27   2    1.66    0.23
   0  27  -2    1.82    0.26
  -1 -27  -2    1.11    0.23
  -1 -27  -2    1.32    0.26
   1 -27   2    1.50    0.25
   1  27   2    1.65    0.24
  -1  27  -2    1.33    0.23
  -2 -27  -2   -0.01    0.20
   2 -27   2    0.02    0.17
  -2 -27  -2    0.16    0.19
   2  27   2   -0.16    0.16
  -2  27  -2    0.09    0.18
  -2 -28   2    5.21    0.40
  -2 -28   2    5.64    0.43
   2 -28  -2    5.34    0.40
  -2  28   2    6.22    0.41
   2  28  -2    4.93    0.34
  -1 -28   2   19.88    0.72
   1 -28  -2   20.20    0.72
   1 -28  -2   20.26    0.74
  -1 -28   2   19.81    0.71
  -1  28   2   19.27    0.72
   1  28  -2   19.55    0.68
   0 -28   2    2.66    0.29
   0 -28  -2    3.11    0.34
   0 -28   2    3.02    0.31
   0 -28  -2    2.61    0.31
   0  28   2    3.16    0.32
   0  28  -2    2.74    0.30
   1 -28   2    2.25    0.30
  -1 -28  -2    1.42    0.27
  -1 -28  -2    1.16    0.24
   1  28   2    1.65    0.26
  -1  28  -2    1.65    0.25
  -1 -29   2    0.23    0.20
   1 -29  -2    0.36    0.21
   1 -29  -2    0.23    0.20
  -1 -29   2    0.41    0.19
   1  29  -2    0.09    0.17
  -1  29   2    0.06    0.17
   0 -29   2    0.60    0.22
   0 -29  -2    0.57    0.23
   0 -29   2    0.97    0.22
   0 -29  -2    0.39    0.20
   0  29  -2    0.76    0.21
   0  29   2    0.41    0.19
  -1 -29  -2    0.19    0.22
  -1 -29  -2   -0.22    0.18
   1 -29   2    0.11    0.20
   1  29   2   -0.09    0.17
  -1  29  -2    0.07    0.18
  -1 -30   2    8.92    0.50
   1 -30  -2    8.07    0.49
  -1 -30   2    9.17    0.49
   1 -30  -2    9.45    0.52
  -1  30   2    8.92    0.50
   1  30  -2    8.36    0.46
   0 -30   2   12.01    0.57
   0 -30   2   11.05    0.51
   0 -30  -2   11.59    0.56
   0 -30  -2   12.52    0.59
   0  30  -2   11.67    0.53
   0  30   2   12.53    0.56
  -1 -30  -2    0.57    0.24
   1 -30   2    0.16    0.21
  -1 -30  -2    0.33    0.24
   1  30   2    0.60    0.21
  -1  30  -2    0.64    0.21
   0 -31  -2    8.17    0.50
   0 -31   2    8.53    0.47
   0 -31  -2    7.77    0.49
   0 -31   2    8.09    0.49
   0  31   2    7.51    0.47
   0  31  -2    8.19    0.47
  -4   0   3   -0.02    0.14
   4   0  -3    0.15    0.14
  -3   0   3    0.09    0.10
   3   0  -3    0.05    0.10
   2   0  -3   -0.06    0.07
  -2   0   3    0.00    0.07
  -1   0   3    0.04    0.02
   1   0  -3   -0.04    0.05
   1   0  -3    0.03    0.02
   1   0  -3   -0.04    0.05
   0   0  -3   -0.07    0.05
   0   0  -3    0.03    0.04
   0   0  -3    0.00    0.04
   0   0   3   -0.07    0.03
  -1   0  -3   -0.01    0.05
  -1   0  -3    0.08    0.04
   1   0   3    0.00    0.05
  -2   0  -3    0.02    0.04
  -2   0  -3    0.08    0.08
   2   0   3   -0.05    0.06
  -2   0  -3    0.04    0.08
   3   0   3    0.09    0.10
  -3   0  -3   -0.07    0.10
  -3   0  -3    0.03    0.11
   4   0   3    0.01    0.14
  -4   0  -3   -0.16    0.15
  -4   0  -3    0.10    0.13
  -4  -1   3   14.46    0.54
   4  -1  -3   14.34    0.52
   4   1  -3   14.69    0.53
  -4   1   3   14.26    0.53
  -3  -1   3   20.96    0.63
   3  -1  -3   21.26    0.62
   3   1  -3   21.30    0.62
  -3   1   3   21.57    0.62
   2  -1  -3    5.54    0.14
  -2  -1   3    5.37    0.23
   2  -1  -3    5.51    0.14
  -2   1   3    5.23    0.22
   2   1  -3    6.01    0.24
  -1  -1   3    5.54    0.15
   1  -1  -3    5.65    0.21
   1  -1  -3    6.14    0.20
   1  -1  -3    5.92    0.16
   1   1  -3    6.03    0.15
   1   1  -3    6.05    0.21
  -1   1   3    5.54    0.15
   0  -1  -3  101.32    2.37
   0  -1  -3  103.47    2.36
   0  -1   3  103.86    2.36
   0   1  -3  102.04    2.38
   0   1  -3  104.12    2.36
   0   1  -3  107.56    2.36
   0   1   3  111.42    2.37
  -1  -1  -3  121.98    2.73
  -1  -1  -3  115.39    2.76
   1  -1   3  116.53    2.71
  -1  -1  -3  125.21    2.68
  -1   1  -3  122.14    2.66
  -1   1  -3  122.45    2.73
   1   1   3  112.09    2.71
  -2  -1  -3    0.77    0.11
   2  -1   3    0.67    0.11
  -2  -1  -3    0.66    0.08
  -2  -1  -3    0.79    0.12
   2   1   3    0.74    0.11
  -2   1  -3    0.76    0.07
  -2   1  -3    0.91    0.12
  -2   1  -3    0.63    0.11
  -3  -1  -3   19.36    0.59
  -3  -1  -3   20.07    0.61
   3  -1   3   19.30    0.59
  -3   1  -3   18.53    0.58
   3   1   3   18.93    0.59
  -3   1  -3   19.38    0.60
  -4  -1  -3    6.08    0.37
   4  -1   3    5.37    0.33
  -4  -1  -3    5.72    0.33
  -4   1  -3    6.65    0.37
  -4   1  -3    6.11    0.33
   4   1   3    6.60    0.35
  -4  -2   3    0.86    0.19
   4  -2  -3    1.22    0.19
  -4   2   3    1.58    0.21
   4   2  -3    1.21    0.19
   3  -2  -3    0.76    0.13
  -3  -2   3    0.67    0.14
   3   2  -3    0.91    0.15
  -3   2   3    1.02    0.14
   2  -2  -3    0.39    0.05
   2  -2  -3    0.34    0.09
  -2  -2   3    0.50    0.10
   2  -2  -3    0.36    0.04
   2   2  -3    0.51    0.10
  -2   2   3    0.43    0.09
   1  -2  -3    4.64    0.17
   1  -2  -3    4.58    0.13
  -1  -2   3    4.20    0.11
   1  -2  -3    4.55    0.18
   1   2  -3    4.21    0.17
   1   2  -3    4.30    0.17
  -1   2   3    4.54    0.13
   1   2  -3    4.29    0.11
   0  -2   3    0.39    0.05
   0  -2  -3    0.41    0.06
   0  -2  -3    0.39    0.06
   0  -2  -3    0.48    0.07
   0   2   3    0.39    0.06
   0   2  -3    0.36    0.05
   0   2  -3    0.64    0.08
   0   2  -3    0.44    0.06
  -1  -2  -3    1.82    0.10
   1  -2   3    1.70    0.12
  -1  -2  -3    1.64    0.12
  -1  -2  -3    1.89    0.13
  -1   2  -3    1.96    0.07
   1   2   3    1.82    0.12
  -1   2  -3    1.73    0.12
  -2  -2  -3   43.75    1.10
   2  -2   3   43.82    1.09
  -2  -2  -3   44.34    1.10
  -2  -2  -3   43.52    1.03
  -2   2  -3   41.77    1.09
  -2   2  -3   43.63    1.09
  -2   2  -3   43.37    0.99
   2   2   3   44.85    1.09
   3  -2   3    0.52    0.13
  -3  -2  -3    0.54    0.15
  -3  -2  -3    0.44    0.12
   3   2   3    0.51    0.13
  -3   2  -3    0.32    0.12
  -3   2  -3    0.54    0.13
  -4  -2  -3    0.22    0.13
   4  -2   3    0.23    0.14
  -4  -2  -3    0.00    0.16
   4   2   3    0.27    0.15
  -4   2  -3    0.28    0.16
  -4   2  -3    0.12    0.13
  -4  -3   3    7.69    0.39
   4  -3  -3    7.08    0.35
  -4   3   3    7.26    0.37
   4   3  -3    7.77    0.38
   3  -3  -3   11.20    0.40
  -3  -3   3   11.28    0.41
   3   3  -3   11.86    0.41
  -3   3   3   11.36    0.39
  -2  -3   3    4.96    0.22
   2  -3  -3    5.11    0.23
   2  -3  -3    5.06    0.15
  -2   3   3    5.06    0.21
   2   3  -3    5.63    0.23
   1  -3  -3    1.13    0.10
  -1  -3   3    1.12    0.05
   1  -3  -3    1.14    0.07
   1  -3  -3    1.25    0.09
  -1   3   3    1.11    0.07
   1   3  -3    1.30    0.10
   1   3  -3    1.29    0.10
   1   3  -3    1.15    0.05
   0  -3  -3   29.94    0.75
   0  -3  -3   32.17    0.77
   0  -3  -3   29.95    0.75
   0  -3   3   31.39    0.74
   0   3  -3   30.54    0.76
   0   3  -3   31.74    0.74
   0   3  -3   32.06    0.73
   0   3   3   30.92    0.75
  -1  -3  -3    1.99    0.11
  -1  -3  -3    2.08    0.13
  -1  -3  -3    2.08    0.13
   1   3   3    1.93    0.13
  -1   3  -3    2.01    0.13
  -1   3  -3    2.13    0.06
   2  -3   3    4.90    0.23
  -2  -3  -3    5.11    0.24
  -2  -3  -3    4.96    0.23
  -2  -3  -3    5.09    0.19
  -2   3  -3    5.22    0.23
  -2   3  -3    5.01    0.23
  -2   3  -3    5.08    0.13
   2   3   3    4.92    0.23
  -3  -3  -3   11.11    0.41
   3  -3   3   11.06    0.41
  -3  -3  -3   10.91    0.42
  -3   3  -3   10.83    0.41
   3   3   3   11.45    0.41
  -3   3  -3   10.56    0.41
  -4  -3  -3   12.21    0.48
  -4  -3  -3   12.52    0.52
   4  -3   3   10.97    0.47
   4   3   3   12.86    0.49
  -4   3  -3   11.67    0.50
  -4   3  -3   13.03    0.48
  -4  -4   3    3.05    0.29
   4  -4  -3    2.90    0.25
   4   4  -3    3.21    0.28
  -4   4   3    2.72    0.25
   3  -4  -3    1.14    0.15
  -3  -4   3    1.08    0.16
   3   4  -3    0.85    0.14
  -3   4   3    0.92    0.14
  -2  -4   3   22.70    0.62
   2  -4  -3   23.10    0.55
   2  -4  -3   23.09    0.62
   2   4  -3   22.31    0.62
  -2   4   3   23.08    0.55
  -2   4   3   23.17    0.60
   1  -4  -3   19.07    0.52
   1  -4  -3   19.94    0.48
   1  -4  -3   20.04    0.50
   1   4  -3   19.01    0.51
  -1   4   3   19.40    0.48
   1   4  -3   19.54    0.51
   1   4  -3   19.69    0.46
   0  -4  -3    8.82    0.28
   0  -4   3    8.96    0.26
   0  -4  -3    9.47    0.28
   0  -4  -3    8.78    0.28
   0   4   3    9.14    0.27
   0   4  -3    9.41    0.28
   0   4  -3    9.29    0.25
   0   4  -3    9.10    0.26
  -1  -4  -3   89.47    2.14
  -1  -4  -3   94.78    2.13
   1  -4   3   92.54    2.12
  -1  -4  -3   91.38    2.11
  -1   4  -3   91.93    2.13
   1   4   3   94.06    2.13
  -2  -4  -3   35.66    0.95
  -2  -4  -3   37.82    0.91
   2  -4   3   36.51    0.94
  -2  -4  -3   38.80    0.96
  -2   4  -3   38.11    0.95
  -2   4  -3   37.39    0.95
   2   4   3   35.66    0.95
   3  -4   3   10.43    0.39
  -3  -4  -3    9.09    0.39
  -3  -4  -3   10.22    0.39
   3   4   3   10.49    0.40
  -3   4  -3    9.89    0.39
  -3   4  -3    9.66    0.38
  -4  -4  -3    6.33    0.35
  -4  -4  -3    6.34    0.39
   4  -4   3    7.32    0.37
  -4   4  -3    7.51    0.38
  -4   4  -3    6.48    0.36
   4   4   3    7.27    0.37
   4  -5  -3    1.45    0.20
  -4  -5   3    1.67    0.24
  -4   5   3    1.67    0.21
   4   5  -3    1.67    0.25
   3  -5  -3    1.85    0.18
  -3  -5   3    1.30    0.19
  -3   5   3    1.34    0.16
   3   5  -3    1.41    0.18
   2  -5  -3    3.81    0.14
   2  -5  -3    3.89    0.20
  -2  -5   3    3.72    0.10
  -2  -5   3    3.63    0.20
   2   5  -3    3.61    0.10
  -2   5   3    3.51    0.14
  -2   5   3    3.57    0.17
   1  -5  -3    1.03    0.11
   1  -5  -3    1.01    0.09
   1  -5  -3    1.05    0.08
   1   5  -3    1.19    0.06
   1   5  -3    1.06    0.10
  -1   5   3    1.04    0.08
   1   5  -3    0.93    0.10
   1   5  -3    1.02    0.06
   0  -5   3    2.59    0.12
   0  -5  -3    2.61    0.14
   0  -5  -3    2.63    0.13
   0   5  -3    2.76    0.13
   0   5   3    2.78    0.13
   0   5  -3    2.69    0.12
   0   5  -3    2.80    0.11
  -1  -5  -3    0.94    0.11
   1  -5   3    0.95    0.10
  -1  -5  -3    0.84    0.11
  -1  -5  -3    0.80    0.09
   1   5   3    0.92    0.11
  -1   5  -3    0.81    0.10
   2  -5   3    3.95    0.20
  -2  -5  -3    3.67    0.18
  -2  -5  -3    3.96    0.21
  -2  -5  -3    3.66    0.21
  -2   5  -3    3.81    0.21
  -2   5  -3    3.99    0.20
   2   5   3    4.16    0.22
   3  -5   3    2.36    0.22
  -3  -5  -3    2.38    0.23
  -3  -5  -3    2.53    0.21
  -3   5  -3    2.42    0.21
   3   5   3    2.53    0.22
  -3   5  -3    2.54    0.21
   4  -5   3    0.70    0.17
  -4  -5  -3    1.42    0.25
  -4  -5  -3    1.06    0.19
  -4   5  -3    1.12    0.19
  -4   5  -3    1.17    0.22
   4   5   3    0.67    0.18
   4  -6  -3    5.20    0.31
  -4  -6   3    4.86    0.35
  -4   6   3    6.29    0.33
   4   6  -3    5.27    0.33
  -3  -6   3    6.30    0.31
   3  -6  -3    6.73    0.30
  -3   6   3    6.68    0.28
   3   6  -3    6.43    0.31
  -2  -6   3   26.45    0.72
  -2  -6   3   27.18    0.62
   2  -6  -3   27.29    0.72
   2   6  -3   27.42    0.62
  -2   6   3   27.52    0.68
  -2   6   3   25.74    0.65
   2   6  -3   26.33    0.72
   1  -6  -3   50.90    1.21
   1  -6  -3   49.34    1.17
   1  -6  -3   51.51    1.17
   1   6  -3   50.15    1.20
   1   6  -3   50.43    1.14
   1   6  -3   50.24    1.19
  -1   6   3   48.75    1.17
   0  -6  -3    0.11    0.06
   0  -6  -3    0.15    0.06
   0   6  -3    0.15    0.06
   0   6  -3   -0.02    0.03
   0   6   3    0.15    0.06
   0   6  -3    0.10    0.04
   0   6  -3    0.00    0.04
  -1  -6  -3   14.24    0.42
  -1  -6  -3   14.98    0.41
  -1  -6  -3   14.85    0.44
   1  -6   3   15.19    0.42
  -1   6  -3   14.68    0.42
   1   6   3   13.99    0.43
   2  -6   3   33.57    0.87
  -2  -6  -3   33.53    0.84
  -2  -6  -3   33.33    0.87
  -2  -6  -3   32.53    0.88
  -2   6  -3   32.81    0.85
  -2   6  -3   32.98    0.87
   2   6   3   33.42    0.87
  -3  -6  -3    4.24    0.22
  -3  -6  -3    4.09    0.27
  -3  -6  -3    3.66    0.26
   3  -6   3    4.28    0.25
  -3   6  -3    4.03    0.25
   3   6   3    4.13    0.25
  -3   6  -3    3.82    0.26
  -4  -6  -3    0.23    0.19
  -4  -6  -3    0.24    0.14
   4  -6   3    0.34    0.14
  -4   6  -3    0.12    0.14
  -4   6  -3    0.23    0.16
   4   6   3    0.12    0.16
  -4  -7   3    7.09    0.40
   4  -7  -3    7.27    0.35
   4   7  -3    7.35    0.38
  -4   7   3    7.22    0.35
  -3  -7   3   18.18    0.57
   3  -7  -3   17.18    0.55
  -3   7   3   17.28    0.52
   3   7  -3   18.27    0.57
  -2  -7   3    1.52    0.08
  -2  -7   3    1.72    0.16
   2  -7  -3    1.48    0.14
  -2   7   3    1.63    0.11
  -2   7   3    1.64    0.12
   2   7  -3    1.67    0.08
   2   7  -3    1.80    0.15
   1  -7  -3   13.06    0.35
   1  -7  -3   12.62    0.40
  -1  -7   3   13.64    0.35
   1   7  -3   12.90    0.38
  -1   7   3   13.12    0.36
   1   7  -3   13.56    0.34
   0  -7  -3   78.86    1.90
   0  -7  -3   80.53    1.88
   0  -7  -3   84.12    1.89
   0   7  -3   81.01    1.87
   0   7  -3   83.56    1.88
   0   7   3   81.48    1.89
   0   7  -3   82.53    1.86
  -1  -7  -3    9.87    0.34
   1  -7   3   10.39    0.25
  -1  -7  -3   10.13    0.32
   1  -7   3   10.19    0.32
  -1  -7  -3   10.21    0.32
  -1   7  -3   10.32    0.32
   1   7   3    9.94    0.33
  -2  -7  -3    1.06    0.14
  -2  -7  -3    1.06    0.13
  -2  -7  -3    1.46    0.16
   2  -7   3    1.22    0.15
  -2   7  -3    1.39    0.13
  -2   7  -3    1.27    0.14
   2   7   3    1.13    0.14
  -3  -7  -3    9.88    0.36
  -3  -7  -3   10.36    0.41
  -3  -7  -3   10.16    0.42
   3  -7   3   10.18    0.40
  -3   7  -3   10.30    0.39
  -3   7  -3    9.41    0.39
   3   7   3   10.07    0.40
  -4  -7  -3    7.67    0.38
  -4  -7  -3    8.28    0.45
   4  -7   3    9.01    0.41
   4   7   3    7.88    0.44
  -4   7  -3    8.22    0.41
  -4   7  -3    8.47    0.40
  -4  -8   3    0.54    0.19
   4   8  -3    0.33    0.17
  -3  -8   3    0.39    0.14
   3  -8  -3    0.48    0.13
  -3   8   3    0.42    0.11
   3   8  -3    0.40    0.13
  -2  -8   3   13.08    0.42
   2  -8  -3   12.81    0.42
  -2  -8   3   13.47    0.35
   2  -8  -3   12.89    0.37
  -2   8   3   13.54    0.37
   2   8  -3   12.87    0.42
   2   8  -3   13.45    0.34
  -2   8   3   12.63    0.37
  -1  -8   3    5.46    0.18
   1  -8  -3    5.17    0.18
   1  -8  -3    5.47    0.20
  -1  -8   3    5.33    0.20
   1  -8  -3    5.15    0.22
   1   8  -3    5.33    0.17
   1   8  -3    5.13    0.21
  -1   8   3    5.10    0.19
   0  -8  -3    1.36    0.11
   0  -8  -3    1.14    0.12
   0  -8  -3    1.45    0.12
   0   8  -3    1.32    0.10
   0   8  -3    1.21    0.10
   0   8  -3    1.10    0.09
   0   8   3    1.30    0.12
   0   8  -3    1.26    0.10
   1  -8   3   13.52    0.32
   1  -8   3   13.65    0.40
  -1  -8  -3   12.87    0.39
  -1  -8  -3   12.45    0.39
  -1  -8  -3   13.26    0.41
   1   8   3   13.32    0.41
  -1   8  -3   13.33    0.38
  -2  -8  -3   28.01    0.74
  -2  -8  -3   27.74    0.77
   2  -8   3   26.74    0.75
  -2  -8  -3   28.59    0.76
  -2   8  -3   27.71    0.75
   2   8   3   27.40    0.76
  -2   8  -3   27.05    0.73
  -3  -8  -3    0.61    0.15
  -3  -8  -3    1.13    0.19
   3  -8   3    0.59    0.14
  -3  -8  -3    0.97    0.14
  -3   8  -3    1.05    0.15
   3   8   3    1.16    0.17
  -3   8  -3    0.81    0.15
  -4  -8  -3    3.12    0.34
  -4  -8  -3    2.82    0.31
   4  -8   3    2.50    0.28
  -4   8  -3    2.83    0.28
  -4   8  -3    2.73    0.28
  -4  -9   3   15.72    0.61
   4   9  -3   16.91    0.60
  -3  -9   3   26.37    0.78
   3  -9  -3   26.64    0.76
  -3   9   3   27.85    0.72
   3   9  -3   26.68    0.78
  -2  -9   3    3.77    0.21
   2  -9  -3    3.52    0.17
   2  -9  -3    3.60    0.21
  -2  -9   3    3.57    0.15
  -2   9   3    3.33    0.15
   2   9  -3    3.64    0.21
  -2   9   3    3.65    0.17
   2   9  -3    3.79    0.14
   1  -9  -3   47.94    1.16
   1  -9  -3   47.97    1.12
   1  -9  -3   48.52    1.19
  -1  -9   3   48.66    1.14
  -1  -9   3   48.57    1.16
  -1   9   3   48.02    1.16
   1   9  -3   48.85    1.17
   1   9  -3   49.00    1.13
   0  -9  -3  143.06    3.28
   0  -9  -3  143.44    3.25
   0   9   3  141.00    3.28
   0   9  -3  148.32    3.25
   0   9  -3  145.54    3.24
   0   9  -3  141.66    3.26
   0   9  -3  145.60    3.26
   1  -9   3   78.77    1.72
  -1  -9  -3   70.14    1.81
  -1  -9  -3   76.68    1.78
  -1  -9  -3   77.27    1.80
   1   9   3   76.70    1.81
  -1   9  -3   76.75    1.79
  -1   9  -3   76.58    1.77
  -2  -9  -3   11.73    0.39
  -2  -9  -3   12.05    0.41
  -2  -9  -3   11.44    0.42
   2  -9   3   11.30    0.40
   2   9   3   12.15    0.41
  -2   9  -3   11.92    0.38
  -2   9  -3   12.16    0.41
  -3  -9  -3   61.63    1.57
  -3  -9  -3   62.31    1.59
  -3  -9  -3   61.87    1.54
   3  -9   3   63.95    1.57
   3   9   3   62.78    1.57
  -3   9  -3   62.88    1.55
  -3   9  -3   61.84    1.57
  -4  -9  -3   10.53    0.51
   4  -9   3   10.62    0.46
  -4   9  -3    9.90    0.45
  -4 -10   3    0.20    0.18
   4  10  -3    0.33    0.17
   3 -10  -3    3.26    0.24
  -3 -10   3    3.00    0.25
  -3  10   3    3.50    0.20
   3  10  -3    4.00    0.27
  -2 -10   3   14.80    0.46
  -2 -10   3   14.22    0.40
   2 -10  -3   14.22    0.42
   2 -10  -3   14.39    0.46
   2  10  -3   14.82    0.38
   2  10  -3   14.34    0.46
  -2  10   3   14.46    0.39
  -2  10   3   14.65    0.42
   1 -10  -3    8.02    0.23
   1 -10  -3    8.06    0.27
  -1 -10   3    7.89    0.26
  -1 -10   3    7.41    0.27
   1  10  -3    8.54    0.29
   1  10  -3    8.46    0.25
  -1  10   3    8.36    0.28
   0 -10  -3    9.64    0.29
   0 -10  -3    9.66    0.32
   0  10  -3    9.71    0.30
   0  10  -3    9.42    0.30
   0  10  -3    9.63    0.29
   0  10  -3    9.70    0.29
   0  10   3    9.52    0.32
  -1 -10  -3    4.17    0.22
  -1 -10  -3    3.56    0.19
  -1 -10  -3    3.85    0.18
   1 -10   3    3.63    0.13
   1  10   3    3.81    0.20
  -1  10  -3    3.99    0.17
  -2 -10  -3    6.40    0.29
   2 -10   3    6.53    0.28
  -2 -10  -3    6.70    0.31
  -2 -10  -3    6.98    0.28
   2  10   3    6.42    0.30
  -2  10  -3    6.73    0.26
  -2  10  -3    6.60    0.29
  -3 -10  -3    1.19    0.19
  -3 -10  -3    1.15    0.18
   3 -10   3    1.26    0.18
  -3 -10  -3    1.27    0.19
  -3  10  -3    1.06    0.17
  -3  10  -3    1.32    0.18
   3  10   3    1.04    0.17
   4 -10   3    2.16    0.28
  -4 -10  -3    2.35    0.30
  -4  10  -3    2.05    0.26
  -4 -11   3    7.64    0.43
   4  11  -3    8.22    0.43
  -3 -11   3   20.31    0.66
   3 -11  -3   20.38    0.63
   3  11  -3   21.80    0.67
   2 -11  -3    7.49    0.31
   2 -11  -3    8.29    0.28
  -2 -11   3    7.15    0.26
  -2 -11   3    7.63    0.31
  -2  11   3    8.07    0.24
  -2  11   3    7.56    0.28
   2  11  -3    7.91    0.32
   2  11  -3    7.79    0.24
   1 -11  -3    3.27    0.20
   1 -11  -3    3.37    0.13
  -1 -11   3    3.37    0.17
   1 -11  -3    3.32    0.17
  -1 -11   3    3.50    0.16
   1  11  -3    3.38    0.18
  -1  11   3    3.53    0.17
   1  11  -3    3.33    0.15
   0 -11  -3   40.57    1.02
   0 -11  -3   39.09    1.02
   0 -11  -3   39.64    0.97
   0  11  -3   40.72    1.00
   0  11  -3   41.86    0.99
   0  11   3   40.71    1.01
   0  11  -3   41.05    0.97
  -1 -11  -3   11.24    0.38
   1 -11   3   10.79    0.30
  -1 -11  -3   10.45    0.36
  -1 -11  -3   11.07    0.35
  -1  11  -3   10.75    0.32
  -1  11  -3   10.46    0.48
   1  11   3   10.54    0.37
  -1  11  -3   10.52    0.35
  -2 -11  -3    6.72    0.31
   2 -11   3    6.10    0.28
  -2 -11  -3    5.45    0.28
  -2 -11  -3    5.62    0.27
  -2  11  -3    5.56    0.24
  -2  11  -3    6.42    0.29
   2  11   3    5.37    0.28
   3 -11   3   21.42    0.67
  -3 -11  -3   21.12    0.68
  -3 -11  -3   21.51    0.65
  -3 -11  -3   21.02    0.68
  -3  11  -3   21.45    0.67
  -3  11  -3   20.47    0.63
   3  11   3   21.34    0.67
  -4 -11  -3   13.19    0.57
   4 -11   3   13.26    0.54
  -4  11  -3   13.15    0.54
  -4 -12   3    1.06    0.22
   4  12  -3    1.24    0.23
  -3 -12   3    6.22    0.34
   3 -12  -3    6.34    0.32
   3  12  -3    6.57    0.34
  -3  12   3    6.51    0.29
  -2 -12   3   14.59    0.44
  -2 -12   3   15.74    0.49
   2 -12  -3   15.92    0.46
   2 -12  -3   15.86    0.50
   2  12  -3   15.62    0.50
   2  12  -3   15.27    0.42
  -2  12   3   15.26    0.40
  -2  12   3   15.50    0.46
   1 -12  -3   48.98    1.19
  -1 -12   3   49.95    1.17
   1 -12  -3   48.92    1.23
   1 -12  -3   45.71    1.12
  -1 -12   3   48.30    1.18
   1  12  -3   48.78    1.16
  -1  12   3   50.57    1.19
   1  12  -3   48.80    1.20
   0 -12  -3    8.76    0.33
   0 -12  -3    8.42    0.32
   0 -12   3    9.10    0.29
   0 -12  -3    9.08    0.28
   0  12  -3    9.24    0.27
   0  12  -3    8.86    0.30
   0  12  -3    8.87    0.29
   0  12   3    8.73    0.32
  -1 -12  -3   14.23    0.47
   1 -12   3   13.99    0.38
  -1 -12  -3   14.38    0.42
  -1 -12  -3   14.13    0.45
  -1  12  -3   14.14    0.44
   1  12   3   14.70    0.46
  -1  12  -3   14.30    0.40
   2 -12   3   33.24    0.93
  -2 -12  -3   36.77    0.94
  -2 -12  -3   34.66    0.96
  -2 -12  -3   35.36    0.93
   2  12   3   34.51    0.94
  -2  12  -3   35.43    0.89
  -2  12  -3   34.03    0.93
   3 -12   3    0.29    0.14
  -3 -12  -3    0.30    0.15
  -3 -12  -3    0.51    0.17
  -3 -12  -3    0.23    0.13
  -3  12  -3    0.39    0.15
   3  12   3    0.40    0.15
  -4 -12  -3    4.25    0.37
   4 -12   3    4.18    0.34
  -4  12  -3    4.86    0.35
  -4 -13   3    0.11    0.17
   4  13  -3    0.44    0.18
  -3 -13   3    4.29    0.29
   3 -13  -3    3.68    0.27
   3 -13  -3    3.87    0.27
   3  13  -3    3.91    0.28
  -3  13   3    4.20    0.23
   2 -13  -3    0.00    0.10
  -2 -13   3    0.03    0.10
   2 -13  -3    0.05    0.08
  -2 -13   3    0.07    0.08
  -2  13   3    0.08    0.08
   2  13  -3    0.21    0.07
   2  13  -3    0.07    0.11
  -1 -13   3   12.92    0.39
   1 -13  -3   13.19    0.44
  -1 -13   3   12.55    0.38
   1 -13  -3   12.94    0.41
   1 -13  -3   12.13    0.33
   1  13  -3   13.27    0.38
   1  13  -3   13.48    0.42
  -1  13   3   13.11    0.41
   0 -13  -3    5.57    0.21
   0 -13  -3    5.30    0.25
   0 -13  -3    5.44    0.26
   0 -13   3    5.62    0.22
   0  13  -3    5.73    0.24
   0  13  -3    5.98    0.23
   0  13   3    5.92    0.25
   0  13  -3    5.58    0.20
  -1 -13  -3    0.34    0.11
  -1 -13  -3    0.16    0.08
  -1 -13  -3    0.10    0.09
   1 -13   3    0.23    0.06
  -1  13  -3    0.26    0.07
   1  13   3    0.37    0.11
  -1  13  -3    0.13    0.09
   2 -13   3    2.52    0.21
  -2 -13  -3    3.03    0.21
  -2 -13  -3    3.05    0.25
  -2 -13  -3    2.56    0.21
  -2  13  -3    2.80    0.17
  -2  13  -3    2.70    0.22
   2  13   3    2.65    0.22
  -3 -13  -3    2.92    0.27
  -3 -13  -3    2.42    0.26
  -3 -13  -3    2.20    0.23
   3 -13   3    1.88    0.23
  -3  13  -3    2.44    0.25
   3  13   3    1.79    0.21
   4 -13   3    1.10    0.22
  -4 -13  -3    1.08    0.25
  -4  13  -3    1.20    0.23
  -4 -14   3    4.37    0.38
   4  14  -3    5.27    0.39
   3 -14  -3    3.12    0.25
  -3 -14   3    2.35    0.26
   3 -14  -3    2.46    0.21
   3  14  -3    2.65    0.26
  -3  14   3    2.48    0.20
  -2 -14   3   57.05    1.40
   2 -14  -3   55.33    1.43
   2 -14  -3   58.92    1.39
  -2 -14   3   54.68    1.37
   2  14  -3   56.78    1.35
  -2  14   3   56.91    1.39
   2  14  -3   56.91    1.43
   1 -14  -3   28.50    0.76
   1 -14  -3   27.54    0.66
  -1 -14   3   27.65    0.74
   1 -14  -3   29.52    0.80
  -1 -14   3   28.22    0.73
   1  14  -3   29.41    0.73
   1  14  -3   28.21    0.76
  -1  14   3   28.45    0.76
   0 -14  -3    0.04    0.09
   0 -14  -3    0.12    0.06
   0 -14  -3    0.03    0.08
   0 -14   3    0.10    0.07
   0  14  -3    0.00    0.07
   0  14   3    0.07    0.08
   0  14  -3    0.08    0.06
   0  14  -3    0.13    0.08
  -1 -14  -3   30.17    0.84
   1 -14   3   31.46    0.78
  -1 -14  -3   30.57    0.86
  -1 -14  -3   31.47    0.80
  -1  14  -3   31.41    0.76
  -1  14  -3   30.81    0.83
   1  14   3   31.25    0.85
  -2 -14  -3    7.46    0.34
  -2 -14  -3    7.21    0.35
  -2 -14  -3    7.57    0.32
   2 -14   3    7.33    0.33
   2  14   3    7.42    0.34
  -2  14  -3    6.88    0.33
  -2  14  -3    6.62    0.31
  -3 -14  -3    6.88    0.38
   3 -14   3    6.86    0.36
  -3 -14  -3    6.44    0.34
  -3 -14  -3    7.30    0.39
   3  14   3    6.40    0.35
  -3  14  -3    7.20    0.36
   4 -14   3    2.74    0.31
  -4 -14  -3    2.35    0.31
  -4  14  -3    2.25    0.31
  -4 -15   3    3.32    0.34
   4  15  -3    2.81    0.32
   3 -15  -3    5.58    0.28
  -3 -15   3    4.90    0.33
   3 -15  -3    5.12    0.31
  -3  15   3    5.05    0.27
   3  15  -3    5.44    0.33
  -2 -15   3    0.53    0.11
   2 -15  -3    0.27    0.11
  -2 -15   3    0.43    0.12
   2 -15  -3    0.21    0.13
  -2  15   3    0.49    0.11
   2  15  -3    0.19    0.08
   2  15  -3    0.45    0.13
  -1 -15   3    4.86    0.22
   1 -15  -3    4.90    0.25
   1 -15  -3    4.82    0.27
  -1 -15   3    4.81    0.23
  -1  15   3    5.30    0.25
   1  15  -3    4.87    0.22
   0 -15  -3   13.32    0.44
   0 -15  -3   11.73    0.35
   0 -15   3   12.42    0.39
   0 -15  -3   11.58    0.42
   0  15  -3   11.75    0.40
   0  15  -3   12.00    0.35
   0  15   3   12.43    0.42
   0  15  -3   12.73    0.39
   1 -15   3    0.90    0.11
  -1 -15  -3    1.04    0.15
  -1 -15  -3    0.94    0.13
  -1 -15  -3    0.93    0.15
   1  15   3    0.81    0.15
  -1  15  -3    1.11    0.10
  -1  15  -3    1.45    0.17
  -2 -15  -3    0.19    0.12
  -2 -15  -3    0.33    0.12
  -2 -15  -3    0.30    0.14
  -2  15  -3    0.29    0.12
   2  15   3    0.15    0.12
  -3 -15  -3    0.64    0.17
  -3 -15  -3    0.44    0.17
  -3 -15  -3    0.24    0.17
   3 -15   3    0.53    0.16
   3  15   3    0.47    0.17
  -3  15  -3    0.51    0.16
  -4 -16   3    2.09    0.28
  -3 -16   3    2.88    0.27
   3 -16  -3    2.76    0.22
   3 -16  -3    2.69    0.27
  -3  16   3    2.43    0.23
   3  16  -3    2.59    0.28
   2 -16  -3   15.10    0.49
  -2 -16   3   15.60    0.50
  -2 -16   3   15.04    0.48
   2 -16  -3   14.88    0.53
  -2  16   3   14.80    0.49
   2  16  -3   14.65    0.52
   2  16  -3   15.09    0.45
  -1 -16   3   29.68    0.78
   1 -16  -3   29.60    0.85
  -1 -16   3   30.61    0.82
  -1 -16   3   28.86    0.80
   1 -16  -3   30.15    0.82
   1  16  -3   29.69    0.78
  -1  16   3   32.36    0.83
   0 -16   3    0.15    0.08
   0 -16  -3    0.12    0.10
   0 -16  -3    0.04    0.10
   0 -16  -3    0.03    0.06
   0  16   3    0.14    0.10
   0  16  -3   -0.03    0.07
  -1 -16  -3   14.92    0.51
  -1 -16  -3   14.30    0.50
   1 -16   3   14.42    0.43
  -1 -16  -3   14.62    0.45
  -1  16  -3   14.30    0.48
  -1  16  -3   14.72    0.48
  -1  16  -3   15.47    0.40
   1  16   3   14.85    0.50
  -2 -16  -3   32.92    0.92
  -2 -16  -3   31.32    0.93
  -2 -16  -3   33.29    0.89
  -2  16  -3   32.67    0.91
   2  16   3   32.35    0.91
  -2  16  -3   31.85    0.90
  -3 -16  -3   -0.13    0.15
   3 -16   3    0.29    0.15
  -3 -16  -3    0.05    0.15
  -3 -16  -3    0.07    0.14
  -3  16  -3   -0.13    0.13
   3  16   3    0.04    0.14
  -4 -17   3    9.45    0.50
  -4 -17   3    9.11    0.50
  -3 -17   3   14.37    0.53
   3 -17  -3   13.66    0.49
   3 -17  -3   13.88    0.53
  -3  17   3   13.07    0.48
  -2 -17   3    2.22    0.20
  -2 -17   3    2.18    0.20
   2 -17  -3    2.49    0.24
   2 -17  -3    2.57    0.22
  -2  17   3    2.39    0.21
   2  17  -3    2.57    0.18
  -1 -17   3    8.67    0.35
  -1 -17   3    9.47    0.34
   1 -17  -3    8.02    0.37
  -1 -17   3    8.89    0.31
   1 -17  -3    7.90    0.34
   1  17  -3    9.35    0.33
  -1  17   3    9.47    0.36
   0 -17   3   61.05    1.46
   0 -17   3   62.77    1.48
   0 -17  -3   55.22    1.48
   0 -17  -3   59.92    1.40
   0 -17   3   62.55    1.40
   0 -17  -3   57.65    1.50
   0  17   3   59.37    1.49
   0  17  -3   59.01    1.46
   1 -17   3   29.66    0.78
  -1 -17  -3   32.06    0.86
  -1 -17  -3   29.52    0.85
  -1 -17  -3   30.43    0.79
  -1  17  -3   30.34    0.84
   1  17   3   28.02    0.84
  -1  17  -3   29.57    0.83
  -2 -17  -3    0.67    0.18
  -2 -17  -3    0.44    0.15
  -2 -17  -3    0.52    0.14
   2  17   3    0.62    0.16
  -2  17  -3    0.53    0.15
  -2  17  -3    0.73    0.16
  -3 -17  -3   15.30    0.58
  -3 -17  -3   15.02    0.57
   3 -17   3   15.10    0.58
  -3 -17  -3   14.56    0.59
   3  17   3   15.43    0.58
  -3  17  -3   16.34    0.59
  -3 -18   3    0.13    0.15
   3 -18  -3    0.06    0.16
   3 -18  -3    0.26    0.14
  -3 -18   3    0.17    0.17
  -3  18   3    0.24    0.13
   2 -18  -3    6.68    0.35
   2 -18  -3    6.61    0.32
  -2 -18   3    7.60    0.36
  -2 -18   3    7.10    0.32
  -2 -18   3    7.15    0.32
   2  18  -3    6.60    0.28
  -2  18   3    6.58    0.32
   1 -18  -3    2.01    0.22
   1 -18  -3    2.10    0.20
  -1 -18   3    1.80    0.16
  -1 -18   3    1.78    0.20
  -1 -18   3    1.89    0.19
  -1  18   3    1.76    0.19
   1  18  -3    1.73    0.17
   0 -18   3    0.11    0.11
   0 -18  -3    0.14    0.11
   0 -18   3   -0.02    0.08
   0 -18  -3    0.01    0.11
   0 -18   3    0.08    0.07
   0 -18  -3   -0.02    0.06
   0  18   3    0.06    0.11
   0  18  -3    0.08    0.09
  -1 -18  -3    0.09    0.13
  -1 -18  -3   -0.12    0.11
   1 -18   3    0.09    0.09
  -1 -18  -3    0.16    0.09
   1  18   3   -0.03    0.12
  -1  18  -3    0.02    0.10
  -1  18  -3   -0.01    0.11
  -2 -18  -3    0.24    0.15
  -2 -18  -3    0.27    0.16
  -2 -18  -3   -0.01    0.11
   2  18   3    0.08    0.13
  -2  18  -3    0.12    0.13
  -2  18  -3   -0.06    0.12
   3 -18   3    0.29    0.17
  -3 -18  -3    0.05    0.16
  -3 -18  -3   -0.01    0.15
  -3 -18  -3    0.49    0.19
  -3  18  -3    0.18    0.16
   3  18   3   -0.14    0.14
   3 -19  -3   17.48    0.63
  -3 -19   3   18.12    0.63
  -3 -19   3   17.80    0.66
   3 -19  -3   18.30    0.60
  -3  19   3   17.51    0.60
  -2 -19   3    7.00    0.37
  -2 -19   3    7.59    0.34
   2 -19  -3    7.40    0.37
  -2 -19   3    7.16    0.34
   2 -19  -3    7.80    0.35
   2  19  -3    7.01    0.30
  -2  19   3    7.36    0.35
  -1 -19   3    4.14    0.26
  -1 -19   3    4.35    0.25
  -1 -19   3    4.61    0.22
   1 -19  -3    4.90    0.29
   1 -19  -3    4.70    0.28
  -1  19   3    4.37    0.27
   1  19  -3    4.62    0.24
   0 -19   3   17.96    0.49
   0 -19   3   18.81    0.56
   0 -19  -3   18.41    0.61
   0 -19  -3   18.73    0.61
   0 -19   3   18.81    0.59
   0  19  -3   18.11    0.57
   0  19   3   19.16    0.60
  -1 -19  -3   15.21    0.54
  -1 -19  -3   14.72    0.53
   1 -19   3   13.83    0.46
  -1 -19  -3   14.78    0.46
  -1  19  -3   14.66    0.51
  -1  19  -3   14.64    0.51
   1  19   3   15.17    0.52
  -2 -19  -3    1.27    0.22
  -2 -19  -3    0.82    0.16
  -2 -19  -3    1.04    0.19
  -2  19  -3    0.85    0.17
   2  19   3    1.05    0.18
  -2  19  -3    1.29    0.19
  -3 -19  -3   16.63    0.61
  -3 -19  -3   16.21    0.62
  -3 -19  -3   16.83    0.65
   3 -19   3   16.16    0.61
  -3  19  -3   16.37    0.62
   3  19   3   16.54    0.61
   3 -20  -3    0.70    0.18
  -3 -20   3    0.51    0.19
  -3 -20   3    0.95    0.20
   3 -20  -3    0.77    0.21
  -3  20   3    0.61    0.17
   2 -20  -3    2.04    0.23
  -2 -20   3    1.70    0.24
   2 -20  -3    1.90    0.26
  -2 -20   3    2.00    0.22
  -2 -20   3    1.67    0.22
   2  20  -3    1.95    0.19
  -2  20   3    2.45    0.23
  -1 -20   3    0.32    0.13
   1 -20  -3    0.09    0.14
   1 -20  -3    0.34    0.14
  -1 -20   3    0.14    0.12
  -1 -20   3    0.29    0.10
  -1  20   3    0.33    0.13
   1  20  -3    0.11    0.10
   0 -20  -3    1.22    0.19
   0 -20   3    1.24    0.16
   0 -20  -3    0.96    0.17
   0 -20   3    0.85    0.16
   0  20  -3    0.61    0.13
   0  20   3    1.12    0.17
  -1 -20  -3    0.23    0.14
   1 -20   3    0.11    0.10
  -1 -20  -3    0.10    0.10
  -1 -20  -3    0.21    0.15
  -1  20  -3    0.13    0.12
  -1  20  -3    0.09    0.13
   1  20   3    0.35    0.14
  -2 -20  -3   11.83    0.50
  -2 -20  -3   11.94    0.45
  -2 -20  -3   12.75    0.53
  -2  20  -3   11.81    0.48
  -2  20  -3   12.80    0.50
   2  20   3   12.24    0.49
   3 -20   3    0.56    0.20
  -3 -20  -3    1.27    0.23
  -3 -20  -3    0.90    0.21
  -3 -20  -3    0.82    0.23
  -3  20  -3    0.71    0.21
   3  20   3    0.78    0.20
  -3 -21   3   11.41    0.49
   3 -21  -3   11.46    0.48
  -3 -21   3   11.11    0.53
  -3  21   3   10.59    0.47
  -2 -21   3    0.56    0.16
   2 -21  -3    0.39    0.17
  -2 -21   3    0.24    0.17
  -2 -21   3    0.56    0.15
   2 -21  -3    0.33    0.15
   2  21  -3    0.50    0.13
  -2  21   3    0.24    0.14
   1 -21  -3   21.53    0.69
  -1 -21   3   21.61    0.68
  -1 -21   3   21.05    0.60
   1 -21  -3   21.22    0.70
  -1 -21   3   20.97    0.66
  -1  21   3   22.67    0.69
   1  21  -3   21.74    0.65
   0 -21   3   30.56    0.85
   0 -21  -3   30.18    0.89
   0 -21   3   30.90    0.88
   0 -21  -3   29.64    0.90
   0  21   3   31.12    0.88
   0  21  -3   30.17    0.85
  -1 -21  -3    1.16    0.20
   1 -21   3    1.24    0.17
  -1 -21  -3    1.15    0.20
  -1 -21  -3    1.10    0.16
  -1  21  -3    1.08    0.17
   1  21   3    1.16    0.19
  -2 -21  -3    2.71    0.24
  -2 -21  -3    3.48    0.30
  -2 -21  -3    3.31    0.32
   2  21   3    3.30    0.29
  -2  21  -3    3.40    0.29
  -2  21  -3    2.91    0.28
   3 -21   3    3.67    0.35
  -3 -21  -3    3.43    0.34
  -3 -21  -3    3.28    0.37
  -3 -21  -3    3.70    0.31
  -3  21  -3    3.58    0.33
   3  21   3    3.97    0.34
   3 -22  -3    0.67    0.19
  -3 -22   3    0.55    0.22
  -3 -22   3    0.78    0.21
  -3  22   3    0.45    0.17
  -2 -22   3   16.15    0.60
  -2 -22   3   16.26    0.54
   2 -22  -3   15.16    0.57
  -2 -22   3   16.66    0.57
   2 -22  -3   16.46    0.61
   2  22  -3   16.15    0.53
  -2  22   3   15.67    0.57
  -1 -22   3    8.69    0.39
   1 -22  -3    8.40    0.42
  -1 -22   3    8.84    0.33
   1 -22  -3    8.62    0.41
  -1 -22   3    9.15    0.41
  -1  22   3    9.06    0.41
   1  22  -3    9.49    0.37
   0 -22   3    0.08    0.11
   0 -22  -3   -0.02    0.14
   0 -22   3    0.03    0.13
   0 -22  -3    0.18    0.15
   0  22   3   -0.14    0.11
   0  22  -3    0.06    0.11
  -1 -22  -3   19.46    0.68
  -1 -22  -3   20.99    0.70
   1 -22   3   19.33    0.65
  -1  22  -3   19.72    0.65
   1  22   3   19.47    0.66
  -2 -22  -3    9.00    0.45
  -2 -22  -3    9.04    0.47
  -2 -22  -3    9.82    0.40
   2  22   3    9.38    0.45
  -2  22  -3    9.10    0.44
  -2  22  -3    9.26    0.44
  -3 -22  -3    4.80    0.36
  -3 -22  -3    4.61    0.38
   3 -22   3    4.73    0.39
  -3 -22  -3    4.46    0.39
   3  22   3    5.78    0.39
  -3  22  -3    4.27    0.36
   3 -23  -3    0.71    0.20
  -3 -23   3    0.57    0.20
  -3 -23   3    0.34    0.21
  -3  23   3    0.62    0.19
  -2 -23   3    0.12    0.14
   2 -23  -3    0.16    0.17
   2 -23  -3    0.02    0.14
  -2 -23   3    0.27    0.17
  -2 -23   3   -0.12    0.14
  -2  23   3    0.03    0.14
   2  23  -3    0.21    0.12
   1 -23  -3    0.79    0.19
   1 -23  -3    1.27    0.21
  -1 -23   3    0.81    0.18
  -1 -23   3    0.81    0.18
   1  23  -3    0.91    0.16
  -1  23   3    0.81    0.18
   0 -23  -3    0.34    0.17
   0 -23   3    0.28    0.13
   0 -23   3    0.20    0.14
   0 -23  -3    0.12    0.14
   0  23  -3    0.32    0.14
   0  23   3    0.16    0.14
   1 -23   3    1.29    0.22
  -1 -23  -3    0.77    0.20
  -1 -23  -3    0.80    0.19
  -1  23  -3    0.97    0.18
   1  23   3    0.82    0.18
  -2 -23  -3    0.19    0.19
  -2 -23  -3    0.24    0.15
  -2 -23  -3    0.20    0.18
   2  23   3    0.13    0.16
  -2  23  -3    0.28    0.17
  -2  23  -3    0.22    0.17
   3 -24  -3    2.10    0.29
  -3 -24   3    1.87    0.26
  -3 -24   3    1.96    0.30
  -3  24   3    1.69    0.24
  -2 -24   3   18.49    0.67
   2 -24  -3   18.41    0.68
  -2 -24   3   18.01    0.63
  -2 -24   3   17.92    0.59
   2 -24  -3   17.79    0.64
  -2  24   3   18.57    0.65
   2  24  -3   17.44    0.60
  -1 -24   3   23.21    0.73
   1 -24  -3   21.54    0.75
  -1 -24   3   21.08    0.71
   1 -24  -3   22.52    0.74
  -1  24   3   22.99    0.74
   1  24  -3   21.89    0.69
   0 -24  -3    0.43    0.18
   0 -24   3    0.32    0.14
   0 -24  -3    0.17    0.16
   0 -24   3    0.07    0.15
   0  24  -3    0.29    0.14
   0  24   3    0.10    0.15
  -1 -24  -3    9.79    0.47
   1 -24   3    9.86    0.44
  -1 -24  -3    8.59    0.45
   1  24   3    8.37    0.43
  -1  24  -3    9.40    0.43
  -2 -24  -3   17.50    0.68
  -2 -24  -3   17.56    0.68
   2  24   3   17.21    0.64
  -2  24  -3   16.87    0.64
  -2 -25   3    0.21    0.19
   2 -25  -3    0.31    0.18
  -2 -25   3    0.21    0.18
   2 -25  -3    0.50    0.20
  -2  25   3    0.02    0.15
  -1 -25   3    2.27    0.27
   1 -25  -3    2.28    0.29
  -1 -25   3    2.13    0.27
   1 -25  -3    2.11    0.28
   1  25  -3    2.12    0.23
  -1  25   3    2.33    0.28
   0 -25   3   13.05    0.52
   0 -25  -3   12.03    0.53
   0 -25  -3   11.53    0.52
   0 -25   3   11.82    0.48
   0  25   3   11.58    0.51
   0  25  -3   13.02    0.49
  -1 -25  -3    4.40    0.36
  -1 -25  -3    4.83    0.38
   1 -25   3    6.08    0.38
  -1  25  -3    5.34    0.35
   1  25   3    5.43    0.35
   2 -25   3    0.76    0.22
  -2 -25  -3    0.89    0.23
  -2 -25  -3    0.59    0.23
  -2  25  -3    0.82    0.21
   2  25   3    0.40    0.19
   2 -26  -3    7.64    0.46
  -2 -26   3    8.51    0.47
   2 -26  -3    7.33    0.44
  -2  26   3    7.49    0.42
   1 -26  -3    4.23    0.36
   1 -26  -3    3.74    0.32
  -1 -26   3    4.40    0.34
  -1 -26   3    3.99    0.32
  -1  26   3    3.57    0.33
   1  26  -3    3.86    0.30
   0 -26  -3    0.13    0.17
   0 -26  -3    0.08    0.17
   0 -26   3    0.27    0.17
   0 -26   3    0.25    0.15
   0  26   3   -0.07    0.15
   0  26  -3   -0.01    0.14
   1 -26   3    6.55    0.41
  -1 -26  -3    6.56    0.42
  -1 -26  -3    6.12    0.42
   1  26   3    6.66    0.40
  -1  26  -3    6.38    0.39
  -2 -26  -3    5.53    0.41
   2 -26   3    5.82    0.42
  -2 -26  -3    5.72    0.44
  -2  26  -3    6.97    0.42
   2  26   3    6.04    0.40
   2 -27  -3    2.38    0.31
   2 -27  -3    2.52    0.34
  -2 -27   3    2.86    0.36
  -2  27   3    2.52    0.31
  -1 -27   3    2.56    0.30
   1 -27  -3    2.86    0.33
  -1 -27   3    2.31    0.29
   1 -27  -3    3.16    0.34
   1  27  -3    2.53    0.28
  -1  27   3    2.12    0.27
   0 -27   3   11.20    0.47
   0 -27  -3   10.75    0.52
   0 -27   3   10.90    0.51
   0 -27  -3   10.57    0.52
   0  27  -3   11.53    0.48
   0  27   3   10.33    0.49
   1 -27   3    6.53    0.42
  -1 -27  -3    6.23    0.42
  -1 -27  -3    6.02    0.43
  -1  27  -3    6.33    0.40
   1  27   3    5.84    0.40
   2 -27   3    1.18    0.26
  -2 -27  -3    1.33    0.26
  -2 -27  -3    0.93    0.26
  -2  27  -3    1.21    0.25
   2  27   3    0.96    0.23
   2 -28  -3    0.14    0.19
  -2 -28   3    0.10    0.20
   2 -28  -3    0.37    0.22
  -2  28   3    0.13    0.18
  -1 -28   3    0.07    0.17
   1 -28  -3    0.18    0.20
   1 -28  -3    0.15    0.19
  -1 -28   3    0.09    0.18
  -1  28   3    0.33    0.19
   1  28  -3   -0.03    0.15
   0 -28  -3    2.20    0.30
   0 -28   3    2.01    0.27
   0 -28   3    1.84    0.26
   0 -28  -3    2.45    0.32
   0  28   3    2.18    0.31
   0  28  -3    2.30    0.28
   1 -28   3    0.68    0.22
  -1 -28  -3   -0.08    0.21
  -1 -28  -3    0.29    0.21
  -1  28  -3    0.22    0.18
   1  28   3    0.38    0.20
   1 -29  -3    8.74    0.49
  -1 -29   3    8.77    0.48
  -1 -29   3    8.91    0.48
   1 -29  -3    8.00    0.47
  -1  29   3    8.92    0.50
   1  29  -3    8.21    0.43
   0 -29  -3   11.78    0.58
   0 -29   3   12.62    0.57
   0 -29  -3   12.45    0.58
   0 -29   3   12.04    0.52
   0  29  -3   11.10    0.51
   0  29   3   12.06    0.56
  -1 -29  -3    5.24    0.43
   1 -29   3    4.26    0.39
  -1 -29  -3    3.86    0.39
  -1  29  -3    4.55    0.37
   1  29   3    4.46    0.38
   1 -30  -3    5.10    0.42
  -1 -30   3    4.57    0.39
  -1 -30   3    5.60    0.41
   1 -30  -3    5.23    0.43
  -1  30   3    4.56    0.42
   1  30  -3    5.32    0.37
   0 -30  -3   -0.12    0.21
   0 -30   3    0.28    0.21
   0 -30  -3    0.14    0.21
   0 -30   3    0.18    0.18
   0  30  -3    0.12    0.18
   0  30   3    0.15    0.19
   4   0  -4    1.72    0.22
  -4   0   4    1.46    0.22
  -3   0   4   94.37    2.26
   3   0  -4   96.04    2.27
   2   0  -4  183.43    4.16
  -2   0   4  182.31    4.15
   1   0  -4    0.22    0.04
   1   0  -4    0.24    0.07
   1   0  -4    0.19    0.07
  -1   0   4    0.18    0.04
   0   0  -4   35.36    0.89
   0   0  -4   34.64    0.85
   0   0   4   36.68    0.86
  -1   0  -4   51.37    1.34
  -1   0  -4   58.66    1.29
  -1   0  -4   57.69    1.36
   2   0   4   23.20    0.64
  -2   0  -4   22.50    0.55
  -2   0  -4   22.38    0.64
  -2   0  -4   22.01    0.64
  -3   0  -4   -0.13    0.11
   3   0   4    0.03    0.11
  -3   0  -4    0.00    0.12
  -4   0  -4   20.13    0.69
   4   0   4   21.55    0.70
  -4   0  -4   20.16    0.72
   4  -1  -4    2.65    0.27
  -4  -1   4    2.61    0.27
   4   1  -4    2.49    0.27
  -4   1   4    2.70    0.28
  -3  -1   4    9.56    0.38
   3  -1  -4    9.71    0.39
  -3   1   4    9.84    0.37
   3   1  -4    9.30    0.38
  -2  -1   4   63.95    1.52
   2  -1  -4   64.20    1.53
   2   1  -4   62.51    1.53
  -2   1   4   62.15    1.51
  -1  -1   4   13.46    0.34
   1  -1  -4   13.92    0.41
   1  -1  -4   14.61    0.40
   1  -1  -4   14.11    0.35
   1   1  -4   13.43    0.40
   1   1  -4   14.32    0.34
   1   1  -4   14.14    0.41
  -1   1   4   13.89    0.35
   0  -1   4    5.07    0.18
   0  -1  -4    5.22    0.18
   0  -1  -4    5.12    0.21
   0   1   4    4.96    0.18
   0   1  -4    4.88    0.20
   0   1  -4    5.18    0.18
  -1  -1  -4    0.75    0.10
  -1  -1  -4    1.16    0.13
  -1  -1  -4    1.09    0.09
   1  -1   4    1.10    0.11
  -1   1  -4    1.12    0.07
  -1   1  -4    1.07    0.13
  -1   1  -4    0.86    0.11
   1   1   4    0.91    0.10
  -2  -1  -4    0.14    0.05
   2  -1   4    0.23    0.09
  -2  -1  -4   -0.02    0.09
  -2  -1  -4    0.09    0.09
  -2   1  -4    0.13    0.08
  -2   1  -4    0.09    0.06
  -2   1  -4    0.12    0.09
   2   1   4    0.10    0.09
  -3  -1  -4    5.69    0.30
   3  -1   4    5.90    0.30
  -3  -1  -4    5.74    0.32
  -3   1  -4    5.33    0.30
  -3   1  -4    5.74    0.31
   3   1   4    6.13    0.31
   4  -1   4    0.96    0.20
  -4  -1  -4    0.94    0.21
  -4  -1  -4    0.57    0.17
  -4   1  -4    0.96    0.22
   4   1   4    0.94    0.20
  -4   1  -4    0.73    0.18
   4  -2  -4   -0.16    0.13
  -4  -2   4    0.17    0.15
   4   2  -4    0.00    0.14
  -4   2   4    0.06    0.14
  -3  -2   4    8.66    0.36
   3  -2  -4    8.09    0.36
   3   2  -4    8.95    0.36
  -3   2   4    8.66    0.35
   2  -2  -4   57.53    1.26
   2  -2  -4   56.05    1.38
  -2  -2   4   56.66    1.37
   2   2  -4   56.10    1.38
  -2   2   4   55.96    1.36
   1  -2  -4   56.67    1.37
   1  -2  -4   56.35    1.36
  -1  -2   4   57.19    1.30
   1  -2  -4   57.01    1.31
   1   2  -4   58.29    1.36
  -1   2   4   56.79    1.31
   1   2  -4   58.63    1.37
   1   2  -4   58.86    1.30
   0  -2  -4    7.71    0.26
   0  -2   4    7.43    0.23
   0  -2  -4    7.30    0.24
   0   2  -4    7.25    0.26
   0   2  -4    7.44    0.23
   0   2   4    7.79    0.24
  -1  -2  -4   36.79    0.88
   1  -2   4   37.31    0.92
  -1  -2  -4   36.88    0.94
  -1   2  -4   36.82    0.93
   1   2   4   35.66    0.92
  -1   2  -4   37.30    0.92
  -1   2  -4   38.20    0.85
  -2  -2  -4   11.71    0.40
   2  -2   4   11.08    0.39
  -2  -2  -4   11.26    0.32
  -2  -2  -4   11.14    0.39
  -2   2  -4   11.02    0.39
  -2   2  -4   11.32    0.39
   2   2   4   11.37    0.39
   3  -2   4    2.00    0.22
  -3  -2  -4    1.96    0.21
  -3  -2  -4    2.26    0.24
   3   2   4    2.13    0.23
  -3   2  -4    1.81    0.21
  -3   2  -4    1.63    0.21
  -4  -2  -4    8.81    0.46
   4  -2   4    9.14    0.44
  -4  -2  -4    9.29    0.42
   4   2   4    8.38    0.43
  -4   2  -4    8.76    0.42
  -4   2  -4    8.83    0.44
  -4  -3   4   10.65    0.47
   4  -3  -4   11.68    0.47
  -4   3   4   10.69    0.46
   4   3  -4   11.38    0.47
  -3  -3   4    6.97    0.33
   3  -3  -4    6.85    0.32
  -3   3   4    6.89    0.30
   3   3  -4    7.15    0.32
  -2  -3   4    0.33    0.10
   2  -3  -4   -0.10    0.08
   2  -3  -4    0.16    0.04
  -2   3   4    0.12    0.07
  -2   3   4    0.08    0.03
   2   3  -4    0.08    0.08
  -1  -3   4   48.17    1.12
   1  -3  -4   49.89    1.18
   1  -3  -4   48.95    1.14
   1  -3  -4   49.13    1.19
   1   3  -4   49.09    1.18
   1   3  -4   50.58    1.19
  -1   3   4   48.28    1.14
   1   3  -4   49.22    1.12
   0  -3  -4   23.43    0.57
   0  -3  -4   18.94    0.56
   0  -3   4   22.01    0.55
   0  -3  -4   21.62    0.59
   0   3   4   21.68    0.56
   0   3  -4   23.40    0.55
   0   3  -4   22.85    0.59
   1  -3   4    0.08    0.06
  -1  -3  -4    0.00    0.02
  -1  -3  -4    0.04    0.07
  -1  -3  -4    0.10    0.06
  -1   3  -4    0.10    0.03
  -1   3  -4    0.04    0.07
   1   3   4    0.05    0.06
  -1   3  -4    0.07    0.07
  -2  -3  -4   26.14    0.66
  -2  -3  -4   25.59    0.73
   2  -3   4   26.56    0.73
  -2  -3  -4   26.92    0.74
   2   3   4   26.12    0.73
  -2   3  -4   25.94    0.73
  -2   3  -4   26.86    0.73
  -3  -3  -4   17.39    0.58
   3  -3   4   16.02    0.55
  -3  -3  -4   16.86    0.56
  -3   3  -4   17.14    0.57
   3   3   4   16.56    0.56
  -3   3  -4   16.58    0.56
  -4  -3  -4    7.61    0.39
  -4  -3  -4    7.72    0.43
   4  -3   4    7.83    0.40
  -4   3  -4    8.06    0.40
  -4   3  -4    7.86    0.41
   4   3   4    7.27    0.40
  -4  -4   4    0.31    0.17
   4  -4  -4    0.46    0.16
  -4   4   4    0.32    0.15
   4   4  -4    0.14    0.15
  -3  -4   4    2.27    0.22
   3  -4  -4    1.47    0.19
   3   4  -4    2.06    0.21
  -3   4   4    2.18    0.19
   2  -4  -4    2.16    0.10
  -2  -4   4    2.10    0.16
   2  -4  -4    2.10    0.18
  -2   4   4    2.04    0.09
   2   4  -4    1.99    0.17
  -2   4   4    2.08    0.15
   1  -4  -4    0.90    0.11
   1  -4  -4    0.95    0.10
  -1  -4   4    0.90    0.06
   1  -4  -4    0.87    0.08
   1   4  -4    0.92    0.06
   1   4  -4    0.77    0.10
  -1   4   4    0.91    0.08
   1   4  -4    0.85    0.11
   0  -4   4    5.56    0.20
   0  -4  -4    6.28    0.22
   0  -4  -4    5.79    0.21
   0   4  -4    5.86    0.19
   0   4  -4    5.79    0.22
   0   4   4    6.28    0.22
  -1  -4  -4    0.29    0.07
  -1  -4  -4    0.38    0.09
   1  -4   4    0.29    0.07
  -1   4  -4    0.29    0.04
   1   4   4    0.10    0.07
  -1   4  -4    0.26    0.09
  -1   4  -4    0.35    0.08
  -2  -4  -4    1.48    0.17
   2  -4   4    1.71    0.17
  -2  -4  -4    1.88    0.18
  -2  -4  -4    1.69    0.13
  -2   4  -4    1.54    0.17
  -2   4  -4    1.57    0.17
   2   4   4    1.52    0.17
   3  -4   4    1.23    0.18
  -3  -4  -4    1.96    0.23
  -3  -4  -4    1.27    0.18
   3   4   4    1.51    0.19
  -3   4  -4    1.37    0.20
  -3   4  -4    1.38    0.19
  -4  -4  -4    1.67    0.27
   4  -4   4    2.03    0.26
  -4  -4  -4    1.48    0.23
  -4   4  -4    1.57    0.22
  -4   4  -4    1.81    0.25
   4   4   4    1.89    0.24
  -4  -5   4   20.57    0.68
   4  -5  -4   19.06    0.64
   4   5  -4   19.27    0.66
  -4   5   4   19.11    0.64
  -3  -5   4   13.61    0.48
   3  -5  -4   13.21    0.47
   3   5  -4   14.03    0.48
  -3   5   4   13.00    0.44
  -2  -5   4    0.13    0.08
   2  -5  -4    0.20    0.05
   2  -5  -4    0.27    0.09
  -2   5   4    0.26    0.05
  -2   5   4    0.22    0.08
   2   5  -4    0.23    0.10
   1  -5  -4   57.39    1.35
   1  -5  -4   57.50    1.33
  -1  -5   4   58.87    1.30
   1  -5  -4   55.95    1.38
   1   5  -4   56.66    1.31
  -1   5   4   56.60    1.33
   1   5  -4   56.94    1.36
   1   5  -4   57.98    1.37
   0  -5   4   32.52    0.79
   0  -5  -4   31.76    0.82
   0  -5  -4   32.24    0.82
   0  -5  -4   32.20    0.81
   0   5  -4   33.64    0.78
   0   5  -4   32.60    0.80
   0   5  -4   32.54    0.82
   0   5   4   33.08    0.81
  -1  -5  -4    0.80    0.11
   1  -5   4    0.84    0.11
  -1  -5  -4    0.72    0.10
  -1   5  -4    0.66    0.11
  -1   5  -4    0.81    0.10
   1   5   4    0.89    0.12
  -1   5  -4    0.79    0.04
  -2  -5  -4   14.49    0.41
   2  -5   4   13.50    0.45
  -2  -5  -4   13.55    0.46
  -2  -5  -4   14.52    0.47
   2   5   4   14.12    0.46
  -2   5  -4   14.04    0.46
  -2   5  -4   13.93    0.46
  -3  -5  -4   37.00    1.03
  -3  -5  -4   37.85    1.03
   3  -5   4   36.30    1.02
  -3   5  -4   37.35    1.02
   3   5   4   38.82    1.03
  -3   5  -4   37.13    1.02
  -4  -5  -4    2.81    0.32
   4  -5   4    1.43    0.22
  -4  -5  -4    1.83    0.27
  -4   5  -4    2.26    0.29
  -4   5  -4    1.94    0.25
   4   5   4    2.01    0.28
   4  -6  -4    0.35    0.15
  -4  -6   4    0.15    0.17
  -4   6   4    0.26    0.15
   4   6  -4    0.35    0.17
  -3  -6   4    2.07    0.22
   3  -6  -4    2.23    0.21
  -3   6   4    2.19    0.18
   3   6  -4    2.34    0.22
   2  -6  -4    7.98    0.32
  -2  -6   4    7.76    0.30
  -2   6   4    8.06    0.24
  -2   6   4    8.27    0.28
   1  -6  -4   10.56    0.32
   1  -6  -4   10.91    0.35
  -1  -6   4   10.97    0.29
   1   6  -4   10.85    0.29
  -1   6   4   10.58    0.31
   1   6  -4   10.40    0.34
   1   6  -4   10.60    0.34
   0  -6  -4    9.34    0.31
   0  -6   4    9.20    0.28
   0  -6  -4    9.50    0.31
   0  -6  -4    9.52    0.31
   0   6  -4    9.21    0.30
   0   6  -4    9.48    0.29
   0   6  -4    9.40    0.27
  -1  -6  -4    4.51    0.21
   1  -6   4    4.71    0.21
  -1  -6  -4    4.79    0.20
  -1   6  -4    4.41    0.21
   1   6   4    4.82    0.22
  -1   6  -4    4.62    0.21
   2  -6   4   20.44    0.60
  -2  -6  -4   21.12    0.62
  -2  -6  -4   20.56    0.61
  -2  -6  -4   20.37    0.57
   2   6   4   20.44    0.61
  -2   6  -4   20.87    0.61
  -2   6  -4   20.21    0.60
  -3  -6  -4    0.48    0.16
   3  -6   4    0.24    0.12
  -3  -6  -4    0.05    0.13
  -3   6  -4    0.28    0.13
   3   6   4    0.46    0.14
  -3   6  -4    0.12    0.12
  -4  -6  -4    4.18    0.36
  -4  -6  -4    4.25    0.33
   4  -6   4    5.12    0.35
   4   6   4    4.58    0.35
  -4   6  -4    4.50    0.34
  -4   6  -4    5.64    0.35
   4  -7  -4    7.18    0.37
  -4  -7   4    6.67    0.40
   4   7  -4    7.25    0.40
  -4   7   4    7.09    0.35
   3  -7  -4    9.80    0.38
  -3  -7   4    8.91    0.39
   3   7  -4    9.30    0.39
  -3   7   4    8.42    0.33
  -2  -7   4    9.45    0.24
  -2  -7   4    9.75    0.35
   2  -7  -4    9.52    0.35
  -2   7   4    9.62    0.28
   2   7  -4    9.65    0.35
  -2   7   4    9.38    0.31
   2   7  -4    9.76    0.24
   1  -7  -4   35.25    0.83
   1  -7  -4   32.52    0.87
   1  -7  -4   33.20    0.83
  -1   7   4   33.64    0.83
   1   7  -4   34.62    0.80
   1   7  -4   33.10    0.85
   1   7  -4   33.44    0.85
   1   7  -4   33.49    0.80
   0  -7  -4   39.16    1.01
   0  -7  -4   42.25    1.03
   0  -7   4   41.24    0.99
   0  -7  -4   41.67    1.01
   0   7  -4   41.27    0.97
   0   7  -4   40.79    0.99
   0   7   4   40.56    1.01
   0   7  -4   41.67    1.01
   1  -7   4    1.83    0.07
   1  -7   4    1.84    0.14
  -1  -7  -4    1.97    0.14
  -1  -7  -4    1.53    0.14
   1   7   4    1.84    0.16
  -1   7  -4    1.93    0.15
  -1   7  -4    1.91    0.15
  -2  -7  -4    2.02    0.15
   2  -7   4    2.15    0.19
  -2  -7  -4    2.04    0.20
  -2  -7  -4    1.88    0.18
  -2   7  -4    1.80    0.17
   2   7   4    1.90    0.19
  -2   7  -4    2.28    0.19
  -3  -7  -4    2.75    0.25
  -3  -7  -4    2.63    0.25
   3  -7   4    2.11    0.23
  -3   7  -4    2.19    0.23
   3   7   4    2.54    0.24
  -3   7  -4    2.06    0.22
  -4  -7  -4    2.75    0.32
   4  -7   4    3.22    0.31
  -4  -7  -4    2.30    0.27
  -4   7  -4    2.53    0.28
  -4   7  -4    3.07    0.29
   4   7   4    2.35    0.30
   4  -8  -4    1.07    0.20
  -4  -8   4    1.28    0.23
   4   8  -4    1.19    0.22
   3  -8  -4   11.94    0.44
  -3  -8   4   12.27    0.46
  -3   8   4   12.24    0.41
   3   8  -4   12.44    0.47
   2  -8  -4   37.09    0.96
   2  -8  -4   36.60    0.88
  -2  -8   4   36.64    0.94
  -2  -8   4   35.89    0.84
   2   8  -4   36.05    0.83
   2   8  -4   35.99    0.95
  -2   8   4   34.94    0.88
  -2   8   4   36.97    0.90
   1  -8  -4    0.12    0.08
   1  -8  -4    0.19    0.06
   1  -8  -4    0.29    0.07
   1   8  -4    0.16    0.07
   1   8  -4    0.11    0.07
   1   8  -4    0.12    0.05
  -1   8   4    0.20    0.07
   0  -8  -4   25.82    0.69
   0  -8  -4   25.19    0.68
   0  -8  -4   25.31    0.67
   0   8  -4   25.53    0.66
   0   8  -4   25.56    0.63
   0   8  -4   25.55    0.66
   0   8   4   25.85    0.67
  -1  -8  -4   66.42    1.56
  -1  -8  -4   67.47    1.57
   1  -8   4   63.97    1.56
   1  -8   4   65.44    1.47
  -1   8  -4   65.97    1.57
   1   8   4   61.88    1.57
  -1   8  -4   65.96    1.56
  -2  -8  -4   25.62    0.75
   2  -8   4   27.30    0.75
  -2  -8  -4   27.34    0.77
  -2  -8  -4   26.12    0.71
  -2   8  -4   26.58    0.73
  -2   8  -4   27.36    0.75
   2   8   4   25.75    0.75
  -3  -8  -4    5.01    0.31
   3  -8   4    5.21    0.30
  -3  -8  -4    4.37    0.30
   3   8   4    5.09    0.32
  -3   8  -4    4.69    0.29
  -3   8  -4    4.66    0.29
   4  -8   4    5.91    0.36
  -4  -8  -4    5.84    0.36
  -4  -8  -4    5.62    0.40
  -4   8  -4    4.72    0.35
  -4   8  -4    5.29    0.35
   4   8   4    5.84    0.38
  -4  -9   4    0.22    0.17
   4  -9  -4    0.12    0.15
   4   9  -4    0.39    0.18
  -3  -9   4    1.34    0.19
   3  -9  -4    1.42    0.21
  -3   9   4    1.28    0.16
   3   9  -4    1.54    0.21
  -2  -9   4    0.53    0.12
   2  -9  -4    0.45    0.08
  -2  -9   4    0.49    0.07
   2  -9  -4    0.54    0.12
   2   9  -4    0.54    0.12
  -2   9   4    0.40    0.08
   2   9  -4    0.65    0.07
  -2   9   4    0.60    0.09
   1  -9  -4    0.53    0.09
   1  -9  -4    0.65    0.09
   1  -9  -4    0.98    0.14
   1   9  -4    0.62    0.08
   1   9  -4    0.50    0.10
   1   9  -4    0.66    0.10
  -1   9   4    0.58    0.09
   0  -9  -4    0.20    0.08
   0  -9  -4    0.14    0.08
   0  -9  -4    0.05    0.07
   0   9  -4    0.02    0.06
   0   9  -4   -0.02    0.05
   0   9   4    0.09    0.07
   0   9  -4    0.02    0.05
   0   9  -4    0.12    0.07
   1  -9   4   -0.01    0.03
   1  -9   4    0.02    0.07
  -1  -9  -4    0.10    0.08
  -1  -9  -4   -0.02    0.07
  -1   9  -4    0.08    0.08
  -1   9  -4    0.01    0.08
   1   9   4   -0.04    0.08
   2  -9   4    6.81    0.30
  -2  -9  -4    6.84    0.31
  -2  -9  -4    7.18    0.33
  -2  -9  -4    6.98    0.28
  -2   9  -4    6.49    0.29
   2   9   4    6.57    0.31
  -2   9  -4    6.55    0.31
  -3  -9  -4    3.06    0.26
  -3  -9  -4    2.83    0.26
   3  -9   4    2.57    0.25
  -3   9  -4    2.76    0.25
  -3   9  -4    2.42    0.23
   3   9   4    2.49    0.25
  -4  -9  -4    0.32    0.18
   4  -9   4    0.06    0.16
  -4  -9  -4   -0.15    0.17
   4   9   4    0.17    0.17
  -4   9  -4    0.30    0.17
   4 -10  -4    3.70    0.29
  -4 -10   4    3.43    0.33
   4  10  -4    4.12    0.35
   3 -10  -4    8.62    0.38
  -3 -10   4    8.33    0.39
  -3  10   4    8.90    0.33
   3  10  -4    8.52    0.39
   2 -10  -4   31.80    0.82
  -2 -10   4   31.61    0.79
   2 -10  -4   34.31    0.90
  -2 -10   4   33.16    0.87
   2  10  -4   32.96    0.77
   2  10  -4   31.78    0.87
  -2  10   4   33.09    0.82
  -2  10   4   32.63    0.81
   1 -10  -4    3.11    0.15
   1 -10  -4    3.35    0.18
   1 -10  -4    3.44    0.21
   1  10  -4    3.43    0.18
   1  10  -4    3.23    0.18
   1  10  -4    3.32    0.15
  -1  10   4    3.00    0.17
   0 -10  -4    1.98    0.16
   0 -10  -4    1.77    0.15
   0 -10  -4    1.70    0.14
   0  10  -4    1.85    0.13
   0  10  -4    1.77    0.12
   0  10  -4    1.86    0.13
   0  10   4    1.67    0.14
   0  10  -4    1.59    0.12
  -1 -10  -4   45.61    1.14
   1 -10   4   46.31    1.14
  -1 -10  -4   45.96    1.13
   1 -10   4   44.93    1.05
  -1  10  -4   45.92    1.12
   1  10   4   45.00    1.15
  -1  10  -4   45.17    1.14
  -2 -10  -4   36.06    0.94
  -2 -10  -4   36.90    0.96
   2 -10   4   35.77    0.95
  -2 -10  -4   35.90    0.98
  -2  10  -4   34.48    0.93
  -2  10  -4   34.56    0.95
   2  10   4   34.98    0.96
  -3 -10  -4    0.85    0.16
  -3 -10  -4    1.05    0.20
   3 -10   4    0.61    0.16
  -3 -10  -4    1.13    0.19
  -3  10  -4    0.92    0.18
   3  10   4    0.91    0.18
  -3  10  -4    0.96    0.17
  -4 -10  -4   10.74    0.49
  -4 -10  -4   11.25    0.54
   4 -10   4   10.09    0.49
  -4  10  -4   11.83    0.50
   4  10   4   10.86    0.49
  -4 -11   4    1.50    0.25
   4 -11  -4    1.73    0.24
   4  11  -4    1.84    0.26
   3 -11  -4   10.59    0.43
  -3 -11   4   10.40    0.44
   3  11  -4   10.77    0.44
   2 -11  -4    1.19    0.17
  -2 -11   4    1.16    0.12
   2 -11  -4    1.50    0.14
  -2 -11   4    1.54    0.17
  -2  11   4    1.33    0.12
   2  11  -4    1.37    0.10
  -2  11   4    1.42    0.14
   2  11  -4    1.06    0.15
   1 -11  -4    0.22    0.10
   1 -11  -4    0.24    0.07
   1 -11  -4    0.28    0.08
  -1 -11   4    0.25    0.07
   1  11  -4    0.36    0.07
  -1  11   4    0.31    0.08
   1  11  -4    0.40    0.10
   0 -11  -4    0.87    0.12
   0 -11  -4    1.06    0.14
   0 -11  -4    1.01    0.12
   0  11  -4    0.96    0.10
   0  11  -4    0.71    0.10
   0  11   4    0.78    0.11
   0  11  -4    0.95    0.11
   0  11  -4    0.78    0.10
  -1 -11  -4   15.24    0.48
   1 -11   4   15.63    0.39
   1 -11   4   14.60    0.47
  -1 -11  -4   15.26    0.47
  -1  11  -4   14.99    0.44
   1  11   4   15.89    0.49
  -1  11  -4   15.18    0.48
  -2 -11  -4    1.93    0.21
  -2 -11  -4    1.77    0.22
  -2 -11  -4    2.12    0.18
   2  11   4    2.19    0.21
  -2  11  -4    1.74    0.18
  -2  11  -4    1.83    0.18
  -3 -11  -4    2.43    0.22
   3 -11   4    2.41    0.26
  -3 -11  -4    2.99    0.28
  -3 -11  -4    2.50    0.26
  -3  11  -4    2.66    0.26
   3  11   4    2.43    0.26
  -3  11  -4    2.15    0.23
  -4 -11  -4    4.00    0.36
   4 -11   4    3.45    0.34
  -4 -11  -4    2.94    0.35
   4  11   4    3.72    0.34
  -4  11  -4    3.60    0.34
  -4 -12   4    1.24    0.25
   4  12  -4    1.45    0.25
   3 -12  -4    5.31    0.31
  -3 -12   4    5.61    0.32
   3  12  -4    5.07    0.33
  -2 -12   4   12.46    0.39
   2 -12  -4   13.73    0.48
  -2 -12   4   13.73    0.46
   2 -12  -4   13.26    0.42
   2  12  -4   13.37    0.37
  -2  12   4   13.59    0.42
   2  12  -4   13.75    0.47
  -2  12   4   13.85    0.38
   1 -12  -4   16.12    0.48
   1 -12  -4   16.42    0.44
  -1 -12   4   16.06    0.48
  -1 -12   4   16.27    0.46
   1 -12  -4   16.26    0.52
   1  12  -4   15.25    0.48
   1  12  -4   16.76    0.45
  -1  12   4   17.85    0.49
   0 -12  -4   24.45    0.69
   0 -12  -4   25.07    0.65
   0 -12  -4   23.86    0.68
   0  12   4   24.63    0.68
   0  12  -4   23.76    0.66
   0  12  -4   23.82    0.63
   0  12  -4   24.40    0.65
   0  12  -4   25.53    0.64
  -1 -12  -4   22.30    0.63
   1 -12   4   22.78    0.56
  -1 -12  -4   22.48    0.65
  -1  12  -4   23.22    0.65
   1  12   4   22.03    0.66
  -1  12  -4   22.99    0.61
  -2 -12  -4    6.51    0.31
  -2 -12  -4    6.46    0.34
   2 -12   4    5.65    0.30
  -2 -12  -4    5.99    0.29
  -2  12  -4    6.39    0.28
  -2  12  -4    6.42    0.31
   2  12   4    6.52    0.32
  -3 -12  -4    3.32    0.25
  -3 -12  -4    3.42    0.29
   3 -12   4    2.95    0.29
  -3 -12  -4    3.31    0.30
   3  12   4    3.46    0.28
  -3  12  -4    4.00    0.27
   4 -12   4    2.71    0.32
  -4 -12  -4    2.91    0.35
   4  12   4    2.66    0.32
  -4 -13   4   11.99    0.55
   4  13  -4   12.76    0.55
  -3 -13   4    5.56    0.33
   3 -13  -4    6.25    0.34
   3  13  -4    5.41    0.33
  -2 -13   4    0.36    0.10
  -2 -13   4    0.14    0.11
   2 -13  -4    0.32    0.10
   2 -13  -4    0.41    0.13
   2  13  -4    0.29    0.13
   2  13  -4    0.26    0.07
  -2  13   4    0.32    0.10
   1 -13  -4   31.98    0.89
   1 -13  -4   33.93    0.85
   1 -13  -4   31.41    0.78
  -1 -13   4   31.32    0.82
  -1 -13   4   32.57    0.83
  -1  13   4   32.31    0.85
   1  13  -4   31.88    0.81
   1  13  -4   32.99    0.85
   0 -13  -4   27.32    0.71
   0 -13  -4   27.77    0.76
   0 -13  -4   26.63    0.76
   0  13   4   27.99    0.75
   0  13  -4   26.38    0.73
   0  13  -4   27.50    0.70
   0  13  -4   27.18    0.72
   1 -13   4    0.22    0.06
  -1 -13  -4    0.22    0.11
  -1 -13  -4    0.18    0.09
  -1  13  -4    0.31    0.11
   1  13   4    0.35    0.11
  -1  13  -4    0.15    0.08
  -1  13  -4    0.09    0.09
  -2 -13  -4    7.57    0.33
   2 -13   4    6.19    0.32
  -2 -13  -4    7.02    0.36
  -2 -13  -4    7.19    0.33
   2  13   4    6.81    0.34
  -2  13  -4    7.11    0.34
  -2  13  -4    7.55    0.30
  -3 -13  -4   14.68    0.56
  -3 -13  -4   15.89    0.60
   3 -13   4   15.55    0.56
  -3 -13  -4   15.50    0.54
  -3  13  -4   15.28    0.57
   3  13   4   14.17    0.55
  -4 -14   4    0.07    0.19
   4  14  -4    0.12    0.18
  -3 -14   4   -0.18    0.13
   3 -14  -4   -0.26    0.13
   3  14  -4    0.36    0.16
   2 -14  -4   -0.03    0.09
  -2 -14   4    0.03    0.09
  -2 -14   4    0.15    0.12
   2 -14  -4    0.03    0.12
   2  14  -4    0.08    0.07
   2  14  -4    0.08    0.12
  -2  14   4    0.10    0.09
   1 -14  -4    0.21    0.10
  -1 -14   4    0.12    0.08
   1 -14  -4    0.23    0.11
  -1 -14   4    0.31    0.09
   1 -14  -4    0.08    0.06
  -1  14   4    0.14    0.09
   1  14  -4    0.12    0.07
   1  14  -4    0.12    0.09
   0 -14  -4    2.06    0.19
   0 -14  -4    2.11    0.15
   0 -14  -4    2.00    0.19
   0 -14   4    1.81    0.14
   0  14  -4    1.77    0.16
   0  14   4    2.20    0.19
   0  14  -4    1.99    0.14
   0  14  -4    1.98    0.16
  -1 -14  -4    0.41    0.11
  -1 -14  -4    0.36    0.14
  -1 -14  -4    0.41    0.12
   1 -14   4    0.43    0.08
   1  14   4    0.14    0.11
  -1  14  -4    0.35    0.11
  -1  14  -4    0.53    0.12
  -1  14  -4    0.59    0.10
   2 -14   4    0.30    0.13
  -2 -14  -4    0.21    0.12
  -2 -14  -4   -0.03    0.14
  -2 -14  -4    0.32    0.13
   2  14   4   -0.01    0.12
  -2  14  -4    0.23    0.13
  -2  14  -4    0.22    0.10
  -3 -14  -4    0.25    0.14
   3 -14   4    0.04    0.15
  -3 -14  -4   -0.11    0.15
  -3 -14  -4    0.45    0.17
  -3  14  -4    0.10    0.13
   3  14   4    0.09    0.15
  -4 -15   4    8.86    0.48
   4  15  -4    9.23    0.49
  -3 -15   4    3.59    0.29
   3 -15  -4    3.65    0.30
   3  15  -4    3.73    0.30
   2 -15  -4    1.60    0.18
   2 -15  -4    1.75    0.23
  -2 -15   4    1.63    0.16
  -2 -15   4    2.05    0.21
   2  15  -4    1.52    0.14
   2  15  -4    1.58    0.20
  -2  15   4    1.49    0.18
  -1 -15   4   32.65    0.87
   1 -15  -4   33.97    0.94
   1 -15  -4   35.01    0.91
  -1 -15   4   34.69    0.87
   1 -15  -4   32.86    0.81
   1  15  -4   34.69    0.86
  -1  15   4   32.92    0.90
   1  15  -4   33.77    0.90
   0 -15  -4   31.73    0.90
   0 -15  -4   33.17    0.83
   0 -15  -4   31.93    0.89
   0 -15   4   31.97    0.83
   0  15   4   31.25    0.88
   0  15  -4   33.05    0.86
   0  15  -4   33.68    0.82
   0  15  -4   32.74    0.85
  -1 -15  -4    8.23    0.37
  -1 -15  -4    8.90    0.32
   1 -15   4    8.62    0.28
  -1 -15  -4    8.85    0.37
  -1  15  -4    8.43    0.34
  -1  15  -4    8.88    0.29
   1  15   4    8.02    0.36
  -1  15  -4    8.48    0.35
  -2 -15  -4    6.73    0.33
  -2 -15  -4    6.34    0.33
   2 -15   4    6.29    0.33
  -2 -15  -4    6.91    0.37
   2  15   4    7.25    0.36
  -2  15  -4    7.02    0.34
  -3 -15  -4   16.79    0.64
  -3 -15  -4   16.68    0.59
   3 -15   4   15.38    0.59
  -3 -15  -4   16.58    0.60
   3  15   4   15.96    0.60
  -3  15  -4   16.47    0.60
  -4 -16   4    0.10    0.20
   4  16  -4    0.43    0.21
  -3 -16   4    5.74    0.35
   3 -16  -4    6.15    0.37
   3  16  -4    6.65    0.38
   2 -16  -4   16.00    0.52
  -2 -16   4   15.97    0.53
  -2 -16   4   16.34    0.50
   2 -16  -4   16.29    0.57
   2  16  -4   17.01    0.57
  -2  16   4   15.84    0.52
   2  16  -4   16.66    0.50
  -1 -16   4    3.89    0.22
   1 -16  -4    4.06    0.24
   1 -16  -4    3.77    0.26
  -1 -16   4    4.00    0.21
   1  16  -4    3.87    0.20
   1  16  -4    3.76    0.23
  -1  16   4    3.74    0.23
   0 -16  -4    3.82    0.25
   0 -16  -4    3.73    0.19
   0 -16  -4    3.67    0.23
   0 -16   4    3.99    0.21
   0  16  -4    3.79    0.18
   0  16   4    3.99    0.25
   0  16  -4    4.15    0.22
   0  16  -4    4.20    0.23
  -1 -16  -4    8.70    0.38
  -1 -16  -4    9.17    0.34
  -1 -16  -4    8.59    0.38
   1 -16   4    8.97    0.31
  -1  16  -4    8.77    0.36
   1  16   4    8.33    0.37
  -1  16  -4    9.15    0.36
  -1  16  -4    9.04    0.30
  -2 -16  -4   17.16    0.56
  -2 -16  -4   16.35    0.57
   2 -16   4   16.30    0.56
  -2 -16  -4   16.06    0.59
  -2  16  -4   16.40    0.57
   2  16   4   16.97    0.58
   3 -16   4    1.75    0.24
  -3 -16  -4    1.24    0.23
  -3 -16  -4    1.13    0.22
  -3 -16  -4    1.23    0.21
  -3  16  -4    1.22    0.22
   3  16   4    1.34    0.22
  -3 -17   4    6.42    0.37
   3 -17  -4    6.90    0.39
   3  17  -4    6.39    0.39
   2 -17  -4    0.73    0.15
   2 -17  -4    0.77    0.18
  -2 -17   4    0.90    0.15
  -2 -17   4    1.01    0.16
  -2  17   4    0.51    0.13
   2  17  -4    0.99    0.18
   2  17  -4    0.80    0.14
   1 -17  -4    1.51    0.19
  -1 -17   4    1.19    0.17
   1 -17  -4    1.48    0.21
  -1 -17   4    1.22    0.14
   1  17  -4    1.36    0.15
  -1  17   4    1.32    0.18
   0 -17  -4   18.14    0.51
   0 -17   4   18.04    0.53
   0 -17  -4   16.86    0.57
   0 -17  -4   17.86    0.59
   0  17  -4   18.87    0.50
   0  17   4   17.99    0.57
   0  17  -4   18.04    0.56
   0  17  -4   17.54    0.54
  -1 -17  -4    0.58    0.12
  -1 -17  -4    0.42    0.13
  -1 -17  -4    0.94    0.17
  -1  17  -4    0.61    0.13
  -1  17  -4    0.62    0.14
   1  17   4    0.58    0.15
  -2 -17  -4    9.36    0.44
   2 -17   4    9.24    0.40
  -2 -17  -4    8.55    0.40
  -2 -17  -4    8.64    0.38
   2  17   4    8.87    0.41
  -2  17  -4    8.65    0.40
  -3 -17  -4    5.96    0.40
  -3 -17  -4    6.53    0.38
   3 -17   4    6.67    0.39
  -3 -17  -4    6.79    0.38
   3  17   4    6.70    0.41
  -3  17  -4    6.53    0.39
   3 -18  -4   12.80    0.54
  -3 -18   4   12.85    0.52
   3  18  -4   12.92    0.54
  -2 -18   4   37.90    0.99
  -2 -18   4   36.84    1.03
   2 -18  -4   37.24    0.99
   2 -18  -4   36.89    1.05
   2  18  -4   34.85    1.02
  -2  18   4   36.06    1.00
  -1 -18   4    9.76    0.38
  -1 -18   4    9.28    0.36
   1 -18  -4    9.45    0.39
   1 -18  -4    9.56    0.42
  -1 -18   4    9.71    0.35
   1  18  -4   10.26    0.35
  -1  18   4    9.52    0.39
   0 -18  -4    3.03    0.24
   0 -18   4    2.37    0.19
   0 -18  -4    2.56    0.17
   0 -18  -4    2.77    0.24
   0  18   4    2.88    0.24
   0  18  -4    2.71    0.20
   0  18  -4    2.93    0.21
  -1 -18  -4   43.56    1.19
  -1 -18  -4   45.02    1.13
  -1 -18  -4   43.75    1.20
  -1  18  -4   44.45    1.17
  -1  18  -4   43.64    1.17
   1  18   4   45.13    1.19
  -2 -18  -4   10.64    0.49
   2 -18   4    9.94    0.44
  -2 -18  -4   11.14    0.44
  -2 -18  -4   10.92    0.46
   2  18   4   10.61    0.46
  -2  18  -4   10.60    0.46
  -3 -18  -4    0.22    0.17
   3 -18   4   -0.06    0.16
  -3 -18  -4   -0.02    0.19
  -3 -18  -4   -0.03    0.16
  -3  18  -4   -0.11    0.16
   3  18   4    0.04    0.16
   3 -19  -4    2.10    0.30
  -3 -19   4    1.86    0.25
   2 -19  -4    1.92    0.22
  -2 -19   4    1.78    0.22
   2 -19  -4    1.94    0.26
  -2  19   4    1.63    0.23
  -1 -19   4    0.17    0.10
   1 -19  -4    0.13    0.13
  -1 -19   4    0.14    0.11
   1 -19  -4    0.07    0.13
  -1 -19   4   -0.02    0.11
  -1  19   4    0.12    0.12
   1  19  -4    0.13    0.10
   0 -19  -4    3.04    0.25
   0 -19   4    2.84    0.20
   0 -19   4    2.80    0.17
   0 -19  -4    2.72    0.23
   0  19  -4    3.10    0.22
   0  19   4    2.71    0.24
  -1 -19  -4    1.83    0.23
  -1 -19  -4    1.73    0.23
  -1 -19  -4    1.47    0.18
   1  19   4    1.30    0.20
  -1  19  -4    1.56    0.20
  -1  19  -4    1.60    0.20
  -2 -19  -4    0.06    0.17
  -2 -19  -4    0.39    0.16
  -2 -19  -4    0.24    0.14
  -2  19  -4    0.07    0.15
   2  19   4    0.19    0.16
  -3 -19  -4    1.36    0.23
  -3 -19  -4    1.11    0.24
  -3 -19  -4    1.32    0.23
   3 -19   4    1.24    0.23
   3  19   4    1.14    0.22
  -3  19  -4    1.12    0.22
  -3 -20   4    7.80    0.41
   3 -20  -4    7.21    0.44
  -3 -20   4    7.25    0.44
   2 -20  -4   14.38    0.52
  -2 -20   4   14.73    0.52
  -2 -20   4   14.56    0.56
   2 -20  -4   15.15    0.59
  -2  20   4   15.26    0.54
   1 -20  -4    1.77    0.23
  -1 -20   4    1.74    0.21
  -1 -20   4    2.01    0.22
  -1 -20   4    1.99    0.18
   1 -20  -4    1.65    0.22
   1  20  -4    1.83    0.19
  -1  20   4    1.61    0.21
   0 -20   4    5.64    0.31
   0 -20  -4    5.39    0.33
   0 -20  -4    4.97    0.32
   0 -20   4    5.82    0.28
   0  20  -4    5.42    0.29
   0  20   4    5.94    0.32
  -1 -20  -4   16.09    0.51
  -1 -20  -4   16.28    0.60
  -1 -20  -4   15.28    0.59
  -1  20  -4   17.11    0.58
  -1  20  -4   15.81    0.56
   1  20   4   17.48    0.59
  -2 -20  -4   12.55    0.48
  -2 -20  -4   12.22    0.53
  -2 -20  -4   13.01    0.53
  -2  20  -4   13.20    0.52
   2  20   4   12.66    0.53
  -3 -20  -4   -0.20    0.18
  -3 -20  -4    0.16    0.17
  -3 -20  -4    0.40    0.19
   3 -20   4   -0.07    0.18
  -3  20  -4    0.26    0.19
   3  20   4    0.05    0.18
  -3 -21   4    4.00    0.38
  -3 -21   4    4.60    0.36
   3 -21  -4    4.08    0.37
  -2 -21   4    3.16    0.26
  -2 -21   4    3.34    0.30
   2 -21  -4    3.23    0.27
   2 -21  -4    3.15    0.30
  -2  21   4    2.89    0.28
   1 -21  -4   18.04    0.64
   1 -21  -4   17.72    0.61
  -1 -21   4   17.19    0.58
  -1 -21   4   16.86    0.53
  -1 -21   4   17.91    0.60
  -1  21   4   17.81    0.61
   1  21  -4   18.01    0.56
   0 -21  -4    1.30    0.21
   0 -21   4    1.20    0.17
   0 -21  -4    0.68    0.17
   0 -21   4    1.48    0.19
   0  21  -4    0.99    0.16
   0  21   4    0.88    0.17
  -1 -21  -4    0.11    0.11
  -1 -21  -4    0.13    0.15
  -1 -21  -4    0.12    0.16
  -1  21  -4    0.09    0.14
  -1  21  -4   -0.08    0.13
   1  21   4    0.10    0.15
  -2 -21  -4    8.13    0.39
  -2 -21  -4    9.09    0.47
  -2 -21  -4    8.55    0.45
   2  21   4    7.83    0.42
  -2  21  -4    8.43    0.43
  -3 -21  -4    8.06    0.43
  -3 -21  -4    8.27    0.49
  -3 -21  -4    7.85    0.46
   3 -21   4    8.06    0.45
   3  21   4    7.95    0.44
  -3  21  -4    8.40    0.47
   3 -22  -4    2.61    0.34
  -3 -22   4    2.18    0.31
  -3 -22   4    2.31    0.33
   2 -22  -4    1.48    0.24
  -2 -22   4    1.02    0.20
   2 -22  -4    1.22    0.20
  -2 -22   4    0.95    0.18
  -2  22   4    0.75    0.18
   1 -22  -4    4.47    0.33
  -1 -22   4    4.97    0.31
   1 -22  -4    3.74    0.30
  -1 -22   4    4.43    0.30
  -1 -22   4    4.41    0.25
   1  22  -4    4.01    0.26
  -1  22   4    4.77    0.31
   0 -22  -4    1.10    0.19
   0 -22   4    1.31    0.18
   0 -22  -4    1.69    0.25
   0 -22   4    1.12    0.19
   0  22   4    1.09    0.19
   0  22  -4    1.63    0.22
  -1 -22  -4    6.63    0.39
  -1 -22  -4    7.55    0.40
  -1  22  -4    7.79    0.38
   1  22   4    7.17    0.39
  -1  22  -4    7.05    0.38
  -2 -22  -4    3.19    0.35
  -2 -22  -4    3.38    0.28
  -2 -22  -4    3.18    0.33
  -2  22  -4    3.59    0.32
   2  22   4    3.39    0.32
  -2  22  -4    3.25    0.31
  -3 -23   4    2.36    0.30
   3 -23  -4    2.38    0.34
  -3 -23   4    2.08    0.30
   2 -23  -4    0.75    0.21
   2 -23  -4    0.40    0.17
  -2 -23   4    0.48    0.16
  -2 -23   4    0.41    0.19
  -2  23   4    0.35    0.17
   1 -23  -4   16.34    0.59
  -1 -23   4   15.61    0.56
  -1 -23   4   16.15    0.58
   1 -23  -4   15.83    0.62
  -1  23   4   16.66    0.59
   1  23  -4   15.64    0.53
   0 -23  -4   36.39    1.07
   0 -23   4   35.85    0.98
   0 -23  -4   35.11    1.04
   0 -23   4   37.57    1.03
   0  23   4   34.03    1.02
   0  23  -4   35.60    1.00
  -1 -23  -4    2.05    0.30
  -1 -23  -4    1.81    0.25
   1  23   4    1.87    0.27
  -1  23  -4    1.51    0.22
  -2 -23  -4    3.49    0.29
  -2 -23  -4    3.11    0.36
  -2 -23  -4    3.81    0.34
  -2  23  -4    2.88    0.32
  -2  23  -4    4.46    0.34
   2  23   4    3.83    0.34
  -2 -24   4    3.02    0.32
  -2 -24   4    3.93    0.30
   2 -24  -4    3.83    0.36
   2 -24  -4    3.84    0.32
  -2  24   4    2.90    0.30
  -1 -24   4    5.69    0.35
  -1 -24   4    4.85    0.33
   1 -24  -4    4.05    0.33
   1 -24  -4    5.14    0.38
   1  24  -4    4.81    0.30
  -1  24   4    4.15    0.33
   0 -24   4    1.88    0.26
   0 -24   4    2.03    0.23
   0 -24  -4    1.18    0.21
   0 -24  -4    1.03    0.22
   0  24   4    1.48    0.22
   0  24  -4    1.12    0.19
  -1 -24  -4    0.36    0.19
  -1 -24  -4    0.52    0.20
   1 -24   4    0.70    0.20
   1  24   4    0.46    0.17
  -1  24  -4    0.58    0.18
  -2 -24  -4    1.73    0.27
  -2 -24  -4    1.85    0.30
  -2  24  -4    2.12    0.30
  -2  24  -4    1.57    0.25
   2  24   4    1.84    0.26
  -2 -25   4    0.86    0.23
   2 -25  -4    0.45    0.21
   2 -25  -4    0.50    0.20
  -2  25   4    0.43    0.19
   1 -25  -4    6.82    0.40
  -1 -25   4    7.80    0.39
  -1 -25   4    6.14    0.37
   1 -25  -4    6.22    0.43
  -1  25   4    6.99    0.40
   1  25  -4    6.95    0.35
   0 -25  -4   14.91    0.58
   0 -25  -4   12.91    0.57
   0 -25   4   13.25    0.50
   0 -25   4   12.90    0.54
   0  25   4   12.75    0.54
   0  25  -4   12.63    0.51
  -1 -25  -4    0.79    0.22
  -1 -25  -4    0.37    0.21
   1 -25   4    0.69    0.20
   1  25   4    0.40    0.19
  -1  25  -4    0.37    0.17
  -2 -25  -4    7.58    0.48
  -2 -25  -4    8.21    0.51
  -2  25  -4    8.28    0.46
  -2  25  -4    8.74    0.47
   2  25   4    8.13    0.47
  -2 -26   4   13.52    0.59
   2 -26  -4   12.89    0.60
   2 -26  -4   11.98    0.56
  -2  26   4   11.86    0.55
  -1 -26   4    3.24    0.30
  -1 -26   4    3.26    0.30
   1 -26  -4    2.42    0.34
   1 -26  -4    3.20    0.33
   1  26  -4    2.94    0.27
  -1  26   4    2.63    0.31
   0 -26  -4    1.85    0.28
   0 -26   4    2.10    0.25
   0 -26   4    2.35    0.30
   0 -26  -4    2.13    0.32
   0  26  -4    2.08    0.26
   0  26   4    1.96    0.27
  -1 -26  -4   15.70    0.65
   1 -26   4   16.37    0.64
  -1 -26  -4   16.27    0.66
   1  26   4   15.20    0.62
  -1  26  -4   15.96    0.62
  -2 -26  -4    4.88    0.40
  -2 -26  -4    5.18    0.44
   2  26   4    4.81    0.38
  -2  26  -4    5.04    0.39
  -2 -27   4    0.08    0.20
   2 -27  -4    0.14    0.21
   2 -27  -4    0.10    0.18
  -2  27   4   -0.06    0.18
  -1 -27   4    0.80    0.21
  -1 -27   4    1.04    0.22
   1 -27  -4    1.17    0.25
   1 -27  -4    1.18    0.25
   1  27  -4    1.13    0.20
  -1  27   4    1.26    0.23
   0 -27  -4    1.05    0.25
   0 -27   4    1.24    0.21
   0 -27  -4    0.79    0.23
   0 -27   4    1.97    0.27
   0  27  -4    1.00    0.21
   0  27   4    1.72    0.25
  -1 -27  -4    0.41    0.23
   1 -27   4    0.01    0.19
  -1 -27  -4    0.21    0.21
  -1  27  -4   -0.07    0.17
   1  27   4    0.23    0.18
  -1 -28   4    1.72    0.26
   1 -28  -4    2.42    0.34
  -1 -28   4    2.20    0.29
   1 -28  -4    2.17    0.33
   1  28  -4    2.24    0.27
  -1  28   4    2.05    0.28
   0 -28  -4    1.42    0.28
   0 -28   4    1.54    0.22
   0 -28   4    1.34    0.26
   0 -28  -4    1.75    0.29
   0  28   4    0.98    0.23
   0  28  -4    0.95    0.21
  -1 -28  -4    9.16    0.53
   1 -28   4   10.10    0.53
  -1 -28  -4    9.82    0.54
  -1  28  -4   10.02    0.51
   1  28   4   10.18    0.51
  -1 -29   4    0.09    0.18
   1 -29  -4    0.25    0.21
   1 -29  -4    0.47    0.23
  -1 -29   4    0.23    0.19
  -1  29   4    0.18    0.19
   1  29  -4    0.08    0.16
   0 -29  -4    0.03    0.20
   0 -29   4    0.07    0.20
   0 -29  -4    0.07    0.22
   0  29   4    0.16    0.19
   0  29  -4    0.01    0.17
   4   0  -5    0.21    0.15
  -4   0   5    0.08    0.16
  -3   0   5    0.10    0.12
   3   0  -5    0.11    0.12
  -2   0   5   -0.03    0.08
   2   0  -5   -0.03    0.08
   1   0  -5   -0.05    0.07
   1   0  -5   -0.04    0.04
  -1   0   5   -0.08    0.04
   1   0  -5    0.02    0.07
   0   0  -5   -0.08    0.06
   0   0  -5   -0.13    0.06
   0   0   5   -0.12    0.05
   0   0  -5    0.05    0.07
  -1   0  -5   -0.14    0.07
  -1   0  -5   -0.01    0.05
  -1   0  -5   -0.01    0.07
   1   0   5    0.21    0.08
   2   0   5    0.07    0.10
  -2   0  -5    0.16    0.11
  -2   0  -5    0.11    0.11
  -3   0  -5   -0.03    0.13
  -3   0  -5    0.04    0.13
   3   0   5   -0.06    0.12
  -4   0  -5   -0.22    0.15
   4   0   5    0.03    0.16
  -4   0  -5    0.01    0.17
   4  -1  -5    9.48    0.43
  -4  -1   5    9.29    0.45
  -4   1   5    8.81    0.44
   4   1  -5    9.72    0.45
   3  -1  -5    4.59    0.27
  -3  -1   5    4.57    0.28
  -3   1   5    4.44    0.27
   3   1  -5    4.34    0.27
   2  -1  -5    5.63    0.26
  -2  -1   5    4.22    0.23
  -2   1   5    4.98    0.24
   2   1  -5    5.52    0.25
   1  -1  -5   60.73    1.48
   1  -1  -5   62.56    1.42
  -1  -1   5   61.30    1.41
   1  -1  -5   60.68    1.48
  -1   1   5   61.07    1.42
   1   1  -5   61.74    1.48
   1   1  -5   63.06    1.41
   1   1  -5   63.71    1.49
   0  -1   5   94.20    2.11
   0  -1  -5   88.47    2.11
   0  -1  -5   92.10    2.11
   0  -1  -5   92.37    2.15
   0   1  -5   93.83    2.11
   0   1   5   89.45    2.11
   0   1  -5   92.76    2.10
   0   1  -5   89.74    2.14
  -1  -1  -5    0.95    0.13
   1  -1   5    0.82    0.11
  -1  -1  -5    0.86    0.12
  -1  -1  -5    0.74    0.09
  -1   1  -5    0.77    0.08
   1   1   5    1.02    0.13
  -1   1  -5    0.86    0.13
  -1   1  -5    0.66    0.11
   2  -1   5   21.27    0.66
  -2  -1  -5   23.79    0.69
  -2  -1  -5   24.53    0.69
  -2   1  -5   22.61    0.68
  -2   1  -5   22.72    0.69
   2   1   5   23.96    0.68
  -3  -1  -5   11.40    0.45
  -3  -1  -5   11.17    0.46
   3  -1   5   11.62    0.45
   3   1   5   11.43    0.46
  -3   1  -5   11.08    0.45
  -3   1  -5   10.49    0.45
  -4  -1  -5    0.44    0.18
   4  -1   5    0.63    0.20
  -4  -1  -5    0.63    0.21
  -4   1  -5    0.30    0.19
  -4   1  -5    0.44    0.20
   4   1   5    0.20    0.18
  -4  -2   5    0.63    0.19
   4  -2  -5    0.22    0.16
  -4   2   5    0.16    0.16
   4   2  -5    0.38    0.17
  -3  -2   5    0.35    0.14
   3  -2  -5    0.15    0.13
   3   2  -5    0.52    0.15
  -3   2   5    0.44    0.13
  -2  -2   5    3.22    0.20
   2  -2  -5    3.72    0.22
  -2   2   5    3.57    0.20
   2   2  -5    3.37    0.21
   1  -2  -5    0.22    0.08
   1  -2  -5    0.14    0.05
   1  -2  -5    0.08    0.08
  -1  -2   5    0.10    0.05
   1   2  -5    0.15    0.08
   1   2  -5    0.09    0.05
   1   2  -5    0.24    0.08
  -1   2   5    0.09    0.05
   0  -2   5   14.52    0.41
   0  -2  -5   15.02    0.45
   0  -2  -5   14.66    0.42
   0  -2  -5   14.62    0.42
   0   2   5   15.00    0.42
   0   2  -5   14.32    0.41
   0   2  -5   16.41    0.42
   0   2  -5   14.36    0.45
  -1  -2  -5   54.04    1.37
   1  -2   5   58.26    1.37
  -1  -2  -5   56.81    1.32
  -1  -2  -5   56.90    1.39
  -1   2  -5   57.18    1.29
   1   2   5   53.86    1.37
  -1   2  -5   57.14    1.37
  -1   2  -5   56.29    1.39
  -2  -2  -5    0.70    0.10
   2  -2   5    0.65    0.13
  -2  -2  -5    0.77    0.14
  -2  -2  -5    0.64    0.13
  -2   2  -5    0.72    0.15
  -2   2  -5    0.66    0.13
   2   2   5    0.50    0.12
  -3  -2  -5    0.92    0.17
  -3  -2  -5    0.64    0.17
   3  -2   5    1.12    0.18
  -3   2  -5    0.69    0.17
   3   2   5    0.81    0.17
  -3   2  -5    0.99    0.19
  -4  -2  -5    2.77    0.31
   4  -2   5    3.02    0.32
  -4  -2  -5    2.79    0.32
  -4   2  -5    2.83    0.32
  -4   2  -5    2.37    0.32
   4   2   5    3.24    0.32
  -4  -3   5    5.72    0.37
   4  -3  -5    5.76    0.36
  -4   3   5    5.94    0.36
   4   3  -5    6.48    0.38
  -3  -3   5    0.45    0.14
   3  -3  -5    0.62    0.14
   3   3  -5    0.35    0.14
  -3   3   5    0.60    0.14
   2  -3  -5    1.55    0.17
  -2  -3   5    1.87    0.17
   2  -3  -5    2.04    0.09
   2   3  -5    1.74    0.17
  -2   3   5    1.86    0.15
  -2   3   5    1.81    0.08
  -1  -3   5   29.16    0.68
   1  -3  -5   28.15    0.75
   1  -3  -5   28.22    0.75
   1   3  -5   28.47    0.68
  -1   3   5   28.52    0.70
   0  -3  -5    0.16    0.09
   0  -3   5    0.01    0.05
   0  -3  -5   -0.01    0.06
   0  -3  -5    0.07    0.07
   0   3  -5    0.09    0.06
   0   3  -5    0.10    0.07
   0   3   5    0.13    0.07
   0   3  -5    0.13    0.06
  -1  -3  -5    1.29    0.11
  -1  -3  -5    1.24    0.15
  -1  -3  -5    1.38    0.15
   1  -3   5    1.29    0.14
  -1   3  -5    1.33    0.08
  -1   3  -5    1.29    0.14
   1   3   5    1.13    0.14
  -1   3  -5    1.13    0.15
   2  -3   5   20.76    0.64
  -2  -3  -5   21.83    0.66
  -2  -3  -5   22.26    0.66
  -2  -3  -5   22.62    0.58
   2   3   5   21.66    0.65
  -2   3  -5   22.47    0.66
  -2   3  -5   22.08    0.66
  -3  -3  -5    8.90    0.40
  -3  -3  -5    8.12    0.40
   3  -3   5    8.93    0.40
  -3   3  -5    9.08    0.40
   3   3   5    8.33    0.39
  -3   3  -5    9.02    0.41
  -4  -3  -5    0.20    0.18
  -4  -3  -5    0.34    0.18
   4  -3   5    0.37    0.19
   4   3   5    0.35    0.20
  -4   3  -5    0.36    0.18
  -4   3  -5    0.47    0.20
   4  -4  -5    1.61    0.22
  -4  -4   5    1.07    0.22
   4   4  -5    1.24    0.23
  -4   4   5    1.06    0.20
   3  -4  -5   18.08    0.59
  -3  -4   5   18.04    0.59
   3   4  -5   17.97    0.59
  -3   4   5   17.90    0.56
  -2  -4   5   19.23    0.58
   2  -4  -5   20.73    0.49
   2  -4  -5   19.68    0.59
  -2   4   5   19.52    0.57
  -2   4   5   20.16    0.49
   2   4  -5   20.66    0.59
   1  -4  -5    1.62    0.16
   1  -4  -5    1.49    0.14
  -1  -4   5    1.56    0.09
   1   4  -5    1.71    0.09
   1   4  -5    1.95    0.14
  -1   4   5    1.69    0.11
   1   4  -5    1.57    0.14
   0  -4   5   63.01    1.44
   0  -4  -5   60.37    1.48
   0  -4  -5   64.03    1.46
   0  -4  -5   60.98    1.46
   0   4  -5   60.68    1.44
   0   4   5   62.15    1.46
   0   4  -5   60.26    1.43
   0   4  -5   59.60    1.47
   1  -4   5   24.34    0.67
  -1  -4  -5   24.19    0.69
  -1  -4  -5   24.67    0.69
  -1  -4  -5   24.87    0.64
  -1   4  -5   24.71    0.68
  -1   4  -5   25.49    0.58
  -1   4  -5   24.00    0.69
  -2  -4  -5    5.00    0.27
  -2  -4  -5    5.08    0.28
  -2  -4  -5    4.90    0.21
   2  -4   5    4.72    0.26
  -2   4  -5    4.86    0.27
   2   4   5    4.91    0.27
  -2   4  -5    4.68    0.27
  -3  -4  -5   17.63    0.62
   3  -4   5   18.01    0.61
  -3  -4  -5   17.34    0.61
  -3   4  -5   18.87    0.62
   3   4   5   18.05    0.62
  -3   4  -5   17.70    0.61
  -4  -4  -5    7.91    0.46
  -4  -4  -5    8.07    0.43
   4  -4   5    7.65    0.43
  -4   4  -5    8.33    0.45
  -4   4  -5    7.23    0.42
   4   4   5    7.80    0.43
   4  -5  -5    1.20    0.21
  -4  -5   5    1.47    0.25
  -4   5   5    1.49    0.21
   4   5  -5    1.39    0.23
   3  -5  -5    0.70    0.16
  -3  -5   5    0.50    0.16
   3   5  -5    0.74    0.16
  -3   5   5    0.68    0.14
  -2  -5   5    0.42    0.12
   2  -5  -5    0.36    0.12
   2  -5  -5    0.38    0.06
   2   5  -5    0.44    0.12
  -2   5   5    0.30    0.06
  -2   5   5    0.45    0.10
   1  -5  -5    5.78    0.25
   1  -5  -5    6.36    0.26
  -1  -5   5    6.18    0.19
   1   5  -5    6.21    0.25
  -1   5   5    6.18    0.22
   1   5  -5    6.31    0.20
   1   5  -5    6.17    0.25
   0  -5  -5    0.22    0.08
   0  -5  -5    0.19    0.09
   0  -5   5    0.11    0.06
   0  -5  -5    0.34    0.09
   0   5  -5    0.29    0.09
   0   5  -5    0.14    0.06
   0   5   5    0.32    0.08
   0   5  -5    0.19    0.06
  -1  -5  -5    1.76    0.14
  -1  -5  -5    1.68    0.16
  -1  -5  -5    1.79    0.17
   1  -5   5    1.75    0.15
  -1   5  -5    1.89    0.08
  -1   5  -5    1.92    0.17
   1   5   5    2.04    0.17
  -1   5  -5    1.96    0.15
  -2  -5  -5    4.07    0.20
   2  -5   5    3.75    0.24
  -2  -5  -5    3.64    0.24
  -2  -5  -5    4.02    0.25
   2   5   5    3.87    0.25
  -2   5  -5    4.32    0.25
  -2   5  -5    3.64    0.24
   3  -5   5    0.12    0.13
  -3  -5  -5   -0.14    0.13
  -3  -5  -5    0.09    0.15
  -3   5  -5    0.11    0.14
   3   5   5    0.01    0.13
  -3   5  -5   -0.01    0.13
  -4  -5  -5    0.40    0.21
  -4  -5  -5    0.37    0.18
   4  -5   5    0.52    0.18
   4   5   5    0.44    0.19
  -4   5  -5    0.32    0.17
  -4   5  -5    0.19    0.18
  -4  -6   5    2.87    0.31
   4  -6  -5    3.49    0.31
  -4   6   5    3.10    0.28
   4   6  -5    3.41    0.32
  -3  -6   5   11.68    0.46
   3  -6  -5   12.38    0.46
   3   6  -5   11.22    0.45
  -3   6   5   12.25    0.42
  -2  -6   5   17.62    0.55
   2  -6  -5   18.71    0.57
  -2   6   5   18.30    0.47
  -2   6   5   18.94    0.53
   2   6  -5   18.16    0.56
   1  -6  -5    0.20    0.10
   1  -6  -5    0.31    0.07
  -1  -6   5    0.38    0.06
   1  -6  -5    0.33    0.09
   1   6  -5    0.29    0.09
  -1   6   5    0.20    0.07
   1   6  -5    0.23    0.09
   0  -6  -5   15.98    0.50
   0  -6  -5   17.04    0.49
   0  -6   5   17.17    0.46
   0  -6  -5   16.31    0.49
   0   6  -5   17.26    0.47
   0   6  -5   17.01    0.45
   0   6  -5   16.82    0.49
   0   6   5   17.24    0.49
  -1  -6  -5   44.99    1.25
   1  -6   5   40.52    1.09
  -1  -6  -5   42.43    1.11
  -1  -6  -5   44.70    1.08
  -1   6  -5   44.23    1.00
  -1   6  -5   44.30    1.11
  -1   6  -5   45.38    1.12
   1   6   5   44.45    1.11
   2  -6   5    7.17    0.32
  -2  -6  -5    6.65    0.33
  -2  -6  -5    7.04    0.32
  -2  -6  -5    6.86    0.27
  -2   6  -5    7.14    0.32
   2   6   5    6.64    0.32
  -2   6  -5    6.63    0.32
   3  -6   5    0.75    0.17
  -3  -6  -5    0.56    0.16
  -3  -6  -5    0.65    0.18
   3   6   5    0.62    0.17
  -3   6  -5    0.61    0.15
  -3   6  -5    0.50    0.16
  -4  -6  -5    8.80    0.45
   4  -6   5    8.46    0.44
  -4  -6  -5    9.15    0.49
   4   6   5    8.50    0.45
  -4   6  -5    8.92    0.45
  -4   6  -5    8.72    0.46
   4  -7  -5    6.11    0.37
  -4  -7   5    6.76    0.40
   4   7  -5    6.07    0.39
  -4   7   5    5.85    0.38
  -3  -7   5    1.37    0.19
   3  -7  -5    1.38    0.20
  -3   7   5    1.12    0.16
   3   7  -5    1.25    0.18
  -2  -7   5   10.36    0.39
   2  -7  -5   10.86    0.40
  -2   7   5   10.82    0.31
  -2   7   5   11.15    0.36
   2   7  -5   10.15    0.38
  -1  -7   5   37.03    0.88
   1  -7  -5   35.59    0.93
   1  -7  -5   38.11    0.92
   1  -7  -5   39.62    0.97
   1   7  -5   37.27    0.95
  -1   7   5   35.32    0.91
   1   7  -5   37.57    0.94
   0  -7   5   10.23    0.32
   0  -7  -5   10.12    0.34
   0  -7  -5   10.24    0.35
   0  -7  -5   10.13    0.35
   0   7  -5    9.95    0.34
   0   7  -5   10.18    0.32
   0   7   5   10.82    0.35
   0   7  -5    9.73    0.30
   1  -7   5    0.87    0.12
  -1  -7  -5    0.88    0.13
  -1  -7  -5    1.17    0.15
  -1   7  -5    0.73    0.12
   1   7   5    0.79    0.13
  -1   7  -5    0.87    0.12
  -1   7  -5    0.72    0.06
  -2  -7  -5   13.51    0.47
  -2  -7  -5   13.70    0.48
   2  -7   5   13.89    0.47
  -2  -7  -5   13.90    0.43
  -2   7  -5   14.04    0.48
  -2   7  -5   13.07    0.47
   2   7   5   13.18    0.48
  -3  -7  -5   15.32    0.58
   3  -7   5   16.01    0.57
  -3  -7  -5   16.39    0.59
  -3   7  -5   16.60    0.57
   3   7   5   15.82    0.57
  -3   7  -5   15.61    0.57
   4  -7   5    0.75    0.20
  -4  -7  -5    0.74    0.21
  -4  -7  -5    0.53    0.22
   4   7   5    0.67    0.21
  -4   7  -5    0.57    0.20
  -4   7  -5    0.76    0.21
  -4  -8   5    0.18    0.18
   4  -8  -5    0.63    0.18
   4   8  -5    0.37    0.19
   3  -8  -5    5.26    0.31
  -3  -8   5    5.10    0.31
   3   8  -5    5.40    0.32
  -3   8   5    5.48    0.28
  -2  -8   5    2.47    0.19
   2  -8  -5    2.84    0.22
   2  -8  -5    2.47    0.14
  -2   8   5    2.66    0.17
   2   8  -5    2.23    0.19
  -2   8   5    2.36    0.14
   1  -8  -5    0.16    0.08
   1  -8  -5    0.13    0.10
  -1  -8   5    0.07    0.05
   1  -8  -5    0.15    0.08
   1   8  -5    0.20    0.09
   1   8  -5    0.00    0.08
  -1   8   5    0.10    0.07
   0  -8  -5   20.53    0.59
   0  -8  -5   19.64    0.58
   0  -8   5   21.89    0.56
   0  -8  -5   21.46    0.60
   0   8   5   20.11    0.58
   0   8  -5   20.92    0.58
   0   8  -5   21.14    0.54
   0   8  -5   20.92    0.57
  -1  -8  -5   23.23    0.66
  -1  -8  -5   23.55    0.65
   1  -8   5   22.50    0.65
  -1   8  -5   23.68    0.65
   1   8   5   22.95    0.67
  -1   8  -5   24.03    0.66
  -2  -8  -5    0.40    0.11
   2  -8   5    0.29    0.12
  -2  -8  -5    0.22    0.14
  -2  -8  -5   -0.01    0.11
   2   8   5    0.33    0.14
  -2   8  -5    0.37    0.12
  -2   8  -5    0.29    0.11
  -3  -8  -5    2.54    0.28
   3  -8   5    2.11    0.25
  -3  -8  -5    2.82    0.28
  -3   8  -5    2.82    0.27
  -3   8  -5    2.79    0.26
   3   8   5    2.72    0.27
  -4  -8  -5    1.95    0.30
   4  -8   5    2.04    0.29
  -4  -8  -5    1.80    0.26
   4   8   5    1.96    0.27
  -4   8  -5    1.65    0.26
  -4   8  -5    2.35    0.29
  -4  -9   5   11.29    0.52
   4  -9  -5   10.33    0.48
   4   9  -5   11.44    0.51
  -3  -9   5    0.44    0.15
   3  -9  -5    0.37    0.15
  -3   9   5    0.34    0.12
   3   9  -5    0.25    0.15
   2  -9  -5   26.12    0.67
  -2  -9   5   25.64    0.73
   2  -9  -5   24.70    0.75
  -2   9   5   26.20    0.68
   2   9  -5   26.09    0.74
  -2   9   5   25.58    0.66
   1  -9  -5   99.81    2.33
   1  -9  -5   93.46    2.28
  -1  -9   5  101.08    2.24
   1  -9  -5   99.91    2.28
  -1   9   5   94.62    2.28
   1   9  -5   99.28    2.25
   1   9  -5  100.46    2.30
   1   9  -5   98.77    2.30
   0  -9  -5   38.71    1.01
   0  -9   5   39.46    0.98
   0  -9  -5   39.96    1.03
   0  -9  -5   39.78    1.01
   0   9  -5   40.08    0.96
   0   9  -5   39.50    1.00
   0   9   5   41.18    1.01
   0   9  -5   39.38    0.99
  -1  -9  -5   31.76    0.85
   1  -9   5   31.75    0.74
   1  -9   5   31.14    0.84
  -1  -9  -5   31.72    0.84
   1   9   5   30.36    0.86
  -1   9  -5   32.85    0.85
  -1   9  -5   32.66    0.84
   2  -9   5   71.03    1.71
  -2  -9  -5   69.04    1.73
  -2  -9  -5   70.92    1.68
  -2  -9  -5   69.65    1.72
  -2   9  -5   68.93    1.72
   2   9   5   65.53    1.72
  -2   9  -5   68.64    1.70
  -3  -9  -5    8.85    0.44
  -3  -9  -5    9.62    0.44
   3  -9   5    9.87    0.43
  -3   9  -5    8.80    0.41
  -3   9  -5    9.22    0.42
   3   9   5    9.39    0.43
   4 -10  -5    1.38    0.23
  -4 -10   5    2.04    0.28
   4  10  -5    1.14    0.23
   3 -10  -5    3.85    0.30
  -3 -10   5    3.73    0.29
   3  10  -5    4.58    0.31
  -3  10   5    4.25    0.27
   2 -10  -5    2.29    0.22
  -2 -10   5    2.29    0.20
   2 -10  -5    2.24    0.16
   2  10  -5    1.76    0.20
  -2  10   5    2.16    0.16
  -2  10   5    2.42    0.16
   1 -10  -5    1.15    0.17
   1 -10  -5    1.08    0.13
   1 -10  -5    1.19    0.14
   1  10  -5    1.17    0.14
   1  10  -5    0.93    0.10
   1  10  -5    0.86    0.12
   1  10  -5    1.02    0.10
  -1  10   5    1.05    0.13
   0 -10   5    9.08    0.30
   0 -10  -5    8.43    0.32
   0 -10  -5    8.57    0.32
   0 -10  -5    7.99    0.33
   0  10  -5    8.60    0.30
   0  10  -5    8.54    0.30
   0  10   5    8.00    0.31
   0  10  -5    8.61    0.28
  -1 -10  -5    6.25    0.28
  -1 -10  -5    6.26    0.28
   1 -10   5    6.55    0.28
   1 -10   5    6.27    0.19
  -1  10  -5    6.63    0.28
   1  10   5    6.14    0.29
  -1  10  -5    6.48    0.27
  -2 -10  -5    3.53    0.23
  -2 -10  -5    3.70    0.28
  -2 -10  -5    3.80    0.27
   2 -10   5    3.74    0.26
  -2  10  -5    3.61    0.24
  -2  10  -5    3.90    0.24
   2  10   5    3.33    0.26
  -3 -10  -5    0.34    0.18
  -3 -10  -5    0.18    0.17
   3 -10   5    0.49    0.17
  -3  10  -5    0.46    0.15
  -3  10  -5    0.52    0.16
   3  10   5    0.66    0.19
   4 -11  -5    8.54    0.44
  -4 -11   5    9.22    0.48
   4  11  -5    9.94    0.48
   3 -11  -5    3.70    0.29
  -3 -11   5    3.21    0.28
   3  11  -5    3.53    0.29
   2 -11  -5    7.55    0.28
  -2 -11   5    7.20    0.32
   2 -11  -5    8.12    0.36
   2  11  -5    7.33    0.34
  -2  11   5    7.38    0.28
  -2  11   5    7.87    0.28
   1 -11  -5   28.87    0.82
   1 -11  -5   28.69    0.76
   1 -11  -5   30.13    0.78
   1  11  -5   29.78    0.75
   1  11  -5   30.42    0.79
  -1  11   5   29.40    0.78
   1  11  -5   29.87    0.74
   1  11  -5   29.38    0.78
   0 -11  -5    9.98    0.35
   0 -11  -5    9.89    0.37
   0 -11  -5   10.22    0.38
   0  11  -5   10.23    0.34
   0  11   5   10.24    0.36
   0  11  -5    9.42    0.34
   0  11  -5   10.56    0.32
  -1 -11  -5    7.82    0.33
  -1 -11  -5    8.79    0.34
   1 -11   5    7.97    0.32
   1  11   5    8.13    0.34
  -1  11  -5    8.13    0.31
  -1  11  -5    8.42    0.34
  -2 -11  -5   24.10    0.70
  -2 -11  -5   22.60    0.71
   2 -11   5   23.82    0.71
  -2 -11  -5   23.69    0.74
  -2  11  -5   24.05    0.72
   2  11   5   24.28    0.74
  -2  11  -5   24.99    0.70
  -3 -11  -5   14.99    0.58
   3 -11   5   14.91    0.57
  -3 -11  -5   16.04    0.60
  -3  11  -5   15.51    0.58
  -3  11  -5   14.40    0.54
   3  11   5   14.61    0.58
  -4 -12   5    4.05    0.37
   4 -12  -5    3.89    0.34
   4  12  -5    3.97    0.36
  -3 -12   5   13.61    0.52
   3 -12  -5   14.76    0.54
   3  12  -5   12.96    0.52
   2 -12  -5   35.29    0.95
   2 -12  -5   33.83    0.87
  -2 -12   5   32.58    0.91
  -2  12   5   32.90    0.87
  -2  12   5   34.56    0.85
   2  12  -5   31.68    0.92
   1 -12  -5    4.02    0.22
   1 -12  -5    3.87    0.19
   1 -12  -5    3.84    0.25
   1  12  -5    4.32    0.21
  -1  12   5    3.61    0.21
   1  12  -5    3.90    0.18
   1  12  -5    3.90    0.18
   1  12  -5    3.98    0.22
   0 -12  -5   16.81    0.51
   0 -12  -5   17.99    0.54
   0 -12  -5   17.79    0.55
   0  12  -5   17.39    0.50
   0  12   5   16.79    0.53
   0  12  -5   17.35    0.50
   0  12  -5   17.43    0.51
   0  12  -5   17.37    0.48
   1 -12   5   17.52    0.55
  -1 -12  -5   19.46    0.57
  -1 -12  -5   18.48    0.58
   1  12   5   18.28    0.58
  -1  12  -5   18.04    0.54
  -1  12  -5   18.45    0.57
  -2 -12  -5    4.36    0.28
   2 -12   5    3.47    0.26
  -2 -12  -5    3.48    0.29
  -2 -12  -5    3.91    0.25
  -2  12  -5    4.03    0.28
  -2  12  -5    4.21    0.25
   2  12   5    4.27    0.28
  -3 -12  -5    7.13    0.41
   3 -12   5    7.41    0.40
  -3 -12  -5    8.79    0.44
  -3  12  -5    7.85    0.41
   3  12   5    7.66    0.41
   4 -13  -5    2.86    0.34
  -4 -13   5    2.46    0.31
   4  13  -5    2.86    0.35
   3 -13  -5    0.19    0.16
  -3 -13   5    0.31    0.16
   3  13  -5    0.38    0.17
   2 -13  -5    2.91    0.19
  -2 -13   5    2.83    0.23
   2 -13  -5    2.68    0.25
  -2  13   5    2.62    0.19
   2  13  -5    3.22    0.24
   1 -13  -5    1.62    0.16
   1 -13  -5    1.52    0.13
   1 -13  -5    1.43    0.19
   1  13  -5    1.26    0.16
   1  13  -5    1.49    0.13
  -1  13   5    1.70    0.16
   1  13  -5    1.64    0.16
   0 -13  -5    0.40    0.10
   0 -13  -5    0.54    0.13
   0 -13  -5    0.46    0.13
   0  13  -5    0.43    0.10
   0  13   5    0.40    0.12
   0  13  -5    0.49    0.10
   0  13  -5    0.69    0.11
   0  13  -5    0.46    0.11
  -1 -13  -5    8.76    0.34
  -1 -13  -5    8.87    0.38
   1 -13   5    9.17    0.36
  -1 -13  -5    8.26    0.36
   1  13   5    8.88    0.37
  -1  13  -5    9.20    0.32
  -1  13  -5    8.89    0.35
  -2 -13  -5    0.13    0.13
   2 -13   5    0.09    0.13
  -2 -13  -5   -0.04    0.14
  -2 -13  -5    0.06    0.11
  -2  13  -5    0.02    0.12
  -2  13  -5   -0.15    0.10
   2  13   5    0.08    0.13
  -3 -13  -5    2.29    0.28
   3 -13   5    2.46    0.30
  -3 -13  -5    2.10    0.30
  -3  13  -5    1.98    0.25
   3  13   5    1.86    0.25
   4 -14  -5    2.76    0.33
  -4 -14   5    2.85    0.35
   4  14  -5    2.90    0.34
  -3 -14   5   25.79    0.82
   3 -14  -5   28.51    0.85
   3  14  -5   26.44    0.84
  -2 -14   5   11.00    0.42
   2 -14  -5   11.23    0.45
   2 -14  -5   11.19    0.39
  -2  14   5   10.70    0.39
   2  14  -5   11.06    0.43
   1 -14  -5    0.47    0.09
   1 -14  -5    0.33    0.11
  -1 -14   5    0.30    0.09
   1 -14  -5    0.18    0.13
  -1  14   5    0.22    0.10
   1  14  -5    0.41    0.12
   1  14  -5    0.49    0.09
   0 -14  -5   22.25    0.66
   0 -14  -5   20.05    0.64
   0 -14  -5   20.49    0.60
   0  14  -5   21.75    0.58
   0  14  -5   19.80    0.60
   0  14  -5   20.49    0.60
   0  14   5   22.18    0.64
   0  14  -5   21.75    0.59
   1 -14   5   12.82    0.45
  -1 -14  -5   13.11    0.44
  -1 -14  -5   13.03    0.47
  -1 -14  -5   13.26    0.49
   1  14   5   12.12    0.46
  -1  14  -5   12.54    0.46
  -1  14  -5   12.65    0.41
  -2 -14  -5   12.10    0.47
  -2 -14  -5   13.42    0.48
   2 -14   5   12.24    0.47
  -2 -14  -5   12.11    0.51
  -2  14  -5   12.54    0.44
  -2  14  -5   12.73    0.49
   2  14   5   12.11    0.49
   3 -14   5    6.15    0.38
  -3 -14  -5    6.29    0.39
  -3 -14  -5    6.24    0.40
   3  14   5    5.67    0.37
  -3  14  -5    6.43    0.38
  -4 -15   5    2.89    0.35
   4  15  -5    2.73    0.36
  -3 -15   5    0.15    0.16
   3 -15  -5    0.06    0.16
   3  15  -5    0.14    0.16
   2 -15  -5    1.47    0.17
   2 -15  -5    1.42    0.21
  -2 -15   5    1.46    0.20
  -2  15   5    1.36    0.18
   2  15  -5    1.18    0.19
   1 -15  -5    8.68    0.38
   1 -15  -5    7.74    0.33
  -1 -15   5    8.28    0.32
   1 -15  -5    7.77    0.28
  -1 -15   5    8.19    0.31
   1  15  -5    7.67    0.29
   1  15  -5    8.01    0.33
  -1  15   5    8.27    0.33
   0 -15  -5    0.54    0.14
   0 -15  -5    0.20    0.10
   0 -15  -5    0.33    0.13
   0  15  -5    0.38    0.11
   0  15  -5    0.37    0.10
   0  15  -5    0.33    0.11
   0  15   5    0.34    0.13
  -1 -15  -5    0.83    0.14
  -1 -15  -5    0.72    0.16
   1 -15   5    0.73    0.14
  -1 -15  -5    0.84    0.17
  -1  15  -5    0.61    0.15
   1  15   5    0.64    0.15
  -1  15  -5    0.90    0.13
  -2 -15  -5    2.65    0.29
  -2 -15  -5    3.23    0.27
   2 -15   5    2.88    0.26
  -2 -15  -5    3.03    0.26
  -2  15  -5    3.45    0.28
   2  15   5    3.42    0.29
  -3 -15  -5    4.99    0.37
  -3 -15  -5    4.21    0.36
   3 -15   5    4.57    0.35
  -3 -15  -5    4.34    0.38
   3  15   5    4.31    0.36
  -3  15  -5    3.69    0.33
   3 -16  -5    9.27    0.46
  -3 -16   5    9.15    0.44
   3  16  -5    8.86    0.44
   2 -16  -5   15.44    0.58
   2 -16  -5   15.32    0.51
  -2 -16   5   15.92    0.54
   2  16  -5   16.42    0.56
  -2  16   5   15.94    0.52
  -1 -16   5    0.71    0.13
   1 -16  -5    0.56    0.16
   1 -16  -5    0.56    0.14
  -1 -16   5    0.44    0.11
   1  16  -5    0.46    0.12
   1  16  -5    0.50    0.11
  -1  16   5    0.49    0.12
   0 -16   5   20.09    0.58
   0 -16  -5   20.21    0.65
   0 -16  -5   20.24    0.59
   0 -16  -5   21.31    0.65
   0  16  -5   21.16    0.62
   0  16  -5   20.28    0.60
   0  16  -5   20.49    0.58
   0  16   5   21.32    0.65
  -1 -16  -5   29.04    0.88
  -1 -16  -5   29.33    0.82
  -1 -16  -5   29.35    0.87
  -1  16  -5   29.30    0.85
   1  16   5   30.47    0.87
  -1  16  -5   30.81    0.79
  -2 -16  -5    0.56    0.19
  -2 -16  -5    0.54    0.16
  -2 -16  -5    0.81    0.17
   2 -16   5    0.64    0.17
   2  16   5    0.58    0.18
  -2  16  -5    0.64    0.15
  -3 -16  -5    2.46    0.30
  -3 -16  -5    3.09    0.30
  -3 -16  -5    3.04    0.34
   3 -16   5    2.59    0.31
  -3  16  -5    2.73    0.30
   3  16   5    2.84    0.32
  -3 -17   5    2.23    0.29
   3 -17  -5    2.13    0.29
   3  17  -5    2.10    0.29
   2 -17  -5    8.94    0.43
   2 -17  -5    8.85    0.36
  -2 -17   5    7.80    0.38
   2  17  -5    8.95    0.41
  -2  17   5    8.43    0.37
  -1 -17   5   39.81    1.05
  -1 -17   5   40.18    1.05
   1 -17  -5   41.39    1.09
   1 -17  -5   41.99    1.14
   1  17  -5   40.27    1.03
  -1  17   5   40.44    1.08
   1  17  -5   40.55    1.07
   0 -17  -5   18.19    0.63
   0 -17   5   18.56    0.56
   0 -17  -5   19.60    0.62
   0 -17  -5   19.55    0.56
   0  17  -5   19.56    0.55
   0  17   5   18.63    0.61
   0  17  -5   19.72    0.58
   0  17  -5   18.93    0.59
  -1 -17  -5    4.20    0.30
  -1 -17  -5    4.91    0.32
  -1 -17  -5    4.38    0.26
  -1  17  -5    4.43    0.28
  -1  17  -5    4.33    0.27
  -1  17  -5    4.22    0.24
   1  17   5    4.46    0.30
   2 -17   5   14.65    0.56
  -2 -17  -5   15.58    0.60
  -2 -17  -5   15.78    0.55
  -2 -17  -5   14.84    0.55
  -2  17  -5   15.01    0.57
   2  17   5   15.58    0.58
  -3 -17  -5    4.46    0.36
  -3 -17  -5    3.85    0.39
  -3 -17  -5    4.30    0.34
   3 -17   5    4.52    0.37
  -3  17  -5    4.64    0.36
   3  17   5    4.11    0.37
   3 -18  -5    5.61    0.40
  -3 -18   5    5.41    0.36
   3  18  -5    4.83    0.37
  -2 -18   5    1.66    0.23
   2 -18  -5    1.43    0.23
   2 -18  -5    1.52    0.21
  -2  18   5    1.44    0.19
   2  18  -5    1.52    0.22
  -1 -18   5    0.59    0.13
  -1 -18   5    0.79    0.14
   1 -18  -5    0.51    0.15
   1 -18  -5    0.95    0.19
  -1  18   5    0.63    0.14
   1  18  -5    0.75    0.13
   0 -18  -5    0.16    0.10
   0 -18  -5    0.24    0.15
   0 -18  -5   -0.03    0.13
   0 -18   5    0.17    0.10
   0  18  -5    0.03    0.11
   0  18  -5    0.23    0.09
   0  18  -5    0.18    0.11
   0  18   5    0.02    0.12
  -1 -18  -5   -0.10    0.14
  -1 -18  -5   -0.06    0.11
  -1 -18  -5    0.11    0.14
   1  18   5   -0.10    0.13
  -1  18  -5    0.09    0.12
  -1  18  -5   -0.02    0.12
   2 -18   5    0.05    0.14
  -2 -18  -5    0.29    0.16
  -2 -18  -5    0.19    0.15
  -2 -18  -5    0.13    0.19
  -2  18  -5    0.07    0.14
   2  18   5    0.10    0.17
  -3 -18  -5    2.33    0.29
  -3 -18  -5    2.63    0.34
  -3 -18  -5    2.28    0.30
   3 -18   5    2.57    0.34
   3  18   5    2.24    0.29
  -3  18  -5    2.52    0.32
   3 -19  -5    2.87    0.34
  -3 -19   5    3.02    0.30
   3  19  -5    3.09    0.33
  -2 -19   5    3.36    0.27
   2 -19  -5    3.56    0.26
   2 -19  -5    3.88    0.33
  -2  19   5    3.21    0.27
   2  19  -5    3.57    0.31
  -1 -19   5   18.64    0.59
  -1 -19   5   18.90    0.57
   1 -19  -5   18.60    0.66
  -1 -19   5   18.81    0.61
   1 -19  -5   19.08    0.63
  -1  19   5   20.31    0.63
   1  19  -5   19.91    0.58
   0 -19  -5   16.93    0.58
   0 -19   5   15.62    0.50
   0 -19  -5   15.75    0.58
   0  19   5   16.02    0.56
   0  19  -5   15.20    0.52
   0  19  -5   15.69    0.47
   0  19  -5   15.18    0.53
  -1 -19  -5    3.01    0.27
  -1 -19  -5    2.71    0.29
  -1 -19  -5    2.88    0.22
   1  19   5    2.49    0.26
  -1  19  -5    2.79    0.24
  -1  19  -5    2.58    0.26
  -2 -19  -5   18.51    0.65
   2 -19   5   17.87    0.64
  -2 -19  -5   18.33    0.62
  -2 -19  -5   16.77    0.67
   2  19   5   17.93    0.66
  -2  19  -5   17.33    0.64
  -3 -19  -5    7.19    0.42
   3 -19   5    8.41    0.46
  -3 -19  -5    7.59    0.47
  -3 -19  -5    7.23    0.43
   3  19   5    7.29    0.45
  -3  19  -5    7.39    0.45
  -3 -20   5    0.66    0.21
   3 -20  -5    0.82    0.23
   2 -20  -5    1.20    0.23
   2 -20  -5    0.65    0.17
  -2 -20   5    1.02    0.18
  -2  20   5    0.88    0.18
   1 -20  -5    3.04    0.29
  -1 -20   5    2.54    0.21
  -1 -20   5    2.14    0.21
  -1 -20   5    2.59    0.25
   1 -20  -5    2.87    0.26
  -1  20   5    2.21    0.25
   1  20  -5    2.20    0.21
   0 -20  -5    0.54    0.18
   0 -20   5    0.75    0.14
   0 -20  -5    0.82    0.18
   0  20  -5    0.65    0.14
   0  20  -5    0.61    0.15
   0  20   5    0.74    0.17
  -1 -20  -5   12.16    0.44
  -1 -20  -5   11.14    0.50
  -1 -20  -5   11.27    0.50
  -1  20  -5   12.37    0.48
  -1  20  -5   12.00    0.47
   1  20   5   10.63    0.48
  -2 -20  -5    0.06    0.16
  -2 -20  -5    0.20    0.16
   2 -20   5    0.20    0.17
  -2 -20  -5    0.03    0.19
   2  20   5    0.03    0.16
  -2  20  -5    0.18    0.17
   3 -21  -5    0.21    0.21
  -3 -21   5    0.58    0.20
  -2 -21   5   14.12    0.52
  -2 -21   5   13.88    0.55
   2 -21  -5   13.04    0.52
   2 -21  -5   12.91    0.58
  -2  21   5   14.61    0.53
   1 -21  -5   15.96    0.61
   1 -21  -5   15.64    0.58
  -1 -21   5   16.87    0.57
  -1 -21   5   17.12    0.53
  -1 -21   5   16.11    0.55
  -1  21   5   16.05    0.58
   1  21  -5   16.19    0.53
   0 -21  -5   -0.04    0.15
   0 -21   5   -0.03    0.11
   0 -21  -5    0.03    0.16
   0  21  -5   -0.01    0.12
   0  21   5    0.20    0.15
  -1 -21  -5    1.19    0.23
  -1 -21  -5    1.15    0.22
  -1  21  -5    1.11    0.18
   1  21   5    1.08    0.20
  -1  21  -5    0.96    0.19
   2 -21   5    8.15    0.43
  -2 -21  -5    8.12    0.48
  -2 -21  -5    8.22    0.41
  -2 -21  -5    8.06    0.45
   2  21   5    7.78    0.43
  -2  21  -5    7.78    0.43
  -3 -22   5    8.53    0.45
   3 -22  -5    8.48    0.50
  -3 -22   5    7.78    0.48
  -2 -22   5    3.30    0.28
   2 -22  -5    3.83    0.36
   2 -22  -5    3.14    0.29
  -2 -22   5    2.77    0.31
  -2  22   5    2.76    0.29
   1 -22  -5    0.59    0.19
  -1 -22   5    0.56    0.17
  -1 -22   5    0.39    0.15
  -1 -22   5    0.47    0.14
   1 -22  -5    0.40    0.16
  -1  22   5    0.43    0.17
   1  22  -5    0.35    0.14
   0 -22  -5   16.91    0.64
   0 -22   5   16.53    0.55
   0 -22  -5   16.66    0.61
   0 -22   5   16.97    0.59
   0  22   5   17.31    0.61
   0  22  -5   17.12    0.58
  -1 -22  -5   10.17    0.49
  -1 -22  -5    9.43    0.48
   1  22   5    9.71    0.46
  -1  22  -5    9.34    0.43
  -1  22  -5    8.89    0.44
  -2 -22  -5    8.05    0.48
   2 -22   5    6.93    0.41
  -2 -22  -5    7.72    0.40
  -2 -22  -5    8.15    0.45
   2  22   5    7.76    0.45
  -2  22  -5    8.05    0.44
   2 -23  -5    1.69    0.27
  -2 -23   5    2.23    0.25
   2 -23  -5    1.53    0.23
  -2 -23   5    1.95    0.27
  -2  23   5    1.83    0.26
  -1 -23   5    0.05    0.14
   1 -23  -5   -0.11    0.15
  -1 -23   5   -0.12    0.14
   1 -23  -5    0.03    0.16
  -1  23   5   -0.07    0.14
   1  23  -5    0.00    0.12
   0 -23  -5    0.35    0.18
   0 -23  -5    0.10    0.17
   0 -23   5    0.39    0.17
   0 -23   5    0.36    0.14
   0  23  -5    0.28    0.14
   0  23   5   -0.07    0.14
  -1 -23  -5    1.74    0.26
  -1 -23  -5    1.61    0.27
  -1  23  -5    0.98    0.19
   1  23   5    1.19    0.23
  -1  23  -5    1.81    0.24
  -2 -23  -5    1.35    0.25
   2 -23   5    1.03    0.23
  -2 -23  -5    1.24    0.25
  -2 -23  -5    1.39    0.28
  -2  23  -5    1.17    0.23
   2  23   5    1.21    0.24
  -2 -24   5   10.44    0.52
  -2 -24   5   10.25    0.46
   2 -24  -5   11.68    0.56
   2 -24  -5   11.67    0.50
  -2  24   5   11.14    0.51
  -1 -24   5    1.00    0.19
   1 -24  -5    1.30    0.26
  -1 -24   5    1.24    0.21
   1 -24  -5    1.00    0.23
   1  24  -5    0.99    0.17
  -1  24   5    1.27    0.22
   0 -24  -5    9.17    0.48
   0 -24   5    9.20    0.40
   0 -24  -5    9.96    0.49
   0 -24   5    9.28    0.44
   0  24  -5    9.69    0.42
   0  24   5    9.41    0.46
  -1 -24  -5   20.88    0.76
  -1 -24  -5   18.80    0.72
  -1  24  -5   21.52    0.73
   1  24   5   19.76    0.73
  -1  24  -5   21.81    0.72
  -2 -24  -5    2.87    0.34
   2 -24   5    2.78    0.32
  -2 -24  -5    2.73    0.38
  -2  24  -5    3.02    0.33
   2  24   5    2.52    0.33
   2 -25  -5    2.33    0.30
   2 -25  -5    2.37    0.32
  -2 -25   5    2.13    0.29
  -2  25   5    2.23    0.29
   1 -25  -5    7.43    0.43
   1 -25  -5    7.13    0.44
  -1 -25   5    7.29    0.40
  -1 -25   5    6.90    0.38
   1  25  -5    6.61    0.36
  -1  25   5    6.92    0.41
   0 -25  -5    4.82    0.37
   0 -25   5    5.43    0.41
   0 -25  -5    5.39    0.40
   0 -25   5    5.16    0.36
   0  25  -5    4.98    0.33
   0  25   5    4.78    0.36
  -1 -25  -5   -0.06    0.21
  -1 -25  -5    0.15    0.20
  -1  25  -5    0.17    0.17
   1  25   5    0.04    0.17
  -2 -25  -5    4.20    0.38
   2 -25   5    4.24    0.37
  -2 -25  -5    3.47    0.41
   2  25   5    4.11    0.38
  -2 -26   5    2.54    0.35
   2 -26  -5    2.53    0.32
   2 -26  -5    2.65    0.38
  -2  26   5    2.54    0.34
   1 -26  -5    0.14    0.19
  -1 -26   5    0.07    0.17
   1 -26  -5    0.09    0.19
  -1 -26   5    0.08    0.15
  -1  26   5   -0.01    0.17
   1  26  -5    0.17    0.15
   0 -26   5    5.44    0.38
   0 -26  -5    5.05    0.40
   0 -26  -5    5.99    0.41
   0  26   5    5.65    0.39
   0  26  -5    4.45    0.33
  -1 -26  -5    4.41    0.40
   1 -26   5    4.85    0.39
  -1 -26  -5    4.28    0.40
  -1  26  -5    4.06    0.34
   1  26   5    3.90    0.36
   1 -27  -5   10.46    0.54
   1 -27  -5   10.76    0.53
  -1 -27   5   10.76    0.51
  -1 -27   5   10.37    0.50
  -1  27   5   11.18    0.53
   1  27  -5   10.40    0.46
   0 -27  -5    4.58    0.41
   0 -27   5    5.19    0.38
   0 -27  -5    4.76    0.40
   0  27   5    5.43    0.40
   0  27  -5    5.27    0.35
   1 -27   5    2.00    0.30
  -1 -27  -5    1.53    0.28
  -1 -27  -5    1.65    0.29
  -1  27  -5    1.30    0.24
   1  27   5    1.11    0.24
  -1 -28   5    1.91    0.27
  -1 -28   5    3.01    0.32
   1 -28  -5    1.91    0.30
   1 -28  -5    2.42    0.35
  -1  28   5    1.28    0.25
   1  28  -5    2.01    0.24
   0 -28  -5    0.46    0.23
   0 -28  -5    0.48    0.23
   0 -28   5    0.81    0.23
   0  28  -5    0.93    0.21
   0  28   5    0.80    0.23
   4   0  -6   49.49    1.36
  -4   0   6   50.46    1.37
   3   0  -6   32.18    0.91
  -3   0   6   31.34    0.90
   2   0  -6    0.44    0.12
   2   0  -6    0.37    0.12
   1   0  -6   22.30    0.62
   1   0  -6   23.01    0.64
  -1   0   6   21.50    0.56
   0   0   6   34.63    0.91
   0   0  -6   37.58    0.93
   0   0  -6   37.46    0.92
   0   0  -6   37.30    0.96
   1   0   6   35.42    0.92
  -1   0  -6   35.18    0.93
  -1   0  -6   35.07    0.96
  -1   0  -6   35.93    0.86
   2   0   6    0.28    0.12
  -2   0  -6    0.55    0.15
  -2   0  -6    0.37    0.12
  -3   0  -6   27.40    0.86
   3   0   6   26.82    0.84
  -3   0  -6   28.42    0.86
   4  -1  -6    0.41    0.18
  -4  -1   6    0.55    0.20
  -4   1   6    0.91    0.20
   4   1  -6    0.41    0.19
   3  -1  -6   18.25    0.61
  -3  -1   6   18.43    0.60
   3   1  -6   17.54    0.61
  -3   1   6   19.07    0.61
   2  -1  -6    1.08    0.16
   2  -1  -6    0.95    0.14
   2   1  -6    1.07    0.16
   2   1  -6    1.01    0.15
   1  -1  -6    1.01    0.14
   1  -1  -6    1.08    0.15
  -1  -1   6    0.81    0.09
   1   1  -6    0.95    0.13
   1   1  -6    1.07    0.14
  -1   1   6    0.73    0.10
   0  -1  -6    0.74    0.11
   0  -1   6    0.62    0.09
   0  -1  -6    0.74    0.13
   0  -1  -6    0.77    0.12
   0   1   6    0.74    0.11
   0   1  -6    0.71    0.12
   0   1  -6    0.65    0.09
   0   1  -6    0.70    0.10
   1  -1   6    0.55    0.11
  -1  -1  -6    0.61    0.13
  -1  -1  -6    0.83    0.14
  -1  -1  -6    0.70    0.09
  -1   1  -6    0.63    0.14
  -1   1  -6    0.73    0.09
   1   1   6    0.47    0.10
  -1   1  -6    0.56    0.11
  -2  -1  -6    9.77    0.41
  -2  -1  -6   10.19    0.42
   2  -1   6   10.48    0.41
  -2   1  -6   10.82    0.43
  -2   1  -6   11.05    0.42
   2   1   6   10.51    0.41
  -3  -1  -6    0.52    0.17
   3  -1   6    0.79    0.18
  -3  -1  -6    0.82    0.20
  -3   1  -6    0.78    0.18
  -3   1  -6    0.86    0.21
   3   1   6    0.85    0.18
  -4  -2   6    4.40    0.35
   4  -2  -6    4.23    0.35
   4   2  -6    3.88    0.34
  -4   2   6    4.37    0.35
  -3  -2   6   41.73    1.13
   3  -2  -6   41.03    1.13
  -3   2   6   41.53    1.12
   3   2  -6   42.96    1.14
   2  -2  -6   12.22    0.43
   2  -2  -6   12.27    0.42
   2   2  -6   12.68    0.44
   1  -2  -6    4.37    0.23
   1  -2  -6    3.86    0.22
  -1  -2   6    4.44    0.17
   1  -2  -6    4.54    0.20
  -1   2   6    4.51    0.18
   1   2  -6    4.74    0.22
   1   2  -6    4.37    0.23
   0  -2  -6   30.51    0.78
   0  -2  -6   30.18    0.78
   0  -2   6   29.85    0.77
   0   2  -6   29.52    0.77
   0   2   6   30.29    0.78
   0   2  -6   30.68    0.76
   0   2  -6   29.08    0.81
  -1  -2  -6    3.31    0.21
  -1  -2  -6    3.51    0.17
  -1  -2  -6    3.29    0.23
   1  -2   6    2.99    0.20
  -1   2  -6    4.18    0.21
  -1   2  -6    3.48    0.15
   1   2   6    3.53    0.21
  -1   2  -6    3.56    0.23
   2  -2   6    2.09    0.21
  -2  -2  -6    2.02    0.22
  -2  -2  -6    2.30    0.23
  -2   2  -6    2.43    0.23
   2   2   6    2.19    0.22
  -2   2  -6    2.32    0.21
   3  -2   6   17.17    0.59
  -3  -2  -6   14.84    0.59
  -3  -2  -6   15.91    0.60
  -3   2  -6   16.06    0.59
  -3   2  -6   16.44    0.60
   3   2   6   16.41    0.59
  -4  -3   6    3.18    0.32
   4  -3  -6    2.89    0.30
   4   3  -6    2.99    0.31
  -4   3   6    3.33    0.30
   3  -3  -6    1.27    0.19
  -3  -3   6    1.22    0.19
  -3   3   6    1.67    0.21
   3   3  -6    1.15    0.19
   2  -3  -6   29.48    0.81
   2  -3  -6   28.99    0.82
   2   3  -6   30.46    0.82
   1  -3  -6   16.79    0.50
   1  -3  -6   16.95    0.45
   1  -3  -6   16.47    0.51
  -1  -3   6   16.10    0.43
  -1   3   6   16.86    0.45
   1   3  -6   16.29    0.51
   1   3  -6   15.32    0.48
   0  -3   6    0.19    0.07
   0  -3  -6    0.10    0.08
   0  -3  -6    0.53    0.12
   0  -3  -6    0.08    0.08
   0   3  -6    0.42    0.11
   0   3  -6    0.26    0.07
   0   3  -6    0.21    0.08
   0   3   6    0.22    0.08
  -1  -3  -6   21.64    0.59
  -1  -3  -6   21.54    0.64
   1  -3   6   22.36    0.63
  -1  -3  -6   22.06    0.66
  -1   3  -6   21.52    0.63
   1   3   6   22.11    0.64
  -1   3  -6   22.85    0.55
  -1   3  -6   20.99    0.65
  -2  -3  -6   20.19    0.65
   2  -3   6   19.08    0.61
  -2  -3  -6   20.06    0.64
  -2   3  -6   20.86    0.64
   2   3   6   19.41    0.63
  -2   3  -6   20.24    0.64
  -3  -3  -6    7.80    0.41
  -3  -3  -6    7.87    0.40
   3  -3   6    6.54    0.37
  -3   3  -6    6.86    0.38
   3   3   6    7.29    0.39
  -3   3  -6    7.59    0.40
  -4  -4   6    0.96    0.22
   4  -4  -6    0.76    0.20
   4   4  -6    1.35    0.24
  -4   4   6    1.49    0.23
   3  -4  -6    0.88    0.18
  -3  -4   6    0.92    0.18
   3   4  -6    0.91    0.18
  -3   4   6    0.95    0.17
   2  -4  -6    0.25    0.12
   2  -4  -6    0.74    0.12
   2   4  -6    0.30    0.12
   1  -4  -6    1.94    0.17
   1  -4  -6    2.09    0.14
   1  -4  -6    1.85    0.17
  -1  -4   6    2.05    0.12
  -1   4   6    2.14    0.13
   1   4  -6    1.74    0.15
   1   4  -6    2.09    0.17
   0  -4   6    0.58    0.09
   0  -4  -6    0.36    0.10
   0  -4  -6    0.61    0.10
   0  -4  -6    0.62    0.13
   0   4  -6    0.53    0.09
   0   4   6    0.61    0.10
   0   4  -6    0.44    0.09
   0   4  -6    0.39    0.10
  -1  -4  -6    2.39    0.16
  -1  -4  -6    2.34    0.20
   1  -4   6    2.34    0.18
  -1  -4  -6    2.06    0.19
   1   4   6    2.05    0.18
  -1   4  -6    2.06    0.18
  -1   4  -6    2.38    0.11
  -1   4  -6    2.38    0.21
  -2  -4  -6    3.67    0.27
  -2  -4  -6    3.45    0.26
   2  -4   6    3.70    0.25
   2   4   6    3.51    0.25
  -2   4  -6    3.75    0.24
  -2   4  -6    3.22    0.26
   3  -4   6    0.57    0.17
  -3  -4  -6    0.63    0.18
  -3  -4  -6    1.28    0.22
  -3   4  -6    0.98    0.20
   3   4   6    0.29    0.17
  -3   4  -6    0.99    0.20
   4  -5  -6    4.31    0.34
  -4  -5   6    5.16    0.38
  -4   5   6    4.76    0.33
   4   5  -6    4.77    0.36
  -3  -5   6    1.19    0.20
   3  -5  -6    1.18    0.20
   3   5  -6    0.97    0.18
  -3   5   6    1.37    0.18
   2  -5  -6   33.66    0.88
   2  -5  -6   32.10    0.90
  -2  -5   6   32.82    0.89
   2   5  -6   33.08    0.90
  -1  -5   6   17.61    0.45
   1  -5  -6   16.68    0.47
   1  -5  -6   17.52    0.53
   1  -5  -6   17.15    0.53
   1   5  -6   16.76    0.52
   1   5  -6   16.56    0.50
  -1   5   6   16.89    0.47
   0  -5   6    1.85    0.14
   0  -5  -6    2.14    0.16
   0  -5  -6    2.31    0.18
   0  -5  -6    2.09    0.16
   0   5   6    2.12    0.17
   0   5  -6    2.10    0.15
   0   5  -6    2.22    0.17
   0   5  -6    2.23    0.14
  -1  -5  -6   23.09    0.63
  -1  -5  -6   23.81    0.69
   1  -5   6   23.65    0.66
  -1  -5  -6   23.55    0.68
  -1   5  -6   22.43    0.67
  -1   5  -6   22.41    0.66
  -1   5  -6   23.43    0.56
   1   5   6   22.43    0.66
  -2  -5  -6   34.73    0.96
  -2  -5  -6   33.40    0.95
   2  -5   6   31.54    0.92
  -2   5  -6   32.82    0.94
  -2   5  -6   35.02    0.95
   2   5   6   34.29    0.95
  -3  -5  -6    1.11    0.21
  -3  -5  -6    1.02    0.19
   3  -5   6    0.80    0.18
  -3   5  -6    0.82    0.18
   3   5   6    1.20    0.21
  -3   5  -6    0.96    0.21
   4  -6  -6    1.40    0.23
  -4  -6   6    1.41    0.26
   4   6  -6    1.20    0.24
  -4   6   6    1.41    0.22
   3  -6  -6    6.20    0.35
  -3  -6   6    7.40    0.37
   3   6  -6    6.56    0.35
  -3   6   6    6.61    0.32
   2  -6  -6    2.65    0.24
  -2  -6   6    2.81    0.22
   2  -6  -6    3.02    0.20
   2   6  -6    2.70    0.22
  -2   6   6    2.45    0.18
  -1  -6   6    1.97    0.12
   1  -6  -6    1.93    0.18
   1  -6  -6    2.18    0.15
   1  -6  -6    2.10    0.18
   1   6  -6    1.77    0.12
   1   6  -6    1.92    0.16
   1   6  -6    1.94    0.17
  -1   6   6    2.04    0.15
   0  -6  -6    5.68    0.25
   0  -6  -6    5.64    0.25
   0  -6  -6    5.22    0.26
   0  -6   6    5.24    0.22
   0   6  -6    5.22    0.21
   0   6  -6    4.95    0.25
   0   6   6    5.95    0.25
   0   6  -6    5.37    0.23
  -1  -6  -6   15.36    0.50
   1  -6   6   14.28    0.47
  -1  -6  -6   15.33    0.47
  -1  -6  -6   15.55    0.51
  -1   6  -6   14.35    0.49
  -1   6  -6   16.59    0.50
   1   6   6   15.05    0.49
  -1   6  -6   14.92    0.42
  -2  -6  -6    2.99    0.26
  -2  -6  -6    3.14    0.19
  -2  -6  -6    2.83    0.26
   2  -6   6    3.28    0.25
  -2   6  -6    2.41    0.22
   2   6   6    3.05    0.25
  -2   6  -6    3.19    0.25
  -3  -6  -6    5.05    0.35
   3  -6   6    5.69    0.35
  -3  -6  -6    5.15    0.36
  -3   6  -6    5.13    0.35
  -3   6  -6    5.55    0.35
   3   6   6    5.09    0.36
  -4  -7   6    2.94    0.35
   4  -7  -6    3.33    0.32
   4   7  -6    2.68    0.34
  -3  -7   6    3.67    0.29
   3  -7  -6    3.19    0.28
   3   7  -6    3.88    0.29
  -3   7   6    3.41    0.25
  -2  -7   6   10.78    0.40
   2  -7  -6    9.90    0.41
   2  -7  -6   11.05    0.36
   2  -7  -6   10.55    0.37
  -2   7   6   10.47    0.32
   2   7  -6   10.32    0.40
   1  -7  -6   17.28    0.55
   1  -7  -6   18.29    0.50
   1  -7  -6   17.42    0.53
  -1  -7   6   18.43    0.47
   1   7  -6   17.98    0.54
   1   7  -6   16.21    0.52
   1   7  -6   17.60    0.47
  -1   7   6   18.15    0.50
   0  -7  -6    0.10    0.09
   0  -7  -6    0.04    0.09
   0  -7   6    0.06    0.07
   0  -7  -6    0.06    0.09
   0   7   6   -0.07    0.08
   0   7  -6    0.08    0.07
   0   7  -6    0.05    0.09
   0   7  -6    0.11    0.07
   1  -7   6    1.42    0.17
  -1  -7  -6    1.73    0.16
  -1  -7  -6    1.39    0.17
  -1  -7  -6    2.14    0.20
  -1   7  -6    1.97    0.19
   1   7   6    1.72    0.19
  -1   7  -6    1.89    0.17
   2  -7   6    8.44    0.37
  -2  -7  -6    8.11    0.39
  -2  -7  -6    8.21    0.39
  -2  -7  -6    8.31    0.33
  -2   7  -6    8.85    0.39
  -2   7  -6    8.58    0.38
   2   7   6    8.50    0.39
   3  -7   6    4.18    0.32
  -3  -7  -6    5.07    0.35
  -3  -7  -6    5.19    0.36
  -3   7  -6    4.41    0.31
   3   7   6    4.60    0.34
  -3   7  -6    4.91    0.34
  -4  -8   6    5.30    0.39
   4  -8  -6    4.92    0.37
   4   8  -6    5.32    0.40
  -3  -8   6   11.73    0.48
   3  -8  -6   11.62    0.49
   3   8  -6   11.50    0.49
  -3   8   6   11.80    0.43
   2  -8  -6    0.17    0.10
   2  -8  -6    0.11    0.07
  -2  -8   6   -0.09    0.10
   2  -8  -6    0.23    0.12
   2   8  -6    0.22    0.12
  -2   8   6    0.13    0.07
   1  -8  -6   20.13    0.60
   1  -8  -6   17.95    0.54
  -1  -8   6   19.71    0.51
   1  -8  -6   18.24    0.56
  -1   8   6   19.38    0.54
   1   8  -6   19.31    0.56
   1   8  -6   19.36    0.57
   1   8  -6   18.97    0.51
   0  -8  -6   58.14    1.34
   0  -8  -6   51.62    1.33
   0  -8  -6   51.24    1.32
   0  -8   6   52.65    1.29
   0   8   6   53.67    1.32
   0   8  -6   52.28    1.32
   0   8  -6   53.24    1.30
   0   8  -6   52.90    1.27
  -1  -8  -6   40.13    1.06
   1  -8   6   40.77    1.04
  -1  -8  -6   40.45    1.03
  -1  -8  -6   38.83    1.05
  -1   8  -6   38.75    1.04
   1   8   6   41.53    1.06
  -1   8  -6   39.05    1.05
  -2  -8  -6    6.99    0.37
  -2  -8  -6    7.20    0.31
  -2  -8  -6    7.16    0.36
   2  -8   6    6.76    0.34
  -2   8  -6    7.46    0.35
  -2   8  -6    7.25    0.35
   2   8   6    7.01    0.37
   3  -8   6   10.68    0.48
  -3  -8  -6    9.40    0.48
  -3  -8  -6   11.04    0.49
  -3   8  -6   11.58    0.48
  -3   8  -6   10.82    0.48
   3   8   6   10.72    0.49
  -4  -9   6    0.50    0.21
   4  -9  -6    0.17    0.18
   4   9  -6    0.49    0.21
  -3  -9   6    0.05    0.14
   3  -9  -6   -0.02    0.15
   3   9  -6    0.16    0.16
  -3   9   6    0.14    0.12
  -2  -9   6    0.30    0.13
   2  -9  -6    0.27    0.09
   2  -9  -6    0.23    0.10
   2  -9  -6    0.33    0.14
   2   9  -6    0.21    0.12
  -2   9   6    0.31    0.08
   1  -9  -6    1.27    0.15
   1  -9  -6    0.98    0.16
   1  -9  -6    1.22    0.14
  -1  -9   6    1.52    0.12
   1   9  -6    1.29    0.16
   1   9  -6    1.26    0.11
  -1   9   6    1.25    0.14
   1   9  -6    1.19    0.16
   0  -9  -6    0.13    0.10
   0  -9  -6    0.16    0.10
   0  -9  -6    0.04    0.10
   0  -9   6   -0.07    0.07
   0   9  -6    0.11    0.08
   0   9   6   -0.02    0.08
   0   9  -6   -0.05    0.09
   0   9  -6    0.04    0.07
  -1  -9  -6    6.79    0.30
  -1  -9  -6    6.78    0.33
  -1  -9  -6    6.21    0.31
   1  -9   6    6.50    0.29
  -1   9  -6    6.22    0.30
  -1   9  -6    6.54    0.30
   1   9   6    6.68    0.32
  -2  -9  -6    0.50    0.13
   2  -9   6    0.65    0.15
  -2  -9  -6    0.82    0.17
  -2  -9  -6    0.37    0.16
  -2   9  -6    0.73    0.16
   2   9   6    0.52    0.16
  -2   9  -6    0.47    0.14
   3  -9   6    0.43    0.16
  -3  -9  -6    0.37    0.18
  -3  -9  -6    0.57    0.19
  -3   9  -6    0.42    0.17
   3   9   6    0.24    0.17
  -3   9  -6    0.37    0.16
  -4 -10   6    6.98    0.43
   4 -10  -6    7.08    0.42
   4  10  -6    6.01    0.41
  -3 -10   6   13.97    0.55
   3 -10  -6   15.05    0.57
   3  10  -6   15.11    0.57
  -2 -10   6    3.56    0.26
   2 -10  -6    4.32    0.21
   2 -10  -6    4.14    0.28
   2 -10  -6    4.16    0.22
   2  10  -6    3.89    0.26
  -2  10   6    4.55    0.21
  -1 -10   6    2.07    0.14
   1 -10  -6    1.76    0.18
   1 -10  -6    2.30    0.21
   1 -10  -6    2.28    0.17
  -1  10   6    2.02    0.17
   1  10  -6    2.12    0.18
   1  10  -6    2.17    0.14
   1  10  -6    2.12    0.18
   0 -10   6   48.07    1.17
   0 -10  -6   48.89    1.21
   0 -10  -6   46.59    1.20
   0 -10  -6   45.99    1.21
   0  10   6   47.73    1.20
   0  10  -6   46.86    1.18
   0  10  -6   46.92    1.14
   0  10  -6   47.60    1.20
   1 -10   6   31.39    0.85
  -1 -10  -6   32.21    0.87
  -1 -10  -6   30.43    0.85
  -1 -10  -6   30.03    0.88
  -1  10  -6   31.95    0.86
  -1  10  -6   30.72    0.86
   1  10   6   32.22    0.88
  -2 -10  -6    0.03    0.14
  -2 -10  -6    0.13    0.15
  -2 -10  -6   -0.01    0.11
   2 -10   6    0.07    0.12
  -2  10  -6    0.16    0.13
  -2  10  -6    0.09    0.12
   2  10   6    0.12    0.15
  -3 -10  -6   17.45    0.65
  -3 -10  -6   17.66    0.67
   3 -10   6   17.97    0.65
  -3  10  -6   18.57    0.64
   3  10   6   18.03    0.67
  -3  10  -6   17.80    0.65
   4 -11  -6    3.47    0.35
  -4 -11   6    3.79    0.35
   4  11  -6    3.59    0.37
  -3 -11   6    0.25    0.16
   3 -11  -6    0.53    0.18
   3  11  -6    0.38    0.17
   2 -11  -6    0.15    0.10
   2 -11  -6    0.19    0.14
  -2 -11   6    0.22    0.12
   2  11  -6    0.30    0.14
  -2  11   6    0.27    0.10
  -1 -11   6    5.44    0.22
   1 -11  -6    5.00    0.25
   1 -11  -6    5.45    0.25
   1  11  -6    5.06    0.22
   1  11  -6    5.48    0.27
  -1  11   6    5.78    0.26
   1  11  -6    5.92    0.27
   0 -11  -6   11.10    0.43
   0 -11  -6   11.82    0.42
   0 -11  -6   12.34    0.42
   0 -11   6   12.38    0.39
   0  11  -6   11.93    0.40
   0  11  -6   11.24    0.36
   0  11   6   12.33    0.42
   0  11  -6   11.37    0.39
  -1 -11  -6    0.79    0.15
  -1 -11  -6    0.97    0.17
   1 -11   6    1.11    0.15
  -1 -11  -6    0.89    0.15
  -1  11  -6    0.75    0.14
  -1  11  -6    0.95    0.14
   1  11   6    0.97    0.16
  -2 -11  -6    6.82    0.37
  -2 -11  -6    6.32    0.35
  -2 -11  -6    6.31    0.32
   2 -11   6    7.24    0.36
  -2  11  -6    6.86    0.32
  -2  11  -6    6.18    0.34
   2  11   6    6.35    0.36
   3 -11   6    2.96    0.30
  -3 -11  -6    2.65    0.31
  -3 -11  -6    2.87    0.33
   3  11   6    2.98    0.32
  -3  11  -6    2.53    0.29
  -3  11  -6    2.63    0.28
   4 -12  -6    1.43    0.26
  -4 -12   6    1.60    0.26
   4  12  -6    1.18    0.25
   3 -12  -6    9.86    0.46
  -3 -12   6    9.62    0.45
   3  12  -6    9.69    0.46
   2 -12  -6    2.90    0.20
   2 -12  -6    2.83    0.27
  -2 -12   6    2.94    0.24
  -2  12   6    2.87    0.19
   2  12  -6    2.81    0.25
  -1 -12   6   15.25    0.44
   1 -12  -6   14.98    0.49
   1 -12  -6   14.76    0.53
   1 -12  -6   15.02    0.47
   1  12  -6   15.60    0.49
   1  12  -6   15.50    0.49
   1  12  -6   15.20    0.45
  -1  12   6   15.58    0.49
   0 -12   6   13.60    0.43
   0 -12  -6   12.90    0.44
   0 -12  -6   13.41    0.47
   0 -12  -6   13.96    0.47
   0  12   6   12.72    0.45
   0  12  -6   12.74    0.40
   0  12  -6   12.98    0.43
   0  12  -6   13.33    0.43
  -1 -12  -6    3.02    0.25
   1 -12   6    3.24    0.23
  -1 -12  -6    2.81    0.23
  -1 -12  -6    2.89    0.22
   1  12   6    2.88    0.24
  -1  12  -6    2.94    0.23
  -1  12  -6    2.78    0.21
   2 -12   6    4.25    0.30
  -2 -12  -6    4.91    0.29
  -2 -12  -6    4.33    0.33
  -2 -12  -6    5.17    0.33
   2  12   6    4.52    0.31
  -2  12  -6    4.42    0.30
  -2  12  -6    4.90    0.29
  -3 -12  -6    2.86    0.32
   3 -12   6    3.01    0.31
  -3 -12  -6    2.96    0.34
   3  12   6    2.78    0.32
  -3  12  -6    3.04    0.32
   4 -13  -6    2.92    0.35
  -4 -13   6    2.91    0.35
   4  13  -6    2.50    0.35
   3 -13  -6    0.11    0.17
  -3 -13   6    0.35    0.17
   3  13  -6    0.10    0.16
   2 -13  -6   22.19    0.72
  -2 -13   6   22.53    0.69
   2 -13  -6   22.72    0.64
   2  13  -6   21.83    0.69
  -2  13   6   22.51    0.64
   1 -13  -6   11.35    0.41
   1 -13  -6   11.83    0.46
   1 -13  -6   11.66    0.40
   1  13  -6   11.72    0.38
  -1  13   6   11.55    0.41
   1  13  -6   12.37    0.42
   1  13  -6   11.19    0.41
   0 -13  -6    0.88    0.17
   0 -13  -6    0.89    0.14
   0 -13   6    0.71    0.12
   0 -13  -6    0.85    0.16
   0  13  -6    0.72    0.12
   0  13  -6    0.92    0.13
   0  13   6    0.67    0.13
   0  13  -6    0.72    0.11
  -1 -13  -6    9.01    0.37
  -1 -13  -6    7.14    0.38
   1 -13   6    8.84    0.36
  -1 -13  -6    8.81    0.37
  -1  13  -6    8.65    0.34
   1  13   6    8.20    0.38
  -1  13  -6    9.05    0.37
  -2 -13  -6   13.21    0.52
   2 -13   6   13.85    0.52
  -2 -13  -6   13.63    0.55
  -2 -13  -6   13.80    0.50
  -2  13  -6   12.69    0.47
   2  13   6   13.50    0.53
  -2  13  -6   13.00    0.51
  -3 -13  -6    3.70    0.34
  -3 -13  -6    3.80    0.36
   3 -13   6    2.26    0.30
   3  13   6    3.69    0.34
  -3  13  -6    3.54    0.33
   3 -14  -6    0.41    0.19
  -3 -14   6    0.53    0.18
   3  14  -6   -0.04    0.15
   2 -14  -6    0.36    0.12
   2 -14  -6    0.24    0.16
  -2 -14   6    0.09    0.13
  -2  14   6    0.03    0.10
   2  14  -6    0.19    0.14
   1 -14  -6    0.26    0.10
   1 -14  -6    0.40    0.16
   1 -14  -6    0.24    0.12
   1  14  -6    0.41    0.13
  -1  14   6    0.36    0.12
   1  14  -6    0.36    0.11
   1  14  -6    0.27    0.09
   1  14  -6    0.27    0.09
   0 -14   6    1.56    0.17
   0 -14  -6    1.26    0.18
   0 -14  -6    1.48    0.19
   0 -14  -6    1.03    0.18
   0  14  -6    1.32    0.15
   0  14  -6    1.23    0.15
   0  14   6    1.51    0.20
   0  14  -6    1.44    0.17
  -1 -14  -6    0.25    0.13
  -1 -14  -6    0.32    0.16
   1 -14   6    0.27    0.12
  -1 -14  -6   -0.10    0.11
  -1  14  -6    0.02    0.12
  -1  14  -6    0.30    0.12
   1  14   6    0.67    0.16
  -2 -14  -6   -0.15    0.15
  -2 -14  -6   -0.03    0.15
   2 -14   6    0.06    0.14
  -2 -14  -6   -0.03    0.13
  -2  14  -6    0.22    0.13
  -2  14  -6    0.02    0.14
   2  14   6    0.02    0.14
   3 -14   6    0.23    0.18
  -3 -14  -6    0.28    0.20
  -3 -14  -6   -0.05    0.18
   3  14   6   -0.11    0.17
  -3  14  -6    0.05    0.18
  -3 -15   6    1.07    0.22
   3 -15  -6    1.31    0.24
   3  15  -6    1.29    0.23
   2 -15  -6   16.14    0.51
  -2 -15   6   16.68    0.55
   2 -15  -6   15.94    0.59
  -2  15   6   15.56    0.51
   2  15  -6   14.30    0.55
   1 -15  -6   18.71    0.57
   1 -15  -6   19.63    0.61
   1 -15  -6   20.70    0.67
   1  15  -6   20.49    0.57
   1  15  -6   19.48    0.60
   1  15  -6   20.08    0.58
   1  15  -6   21.02    0.62
  -1  15   6   19.57    0.61
   0 -15  -6    2.77    0.25
   0 -15  -6    3.33    0.25
   0 -15  -6    2.94    0.21
   0  15  -6    3.02    0.19
   0  15  -6    2.81    0.21
   0  15  -6    2.90    0.20
   0  15   6    2.85    0.24
  -1 -15  -6   11.93    0.49
  -1 -15  -6   12.63    0.45
   1 -15   6   11.63    0.45
  -1 -15  -6   12.26    0.48
   1  15   6   12.08    0.48
  -1  15  -6   11.72    0.42
  -1  15  -6   12.25    0.47
  -2 -15  -6   23.83    0.78
  -2 -15  -6   26.15    0.83
   2 -15   6   24.64    0.79
  -2 -15  -6   26.43    0.79
   2  15   6   25.41    0.81
  -2  15  -6   25.21    0.80
   3 -15   6    3.00    0.32
  -3 -15  -6    2.49    0.34
  -3 -15  -6    2.82    0.32
   3  15   6    2.42    0.32
  -3  15  -6    2.79    0.32
  -3 -16   6    7.80    0.43
   3 -16  -6    8.89    0.48
   3  16  -6    8.55    0.45
  -2 -16   6    0.53    0.16
   2 -16  -6    0.32    0.17
   2 -16  -6    0.58    0.14
  -2  16   6    0.49    0.13
   2  16  -6    0.28    0.16
   1 -16  -6    1.41    0.20
   1 -16  -6    1.35    0.21
  -1  16   6    1.40    0.18
   1  16  -6    1.19    0.14
   1  16  -6    1.38    0.19
   0 -16  -6   15.41    0.56
   0 -16  -6   15.41    0.55
   0 -16  -6   15.04    0.50
   0  16  -6   15.58    0.51
   0  16   6   15.40    0.54
   0  16  -6   15.78    0.49
   1 -16   6   19.01    0.62
  -1 -16  -6   17.50    0.64
  -1 -16  -6   19.07    0.61
  -1 -16  -6   19.16    0.65
  -1  16  -6   20.17    0.63
   1  16   6   19.18    0.65
  -1  16  -6   18.94    0.57
  -2 -16  -6    1.19    0.21
  -2 -16  -6    1.00    0.20
   2 -16   6    0.59    0.19
  -2 -16  -6    1.07    0.23
  -2  16  -6    1.08    0.19
   2  16   6    1.00    0.21
  -3 -16  -6    6.57    0.45
  -3 -16  -6    6.06    0.40
   3 -16   6    5.80    0.41
  -3  16  -6    5.47    0.40
   3  16   6    6.26    0.44
  -3 -17   6    0.62    0.20
   3 -17  -6    0.45    0.21
   3  17  -6    0.64    0.20
   2 -17  -6    2.82    0.31
   2 -17  -6    3.30    0.25
  -2 -17   6    2.80    0.26
   2  17  -6    2.71    0.27
  -2  17   6    2.77    0.24
   1 -17  -6   13.35    0.53
  -1 -17   6   13.64    0.47
  -1 -17   6   13.09    0.45
   1 -17  -6   12.93    0.49
  -1  17   6   13.73    0.49
   1  17  -6   13.79    0.44
   1  17  -6   13.05    0.48
   0 -17  -6    1.47    0.21
   0 -17  -6    1.64    0.25
   0 -17   6    2.02    0.18
   0 -17  -6    1.80    0.19
   0  17   6    1.68    0.21
   0  17  -6    1.64    0.20
   0  17  -6    1.55    0.17
   0  17  -6    1.84    0.20
   1 -17   6    5.74    0.33
  -1 -17  -6    5.91    0.31
  -1 -17  -6    6.31    0.35
  -1 -17  -6    6.11    0.37
   1  17   6    5.64    0.35
  -1  17  -6    6.77    0.29
  -1  17  -6    6.16    0.34
  -2 -17  -6    4.46    0.33
  -2 -17  -6    4.67    0.33
  -2 -17  -6    4.78    0.37
   2 -17   6    4.36    0.33
   2  17   6    4.71    0.35
  -2  17  -6    4.90    0.34
  -3 -17  -6    0.75    0.25
   3 -17   6    0.72    0.22
  -3 -17  -6    0.54    0.22
   3  17   6    0.49    0.22
  -3  17  -6    0.57    0.21
   3 -18  -6   15.86    0.66
  -3 -18   6   16.10    0.62
   3  18  -6   15.08    0.63
   2 -18  -6    7.73    0.44
  -2 -18   6    8.43    0.39
   2 -18  -6    9.57    0.39
   2  18  -6    8.37    0.41
  -2  18   6    7.67    0.37
  -1 -18   6    7.79    0.34
  -1 -18   6    7.97    0.34
   1 -18  -6    7.75    0.42
   1 -18  -6    7.42    0.38
   1  18  -6    7.72    0.36
  -1  18   6    7.32    0.36
   1  18  -6    7.80    0.32
   0 -18  -6   26.60    0.77
   0 -18   6   26.09    0.71
   0 -18  -6   24.68    0.79
   0 -18  -6   24.49    0.80
   0  18  -6   25.04    0.71
   0  18  -6   25.80    0.76
   0  18  -6   25.28    0.74
   0  18   6   25.17    0.78
  -1 -18  -6    8.61    0.43
  -1 -18  -6    8.19    0.43
  -1 -18  -6    9.21    0.39
   1 -18   6    8.45    0.39
   1  18   6    9.15    0.43
  -1  18  -6    8.39    0.40
  -2 -18  -6    0.83    0.23
   2 -18   6    1.16    0.21
  -2 -18  -6    0.78    0.21
  -2 -18  -6    1.01    0.21
  -2  18  -6    0.83    0.20
   2  18   6    0.83    0.21
   3 -19  -6    1.32    0.27
  -3 -19   6    1.21    0.24
   3  19  -6    1.64    0.27
  -2 -19   6    0.11    0.15
   2 -19  -6   -0.03    0.17
   2 -19  -6    0.07    0.14
   2  19  -6   -0.03    0.15
  -2  19   6    0.27    0.15
   1 -19  -6    1.24    0.22
  -1 -19   6    1.28    0.19
  -1 -19   6    1.32    0.19
   1 -19  -6    0.84    0.18
  -1  19   6    1.34    0.19
   1  19  -6    1.45    0.18
   1  19  -6    1.94    0.23
   0 -19  -6    2.20    0.27
   0 -19  -6    2.24    0.27
   0 -19   6    2.45    0.21
   0  19   6    2.29    0.26
   0  19  -6    2.40    0.19
   0  19  -6    2.15    0.23
   0  19  -6    2.08    0.22
   1 -19   6    0.03    0.14
  -1 -19  -6   -0.04    0.16
  -1 -19  -6   -0.19    0.12
  -1 -19  -6    0.14    0.16
  -1  19  -6   -0.08    0.13
   1  19   6    0.12    0.15
  -2 -19  -6    0.94    0.23
  -2 -19  -6    1.27    0.22
   2 -19   6    1.34    0.23
  -2 -19  -6    0.94    0.22
   2  19   6    1.37    0.25
  -2  19  -6    0.82    0.19
   3 -20  -6    8.87    0.50
  -3 -20   6    8.12    0.45
   3  20  -6    7.95    0.47
   2 -20  -6    0.08    0.18
   2 -20  -6    0.03    0.14
  -2 -20   6    0.29    0.16
  -2  20   6    0.44    0.16
   2  20  -6    0.25    0.18
   1 -20  -6    1.28    0.21
  -1 -20   6    1.20    0.18
  -1 -20   6    1.37    0.18
  -1 -20   6    1.46    0.21
   1 -20  -6    1.84    0.26
   1  20  -6    1.53    0.18
  -1  20   6    1.59    0.23
   0 -20   6   19.05    0.60
   0 -20  -6   19.08    0.68
   0 -20  -6   20.56    0.70
   0  20  -6   20.29    0.64
   0  20   6   19.64    0.67
   0  20  -6   19.18    0.62
  -1 -20  -6    8.18    0.43
   1 -20   6    8.40    0.40
  -1 -20  -6    7.62    0.43
  -1 -20  -6    8.88    0.39
   1  20   6    9.11    0.44
  -1  20  -6    8.30    0.41
  -2 -20  -6    0.22    0.17
  -2 -20  -6    0.16    0.17
  -2 -20  -6    0.10    0.19
   2 -20   6    0.30    0.18
  -2  20  -6    0.25    0.18
   2  20   6    0.11    0.19
   3 -21  -6    4.15    0.42
  -3 -21   6    3.99    0.35
   3  21  -6    4.61    0.40
   2 -21  -6    7.41    0.45
  -2 -21   6    7.55    0.39
   2 -21  -6    7.23    0.38
  -2  21   6    7.15    0.39
   1 -21  -6    1.41    0.25
  -1 -21   6    1.51    0.19
  -1 -21   6    1.09    0.19
  -1 -21   6    1.24    0.19
   1 -21  -6    1.40    0.22
   1  21  -6    1.12    0.17
  -1  21   6    1.58    0.22
   0 -21  -6    0.00    0.17
   0 -21   6    0.22    0.13
   0 -21  -6    0.41    0.19
   0  21  -6    0.56    0.15
   0  21  -6    0.24    0.14
   0  21   6    0.24    0.15
  -1 -21  -6    6.46    0.41
   1 -21   6    7.17    0.39
  -1 -21  -6    7.19    0.43
  -1  21  -6    7.50    0.41
   1  21   6    7.40    0.42
  -2 -21  -6    9.71    0.52
  -2 -21  -6    9.51    0.46
   2 -21   6    8.45    0.46
  -2 -21  -6    8.90    0.49
  -2  21  -6    9.65    0.49
   2  21   6    8.37    0.47
  -2 -22   6    2.89    0.31
  -2 -22   6    2.47    0.27
   2 -22  -6    2.50    0.28
   2 -22  -6    3.35    0.35
  -2  22   6    2.82    0.30
   1 -22  -6    5.50    0.40
  -1 -22   6    3.99    0.28
  -1 -22   6    4.51    0.31
   1 -22  -6    3.76    0.33
  -1 -22   6    4.12    0.28
   1  22  -6    4.08    0.27
  -1  22   6    4.41    0.33
   0 -22  -6    6.33    0.40
   0 -22  -6    5.61    0.39
   0  22  -6    6.41    0.34
   0  22   6    7.54    0.40
  -1 -22  -6    3.95    0.37
  -1 -22  -6    4.78    0.38
  -1  22  -6    4.07    0.34
   1  22   6    4.58    0.36
  -2 -22  -6   -0.07    0.19
   2 -22   6    0.06    0.19
  -2 -22  -6   -0.22    0.20
  -2 -22  -6    0.00    0.18
   2  22   6    0.02    0.18
  -2  22  -6    0.22    0.19
   2 -23  -6   15.14    0.59
  -2 -23   6   14.70    0.57
   2 -23  -6   14.70    0.64
  -2 -23   6   16.29    0.64
  -2  23   6   15.37    0.59
   1 -23  -6   17.11    0.70
   1 -23  -6   17.48    0.67
  -1 -23   6   19.38    0.66
  -1 -23   6   19.97    0.64
   1  23  -6   18.61    0.61
  -1  23   6   18.74    0.67
   0 -23  -6    0.49    0.21
   0 -23  -6    0.61    0.21
   0 -23   6    0.59    0.18
   0  23   6    0.48    0.18
   0  23  -6    0.31    0.15
  -1 -23  -6    6.80    0.44
  -1 -23  -6    7.19    0.44
  -1  23  -6    7.25    0.42
   1  23   6    7.19    0.43
   2 -23   6    8.97    0.48
  -2 -23  -6    8.11    0.49
  -2 -23  -6    8.93    0.53
   2  23   6    8.20    0.48
  -2  23  -6    7.38    0.44
   2 -24  -6    1.89    0.30
  -2 -24   6    1.70    0.27
   2 -24  -6    1.54    0.25
  -2 -24   6    1.88    0.25
  -2  24   6    1.62    0.25
  -1 -24   6    1.56    0.22
   1 -24  -6    1.21    0.24
  -1 -24   6    1.33    0.22
   1 -24  -6    1.36    0.26
   1  24  -6    1.56    0.22
  -1  24   6    1.94    0.28
   0 -24  -6    0.91    0.23
   0 -24   6    0.53    0.19
   0 -24  -6    0.40    0.20
   0  24   6    0.76    0.20
   0  24  -6    0.61    0.17
  -1 -24  -6    2.27    0.34
  -1 -24  -6    2.53    0.33
   1  24   6    2.37    0.33
  -1  24  -6    1.84    0.27
   2 -25  -6    4.69    0.43
   2 -25  -6    4.25    0.36
  -2 -25   6    4.28    0.40
  -2  25   6    4.72    0.37
   1 -25  -6   11.64    0.57
  -1 -25   6   11.66    0.50
  -1 -25   6   11.53    0.51
   1 -25  -6   12.45    0.55
   1  25  -6    9.92    0.45
  -1  25   6   11.69    0.53
   0 -25  -6    0.15    0.21
   0 -25   6   -0.01    0.16
   0 -25  -6    0.10    0.19
   0  25   6    0.08    0.17
   0  25  -6   -0.09    0.15
  -1 -25  -6    8.28    0.48
  -1 -25  -6    7.78    0.48
   1  25   6    7.08    0.44
  -1  25  -6    6.80    0.43
   1 -26  -6    2.28    0.30
  -1 -26   6    2.02    0.29
  -1 -26   6    2.19    0.29
   1 -26  -6    2.38    0.35
  -1  26   6    2.26    0.33
   1  26  -6    1.83    0.26
   0 -26  -6   13.74    0.61
   0 -26  -6   12.82    0.60
   0 -26   6   12.66    0.55
   0  26  -6   12.62    0.52
   0  26   6   12.01    0.56
  -1 -26  -6    2.49    0.37
  -1 -26  -6    3.29    0.39
  -1  26  -6    3.04    0.32
   1  26   6    2.49    0.34
   1 -27  -6    1.05    0.27
   1 -27  -6    1.38    0.28
  -1 -27   6    1.10    0.23
  -1 -27   6    0.89    0.22
  -1  27   6    0.97    0.24
   1  27  -6    1.15    0.20
   0 -27  -6    0.09    0.22
   0 -27  -6    0.15    0.21
   0 -27   6   -0.20    0.18
   0  27  -6   -0.09    0.16
   0  27   6    0.15    0.19
  -4   0   7   -0.02    0.17
   4   0  -7    0.05    0.18
   3   0  -7   -0.07    0.14
  -3   0   7   -0.06    0.13
   2   0  -7    0.14    0.12
   2   0  -7    0.24    0.12
  -1   0   7   -0.15    0.06
   1   0  -7    0.13    0.10
   1   0  -7   -0.04    0.07
   1   0  -7    0.04    0.11
   0   0   7   -0.05    0.07
   0   0  -7    0.03    0.08
   0   0  -7   -0.04    0.10
   0   0  -7    0.01    0.08
  -1   0  -7   -0.09    0.07
   1   0   7    0.07    0.10
  -1   0  -7    0.15    0.12
  -1   0  -7    0.02    0.10
  -2   0  -7   -0.05    0.12
  -2   0  -7   -0.14    0.13
   2   0   7    0.10    0.12
  -3   0  -7    0.18    0.18
  -3   0  -7    0.03    0.16
   3   0   7    0.08    0.16
  -4  -1   7    3.45    0.33
   4  -1  -7    2.52    0.34
   4   1  -7    3.52    0.35
  -4   1   7    3.22    0.34
   3  -1  -7    3.30    0.28
  -3  -1   7    3.24    0.27
   3   1  -7    2.68    0.27
  -3   1   7    3.12    0.28
   2  -1  -7   32.85    0.91
   2  -1  -7   33.47    0.91
   2   1  -7   32.46    0.91
   2   1  -7   32.96    0.91
   1  -1  -7   34.48    0.95
   1  -1  -7   37.30    0.90
   1  -1  -7   36.22    0.98
  -1  -1   7   36.10    0.89
   1   1  -7   36.57    0.89
  -1   1   7   36.21    0.90
   1   1  -7   37.76    0.98
   1   1  -7   36.33    0.95
   0  -1  -7    4.84    0.27
   0  -1  -7    5.10    0.24
   0  -1  -7    5.16    0.24
   0  -1   7    5.05    0.23
   0   1  -7    4.98    0.23
   0   1  -7    5.28    0.24
   0   1   7    5.22    0.24
   0   1  -7    4.84    0.27
  -1  -1  -7   21.83    0.68
  -1  -1  -7   20.82    0.65
  -1  -1  -7   22.82    0.59
   1  -1   7   22.66    0.65
  -1   1  -7   22.37    0.58
  -1   1  -7   21.47    0.68
   1   1   7   23.22    0.66
  -1   1  -7   20.55    0.64
  -2  -1  -7   19.19    0.63
  -2  -1  -7   18.91    0.64
   2  -1   7   17.84    0.61
  -2   1  -7   18.43    0.62
   2   1   7   17.79    0.61
  -2   1  -7   19.26    0.64
  -3  -1  -7   -0.10    0.16
  -3  -1  -7    0.44    0.19
   3  -1   7    0.35    0.17
  -3   1  -7    0.23    0.17
   3   1   7    0.23    0.17
  -3   1  -7    0.48    0.20
   4  -2  -7    0.77    0.22
  -4  -2   7    0.38    0.19
  -4   2   7    0.42    0.19
   4   2  -7    0.35    0.20
  -3  -2   7    2.40    0.26
   3  -2  -7    2.40    0.27
  -3   2   7    2.21    0.25
   3   2  -7    2.48    0.27
   2  -2  -7    0.29    0.12
   2  -2  -7    0.01    0.12
   2   2  -7    0.14    0.12
   2   2  -7    0.29    0.13
   1  -2  -7   20.91    0.63
   1  -2  -7   20.16    0.55
   1  -2  -7   19.91    0.60
  -1  -2   7   20.05    0.54
   1   2  -7   20.26    0.62
   1   2  -7   19.45    0.59
  -1   2   7   21.29    0.55
   1   2  -7   20.70    0.54
   0  -2  -7   32.20    0.83
   0  -2  -7   31.33    0.82
   0  -2  -7   29.42    0.86
   0  -2   7   30.58    0.81
   0   2   7   30.73    0.81
   0   2  -7   31.40    0.86
   0   2  -7   30.87    0.81
   0   2  -7   31.82    0.80
   1  -2   7    1.39    0.17
  -1  -2  -7    1.70    0.15
  -1  -2  -7    1.72    0.18
  -1  -2  -7    1.55    0.20
  -1   2  -7    1.50    0.19
  -1   2  -7    1.56    0.20
  -1   2  -7    1.57    0.12
   1   2   7    1.45    0.18
  -2  -2  -7    0.89    0.17
   2  -2   7    0.78    0.16
  -2  -2  -7    0.83    0.19
  -2   2  -7    0.76    0.18
   2   2   7    0.97    0.17
  -2   2  -7    0.81    0.18
   3  -2   7    6.15    0.38
  -3  -2  -7    5.41    0.38
  -3  -2  -7    5.74    0.38
  -3   2  -7    4.86    0.36
   3   2   7    5.22    0.37
  -3   2  -7    5.70    0.35
   4  -3  -7   -0.13    0.17
  -4  -3   7   -0.02    0.18
  -4   3   7   -0.01    0.16
   4   3  -7    0.19    0.19
   3  -3  -7    2.48    0.28
  -3  -3   7    2.47    0.26
  -3   3   7    2.40    0.26
   3   3  -7    1.74    0.25
   2  -3  -7   15.76    0.53
   2  -3  -7   15.91    0.52
   2   3  -7   15.38    0.52
   2   3  -7   15.09    0.52
   1  -3  -7    0.08    0.11
   1  -3  -7    0.07    0.07
  -1  -3   7    0.08    0.07
   1  -3  -7    0.27    0.11
  -1   3   7    0.07    0.07
   1   3  -7    0.07    0.09
   1   3  -7   -0.03    0.07
   1   3  -7    0.21    0.10
   0  -3  -7    0.03    0.09
   0  -3  -7    0.14    0.09
   0  -3   7    0.09    0.08
   0  -3  -7    0.10    0.10
   0   3  -7   -0.03    0.07
   0   3  -7    0.06    0.11
   0   3   7    0.01    0.08
   0   3  -7   -0.01    0.08
  -1  -3  -7   22.47    0.70
  -1  -3  -7   22.08    0.68
   1  -3   7   24.42    0.68
  -1  -3  -7   23.55    0.63
  -1   3  -7   22.25    0.70
   1   3   7   22.59    0.67
  -1   3  -7   22.47    0.68
   2  -3   7    1.73    0.22
  -2  -3  -7    2.12    0.22
  -2  -3  -7    1.86    0.23
  -2   3  -7    1.89    0.24
   2   3   7    1.63    0.23
  -2   3  -7    1.89    0.23
  -3  -3  -7    0.51    0.19
   3  -3   7    0.68    0.19
  -3  -3  -7    0.59    0.20
  -3   3  -7    0.63    0.20
   3   3   7    0.76    0.20
  -3   3  -7    0.42    0.19
   4  -4  -7    8.11    0.46
  -4  -4   7    7.28    0.43
  -4   4   7    8.60    0.43
   4   4  -7    7.21    0.44
  -3  -4   7    9.69    0.44
   3  -4  -7    9.65    0.45
  -3   4   7   10.29    0.42
   3   4  -7    9.39    0.44
   2  -4  -7    0.10    0.11
   2  -4  -7    0.46    0.13
   2   4  -7    0.06    0.12
   2   4  -7    0.22    0.12
   1  -4  -7   26.49    0.77
   1  -4  -7   27.47    0.71
   1  -4  -7   26.63    0.76
  -1  -4   7   26.76    0.68
   1   4  -7   27.24    0.77
   1   4  -7   27.75    0.75
   1   4  -7   26.94    0.69
  -1   4   7   27.23    0.71
   0  -4   7   19.73    0.56
   0  -4  -7   18.54    0.57
   0  -4  -7   20.76    0.62
   0  -4  -7   19.90    0.58
   0   4  -7   20.56    0.61
   0   4  -7   20.03    0.55
   0   4   7   19.77    0.57
   0   4  -7   19.29    0.56
  -1  -4  -7    0.63    0.12
  -1  -4  -7    0.62    0.16
  -1  -4  -7    0.57    0.13
   1  -4   7    0.76    0.14
   1   4   7    0.71    0.14
  -1   4  -7    0.50    0.15
  -1   4  -7    0.77    0.15
  -2  -4  -7   19.21    0.65
   2  -4   7   19.82    0.63
  -2  -4  -7   19.39    0.65
  -2   4  -7   18.37    0.65
  -2   4  -7   19.61    0.64
   2   4   7   18.98    0.64
  -3  -4  -7    7.37    0.43
   3  -4   7    7.95    0.42
  -3  -4  -7    7.78    0.43
   3   4   7    7.73    0.43
  -3   4  -7    8.14    0.43
  -3   4  -7    7.47    0.42
   4  -5  -7    0.36    0.19
  -4  -5   7    0.16    0.19
   4   5  -7    0.04    0.18
  -4   5   7    0.11    0.17
  -3  -5   7    0.36    0.17
   3  -5  -7    0.12    0.15
   3   5  -7    0.13    0.15
  -3   5   7    0.23    0.14
   2  -5  -7    5.07    0.27
   2  -5  -7    4.91    0.29
   2   5  -7    4.78    0.28
   2   5  -7    4.19    0.27
   1  -5  -7    0.41    0.10
   1  -5  -7    0.52    0.13
   1  -5  -7    0.37    0.12
  -1  -5   7    0.42    0.08
   1   5  -7    0.55    0.13
  -1   5   7    0.37    0.09
   1   5  -7    0.37    0.08
   1   5  -7    0.54    0.12
   0  -5  -7    0.10    0.10
   0  -5  -7    0.08    0.09
   0  -5  -7    0.08    0.11
   0  -5   7    0.19    0.09
   0   5  -7    0.13    0.11
   0   5  -7   -0.03    0.08
   0   5  -7    0.01    0.07
   0   5   7    0.12    0.09
   1  -5   7    2.04    0.19
  -1  -5  -7    1.92    0.21
  -1  -5  -7    1.80    0.17
  -1  -5  -7    2.06    0.21
  -1   5  -7    1.62    0.19
   1   5   7    1.67    0.20
  -1   5  -7    1.67    0.20
  -2  -5  -7    2.04    0.23
  -2  -5  -7    2.08    0.25
   2  -5   7    2.03    0.23
  -2   5  -7    2.17    0.25
  -2   5  -7    1.68    0.24
   2   5   7    2.50    0.26
   3  -5   7    0.14    0.15
  -3  -5  -7   -0.01    0.15
  -3  -5  -7    0.06    0.18
   3   5   7   -0.05    0.16
  -3   5  -7    0.08    0.17
  -3   5  -7    0.23    0.18
   4  -6  -7    4.86    0.38
  -4  -6   7    5.34    0.40
   4   6  -7    5.91    0.43
  -4   6   7    6.33    0.38
  -3  -6   7    6.34    0.37
   3  -6  -7    5.93    0.36
  -3   6   7    6.35    0.33
   3   6  -7    6.40    0.37
   2  -6  -7    0.18    0.13
   2  -6  -7    0.11    0.11
   2   6  -7    0.01    0.12
   1  -6  -7   15.04    0.51
   1  -6  -7   15.09    0.46
   1  -6  -7   16.00    0.52
  -1  -6   7   16.01    0.44
   1   6  -7   15.36    0.44
  -1   6   7   15.52    0.46
   1   6  -7   16.21    0.52
   1   6  -7   15.71    0.49
   0  -6  -7   31.65    0.89
   0  -6   7   32.61    0.86
   0  -6  -7   33.15    0.92
   0  -6  -7   34.17    0.90
   0   6  -7   32.85    0.87
   0   6  -7   34.95    0.85
   0   6   7   34.53    0.89
   0   6  -7   33.34    0.91
  -1  -6  -7    7.66    0.36
   1  -6   7    8.13    0.33
  -1  -6  -7    7.54    0.35
  -1  -6  -7    7.71    0.31
   1   6   7    7.24    0.34
  -1   6  -7    7.47    0.33
  -1   6  -7    7.24    0.34
  -2  -6  -7    3.13    0.28
  -2  -6  -7    2.43    0.26
   2  -6   7    2.47    0.25
  -2   6  -7    3.04    0.27
  -2   6  -7    2.44    0.25
   2   6   7    2.96    0.27
  -3  -6  -7   11.41    0.53
   3  -6   7   11.32    0.51
  -3  -6  -7   12.35    0.54
   3   6   7   11.89    0.52
  -3   6  -7   10.85    0.49
  -3   6  -7   11.97    0.52
   4  -7  -7    0.57    0.21
  -4  -7   7    0.42    0.22
   4   7  -7    0.63    0.23
   3  -7  -7    6.30    0.38
  -3  -7   7    6.14    0.36
   3   7  -7    6.45    0.37
  -3   7   7    5.93    0.33
   2  -7  -7   14.55    0.54
   2  -7  -7   15.37    0.51
   2   7  -7   16.01    0.53
   1  -7  -7    8.12    0.34
   1  -7  -7    8.13    0.35
  -1  -7   7    7.97    0.27
   1  -7  -7    7.89    0.30
  -1   7   7    7.80    0.30
   1   7  -7    7.64    0.27
   1   7  -7    7.96    0.34
   1   7  -7    8.41    0.33
   0  -7  -7    1.42    0.18
   0  -7  -7    1.23    0.18
   0  -7  -7    1.49    0.20
   0  -7   7    1.59    0.16
   0   7  -7    1.61    0.15
   0   7  -7    1.47    0.16
   0   7  -7    1.20    0.17
   0   7   7    1.47    0.17
  -1  -7  -7   20.33    0.59
  -1  -7  -7   19.31    0.64
   1  -7   7   19.81    0.60
  -1  -7  -7   19.91    0.63
   1   7   7   19.35    0.62
  -1   7  -7   18.95    0.60
  -1   7  -7   19.86    0.63
   2  -7   7   19.96    0.66
  -2  -7  -7   20.30    0.69
  -2  -7  -7   20.35    0.68
   2   7   7   19.68    0.67
  -2   7  -7   20.35    0.67
  -2   7  -7   20.87    0.68
   3  -7   7    0.74    0.19
  -3  -7  -7    0.26    0.20
  -3  -7  -7    0.73    0.21
   3   7   7    0.89    0.21
  -3   7  -7    0.89    0.21
  -3   7  -7    0.37    0.19
  -4  -8   7    1.64    0.28
   4  -8  -7    1.90    0.28
   4   8  -7    1.66    0.27
  -3  -8   7    1.21    0.22
   3  -8  -7    1.52    0.23
  -3   8   7    1.52    0.20
   3   8  -7    1.40    0.22
   2  -8  -7    0.48    0.13
   2  -8  -7    0.58    0.15
   2   8  -7    0.23    0.13
   1  -8  -7   13.01    0.46
   1  -8  -7   12.75    0.42
   1  -8  -7   13.09    0.48
  -1  -8   7   13.64    0.39
   1   8  -7   13.25    0.39
  -1   8   7   12.88    0.42
   1   8  -7   14.15    0.45
   0  -8   7    9.57    0.34
   0  -8  -7   10.34    0.38
   0  -8  -7    9.23    0.39
   0  -8  -7   10.44    0.38
   0   8  -7    9.48    0.38
   0   8   7    9.28    0.36
   0   8  -7    9.85    0.32
   0   8  -7    9.14    0.34
  -1  -8  -7    1.56    0.21
  -1  -8  -7    2.04    0.23
  -1  -8  -7    1.96    0.19
   1  -8   7    2.02    0.20
  -1   8  -7    1.77    0.20
   1   8   7    2.18    0.22
  -1   8  -7    2.16    0.19
  -2  -8  -7    0.96    0.19
   2  -8   7    0.67    0.17
  -2  -8  -7    0.78    0.17
  -2   8  -7    1.19    0.19
   2   8   7    1.04    0.20
  -2   8  -7    0.84    0.18
  -3  -8  -7    3.01    0.35
  -3  -8  -7    3.39    0.34
   3  -8   7    2.95    0.31
  -3   8  -7    2.76    0.31
   3   8   7    2.72    0.34
  -3   8  -7    2.95    0.30
  -4  -9   7   -0.06    0.19
   4  -9  -7    0.11    0.18
   4   9  -7    0.12    0.20
  -3  -9   7   12.90    0.53
   3  -9  -7   13.43    0.56
   3   9  -7   13.71    0.55
  -3   9   7   13.05    0.48
  -2  -9   7   47.91    1.25
   2  -9  -7   46.61    1.22
   2  -9  -7   48.42    1.28
   2   9  -7   47.70    1.26
   1  -9  -7    9.58    0.39
  -1  -9   7    9.26    0.30
   1  -9  -7    8.72    0.36
   1  -9  -7    9.29    0.34
   1   9  -7    8.42    0.30
   1   9  -7    8.98    0.35
  -1   9   7    9.07    0.34
   0  -9  -7   39.46    1.02
   0  -9  -7   35.94    1.00
   0  -9   7   36.07    0.96
   0  -9  -7   38.03    1.01
   0   9  -7   37.49    1.00
   0   9  -7   36.24    0.97
   0   9   7   39.89    1.01
   0   9  -7   37.87    0.94
  -1  -9  -7   48.47    1.23
   1  -9   7   46.03    1.19
  -1  -9  -7   46.36    1.19
  -1  -9  -7   45.06    1.22
  -1   9  -7   47.30    1.21
   1   9   7   41.95    1.20
  -1   9  -7   46.04    1.20
  -2  -9  -7   11.88    0.48
   2  -9   7   10.49    0.45
  -2  -9  -7   10.44    0.47
  -2   9  -7    9.81    0.44
   2   9   7    9.22    0.45
  -2   9  -7   11.29    0.46
  -3  -9  -7    0.16    0.19
   3  -9   7    0.02    0.16
  -3  -9  -7    0.25    0.20
   3   9   7    0.41    0.20
  -3   9  -7    0.71    0.21
  -3   9  -7    0.20    0.18
  -4 -10   7    1.46    0.27
   4 -10  -7    0.95    0.25
   4  10  -7    1.41    0.27
  -3 -10   7    1.62    0.24
   3 -10  -7    1.09    0.22
   3  10  -7    1.45    0.23
   2 -10  -7    0.18    0.12
   2 -10  -7    0.32    0.16
  -2 -10   7    0.61    0.15
   2  10  -7    0.29    0.14
   1 -10  -7    4.66    0.29
   1 -10  -7    5.47    0.26
   1 -10  -7    5.06    0.28
  -1 -10   7    5.32    0.22
  -1  10   7    5.18    0.25
   1  10  -7    4.97    0.22
   1  10  -7    5.04    0.27
   1  10  -7    5.11    0.26
   0 -10  -7    1.34    0.19
   0 -10  -7    1.76    0.20
   0 -10   7    1.42    0.16
   0 -10  -7    1.44    0.20
   0  10   7    1.34    0.18
   0  10  -7    1.29    0.16
   0  10  -7    1.04    0.16
   0  10  -7    1.19    0.14
  -1 -10  -7    6.05    0.32
  -1 -10  -7    5.88    0.32
   1 -10   7    6.27    0.31
  -1 -10  -7    5.65    0.30
  -1  10  -7    6.11    0.32
  -1  10  -7    6.27    0.31
   1  10   7    6.67    0.34
  -2 -10  -7   -0.02    0.15
   2 -10   7   -0.02    0.14
  -2 -10  -7    0.17    0.12
  -2 -10  -7   -0.21    0.14
  -2  10  -7    0.15    0.15
   2  10   7    0.12    0.15
  -2  10  -7   -0.20    0.13
  -3 -10  -7    0.17    0.20
   3 -10   7    0.10    0.17
  -3 -10  -7    0.04    0.18
   3  10   7   -0.08    0.17
  -3  10  -7    0.27    0.19
  -3  10  -7    0.05    0.15
  -3 -11   7    7.63    0.41
   3 -11  -7    8.42    0.45
   3  11  -7    7.26    0.41
  -2 -11   7   19.74    0.64
   2 -11  -7   20.80    0.69
   2 -11  -7   19.46    0.60
   2  11  -7   20.33    0.65
   1 -11  -7    6.39    0.31
  -1 -11   7    6.95    0.27
   1 -11  -7    7.19    0.31
   1 -11  -7    7.29    0.36
   1  11  -7    6.33    0.30
  -1  11   7    6.72    0.30
   1  11  -7    7.21    0.27
   1  11  -7    7.20    0.33
   0 -11  -7    4.82    0.28
   0 -11  -7    4.98    0.28
   0 -11  -7    4.83    0.29
   0 -11   7    4.58    0.25
   0  11  -7    4.69    0.22
   0  11  -7    4.52    0.27
   0  11  -7    4.45    0.24
   0  11   7    6.09    0.29
   1 -11   7   19.02    0.60
  -1 -11  -7   19.24    0.63
  -1 -11  -7   18.41    0.60
  -1 -11  -7   17.96    0.61
  -1  11  -7   17.95    0.60
  -1  11  -7   18.95    0.59
   1  11   7   18.29    0.62
  -2 -11  -7   10.53    0.47
  -2 -11  -7   11.04    0.43
   2 -11   7   10.53    0.46
  -2 -11  -7   11.31    0.50
   2  11   7   10.34    0.48
  -2  11  -7   11.36    0.46
  -2  11  -7   11.66    0.48
  -3 -11  -7    0.41    0.20
   3 -11   7    0.26    0.18
  -3 -11  -7    0.13    0.19
   3  11   7    0.40    0.20
  -3  11  -7    0.28    0.18
  -3  11  -7    0.55    0.20
  -3 -12   7   13.62    0.56
   3 -12  -7   15.55    0.61
   3  12  -7   14.16    0.58
  -2 -12   7    0.62    0.17
   2 -12  -7    0.57    0.18
   2 -12  -7    0.50    0.13
   2  12  -7    0.53    0.16
   1 -12  -7   15.47    0.56
   1 -12  -7   15.41    0.52
  -1 -12   7   16.50    0.48
   1 -12  -7   16.27    0.52
   1  12  -7   15.51    0.53
   1  12  -7   16.23    0.48
   1  12  -7   16.69    0.53
  -1  12   7   15.98    0.51
   0 -12   7    3.99    0.23
   0 -12  -7    4.22    0.28
   0 -12  -7    3.93    0.27
   0 -12  -7    4.22    0.27
   0  12  -7    4.22    0.21
   0  12  -7    4.03    0.25
   0  12  -7    3.85    0.23
   0  12   7    4.43    0.28
  -1 -12  -7    5.80    0.32
   1 -12   7    5.44    0.30
  -1 -12  -7    5.38    0.32
  -1 -12  -7    5.62    0.31
   1  12   7    5.41    0.32
  -1  12  -7    5.12    0.30
  -1  12  -7    5.85    0.30
  -2 -12  -7    8.43    0.43
  -2 -12  -7    9.02    0.39
  -2 -12  -7    8.63    0.42
   2 -12   7    8.68    0.43
   2  12   7    8.11    0.43
  -2  12  -7    8.88    0.41
  -2  12  -7    9.25    0.42
   3 -12   7    3.85    0.35
  -3 -12  -7    3.87    0.38
  -3 -12  -7    3.77    0.38
   3  12   7    4.19    0.37
  -3  12  -7    3.67    0.36
  -3 -13   7    0.22    0.18
   3 -13  -7    0.20    0.18
   3  13  -7    0.11    0.17
  -2 -13   7    0.06    0.14
   2 -13  -7    0.11    0.15
   2  13  -7    0.38    0.15
  -2  13   7   -0.01    0.17
   1 -13  -7   -0.04    0.11
   1 -13  -7   -0.14    0.11
   1 -13  -7    0.23    0.15
  -1 -13   7    0.05    0.09
   1  13  -7    0.06    0.09
   1  13  -7    0.22    0.12
   1  13  -7    0.08    0.12
  -1  13   7    0.02    0.10
   0 -13  -7    7.40    0.35
   0 -13   7    6.57    0.30
   0 -13  -7    6.27    0.32
   0 -13  -7    6.13    0.34
   0  13  -7    7.33    0.31
   0  13  -7    6.67    0.31
   0  13   7    6.54    0.34
   0  13  -7    6.91    0.28
  -1 -13  -7    3.47    0.27
  -1 -13  -7    3.30    0.29
  -1 -13  -7    3.25    0.25
   1 -13   7    3.66    0.26
  -1  13  -7    3.35    0.26
   1  13   7    3.28    0.27
  -1  13  -7    3.36    0.23
  -2 -13  -7    2.09    0.25
  -2 -13  -7    2.40    0.30
  -2 -13  -7    2.59    0.27
   2 -13   7    2.55    0.27
  -2  13  -7    2.88    0.29
   2  13   7    2.64    0.30
  -2  13  -7    2.40    0.25
  -3 -13  -7    0.09    0.20
   3 -13   7    0.26    0.19
  -3 -13  -7    0.07    0.21
   3  13   7    0.27    0.20
  -3  13  -7    0.07    0.19
   3 -14  -7    4.10    0.38
  -3 -14   7    4.39    0.35
   3  14  -7    4.30    0.35
   2 -14  -7    0.62    0.19
  -2 -14   7    0.57    0.17
  -2  14   7    0.55    0.15
   2  14  -7    0.64    0.18
   1 -14  -7   10.23    0.39
   1 -14  -7   10.33    0.40
  -1 -14   7    9.40    0.34
   1 -14  -7    9.90    0.44
   1  14  -7    9.57    0.35
   1  14  -7    9.41    0.39
  -1  14   7    9.85    0.39
   1  14  -7    9.66    0.39
   0 -14  -7   19.67    0.65
   0 -14  -7   19.57    0.61
   0 -14   7   18.08    0.58
   0 -14  -7   19.20    0.63
   0  14  -7   18.99    0.60
   0  14   7   21.61    0.65
   0  14  -7   19.53    0.60
   0  14  -7   19.06    0.56
  -1 -14  -7    8.33    0.41
   1 -14   7    7.59    0.37
  -1 -14  -7    8.70    0.39
  -1 -14  -7    8.55    0.39
  -1  14  -7    8.66    0.38
   1  14   7    8.23    0.40
  -1  14  -7    8.16    0.36
  -2 -14  -7    9.55    0.43
  -2 -14  -7    9.48    0.49
   2 -14   7    9.83    0.46
  -2 -14  -7    9.83    0.45
  -2  14  -7   10.23    0.42
   2  14   7    9.10    0.47
  -2  14  -7   10.09    0.47
   3 -14   7    9.57    0.49
  -3 -14  -7    9.47    0.52
  -3 -14  -7    9.34    0.52
   3  14   7    8.55    0.49
  -3  14  -7    9.17    0.49
  -3 -15   7    0.17    0.18
   3 -15  -7    0.11    0.19
   3  15  -7    0.41    0.19
  -2 -15   7    4.71    0.32
   2 -15  -7    4.37    0.34
  -2  15   7    4.38    0.27
   2  15  -7    4.16    0.32
   1 -15  -7    0.43    0.14
  -1 -15   7    0.42    0.11
   1 -15  -7    0.64    0.14
   1 -15  -7    0.61    0.18
   1  15  -7    0.48    0.14
   1  15  -7    0.55    0.12
  -1  15   7    0.23    0.13
   1  15  -7    0.58    0.14
   0 -15  -7    1.65    0.23
   0 -15  -7    1.43    0.19
   0 -15  -7    1.81    0.24
   0 -15   7    1.13    0.16
   0  15   7    1.54    0.20
   0  15  -7    1.43    0.19
   0  15  -7    1.47    0.19
   0  15  -7    1.58    0.17
   1 -15   7    9.20    0.41
  -1 -15  -7    9.46    0.41
  -1 -15  -7    9.47    0.45
  -1 -15  -7    9.00    0.42
  -1  15  -7    9.34    0.41
   1  15   7    9.85    0.44
  -1  15  -7    8.93    0.38
  -2 -15  -7    3.17    0.29
  -2 -15  -7    3.07    0.33
   2 -15   7    3.09    0.30
  -2 -15  -7    3.09    0.30
   2  15   7    2.96    0.32
  -2  15  -7    3.20    0.31
   3 -16  -7    5.43    0.43
  -3 -16   7    6.59    0.42
   3  16  -7    5.92    0.40
  -2 -16   7    0.99    0.20
   2 -16  -7    0.89    0.22
   2 -16  -7    0.96    0.19
   2  16  -7    1.09    0.20
  -2  16   7    1.00    0.16
   1 -16  -7   17.70    0.64
  -1 -16   7   18.35    0.55
   1 -16  -7   17.85    0.60
   1  16  -7   18.29    0.56
  -1  16   7   18.16    0.60
   1  16  -7   17.45    0.58
   1  16  -7   17.60    0.58
   0 -16  -7   13.38    0.54
   0 -16  -7   12.60    0.47
   0 -16   7   14.33    0.48
   0 -16  -7   14.06    0.53
   0  16  -7   13.02    0.46
   0  16  -7   13.96    0.45
   0  16  -7   14.31    0.49
   0  16   7   13.13    0.51
   1 -16   7    0.79    0.17
  -1 -16  -7    0.59    0.18
  -1 -16  -7    0.64    0.19
  -1 -16  -7    0.88    0.18
  -1  16  -7    0.77    0.15
  -1  16  -7    0.59    0.16
   1  16   7    0.51    0.18
  -2 -16  -7    3.20    0.30
  -2 -16  -7    3.22    0.30
   2 -16   7    2.94    0.31
  -2 -16  -7    2.34    0.33
   2  16   7    3.20    0.33
  -2  16  -7    2.96    0.31
  -3 -17   7    6.18    0.42
   3 -17  -7    6.17    0.45
   3  17  -7    5.77    0.40
   2 -17  -7   18.37    0.63
  -2 -17   7   18.85    0.63
   2 -17  -7   18.34    0.69
  -2  17   7   17.99    0.60
   2  17  -7   17.99    0.64
   1 -17  -7    6.98    0.36
   1 -17  -7    8.12    0.42
  -1 -17   7    7.36    0.32
   1  17  -7    7.25    0.33
  -1  17   7    6.93    0.35
   1  17  -7    7.37    0.35
   0 -17  -7    7.85    0.36
   0 -17   7    7.66    0.35
   0 -17  -7    8.22    0.41
   0 -17  -7    7.41    0.40
   0  17   7    8.48    0.40
   0  17  -7    8.09    0.36
   0  17  -7    7.75    0.34
  -1 -17  -7   11.58    0.50
  -1 -17  -7   11.82    0.52
  -1 -17  -7   11.78    0.48
   1 -17   7   12.09    0.48
   1  17   7   11.92    0.51
  -1  17  -7   11.55    0.44
  -1  17  -7   11.30    0.48
  -2 -17  -7    6.70    0.40
   2 -17   7    5.94    0.39
  -2 -17  -7    6.62    0.39
  -2 -17  -7    6.46    0.43
   2  17   7    6.94    0.43
  -2  17  -7    7.03    0.42
   3 -18  -7    1.05    0.27
  -3 -18   7    0.99    0.23
   3  18  -7    1.16    0.25
  -2 -18   7    0.43    0.17
   2 -18  -7    0.32    0.19
   2 -18  -7    0.62    0.18
   2  18  -7    1.13    0.21
  -2  18   7    0.73    0.17
   1 -18  -7    0.24    0.17
  -1 -18   7    0.03    0.12
   1 -18  -7   -0.13    0.14
   1  18  -7    0.11    0.13
  -1  18   7    0.13    0.14
   0 -18   7    0.08    0.12
   0 -18  -7   -0.16    0.14
   0 -18  -7    0.07    0.16
   0  18  -7    0.16    0.13
   0  18   7    0.07    0.14
   0  18  -7   -0.08    0.10
  -1 -18  -7    0.10    0.15
   1 -18   7    0.12    0.15
  -1 -18  -7    0.16    0.17
  -1 -18  -7    0.01    0.18
   1  18   7    0.25    0.16
  -1  18  -7    0.27    0.16
  -2 -18  -7    3.36    0.36
   2 -18   7    2.92    0.32
  -2 -18  -7    3.05    0.32
  -2 -18  -7    3.41    0.32
  -2  18  -7    2.53    0.31
   2  18   7    3.26    0.34
   3 -19  -7    3.19    0.38
  -3 -19   7    2.43    0.33
   3  19  -7    2.49    0.34
  -2 -19   7   16.87    0.60
   2 -19  -7   15.72    0.57
   2 -19  -7   15.47    0.64
   2  19  -7   15.59    0.60
  -2  19   7   16.31    0.58
   1 -19  -7   11.49    0.49
   1 -19  -7   11.42    0.52
  -1 -19   7   11.73    0.45
  -1 -19   7   11.86    0.46
  -1  19   7   12.52    0.49
   1  19  -7   12.13    0.47
   0 -19  -7    3.17    0.31
   0 -19  -7    2.65    0.29
   0 -19   7    3.11    0.26
   0  19   7    3.03    0.30
   0  19  -7    3.37    0.24
   0  19  -7    2.94    0.26
   1 -19   7   13.40    0.52
  -1 -19  -7   11.78    0.53
  -1 -19  -7   12.31    0.55
  -1 -19  -7   12.01    0.49
  -1  19  -7   12.59    0.52
   1  19   7   12.63    0.55
  -2 -19  -7    7.20    0.41
  -2 -19  -7    6.71    0.46
   2 -19   7    7.60    0.43
  -2 -19  -7    6.23    0.42
  -2  19  -7    6.97    0.41
   2  19   7    6.66    0.46
   2 -20  -7    2.01    0.27
  -2 -20   7    1.43    0.23
   2 -20  -7    1.54    0.26
   2  20  -7    1.38    0.24
  -2  20   7    1.41    0.21
   1 -20  -7    3.16    0.33
  -1 -20   7    2.72    0.26
  -1 -20   7    2.94    0.26
   1 -20  -7    2.98    0.31
  -1  20   7    2.93    0.28
   1  20  -7    2.65    0.23
   0 -20   7    7.80    0.36
   0 -20  -7    7.48    0.42
   0 -20  -7    7.15    0.42
   0  20  -7    6.59    0.47
   0  20   7    7.30    0.39
   0  20  -7    7.11    0.37
   1 -20   7    0.35    0.17
  -1 -20  -7    0.23    0.16
  -1 -20  -7    0.55    0.20
  -1 -20  -7    0.19    0.18
  -1  20  -7    0.32    0.16
   1  20   7    0.27    0.18
  -2 -20  -7    1.08    0.24
   2 -20   7    1.22    0.24
  -2 -20  -7    0.99    0.22
  -2 -20  -7    0.51    0.24
  -2  20  -7    0.68    0.20
   2  20   7    0.65    0.24
   2 -21  -7    5.73    0.36
  -2 -21   7    6.13    0.38
   2 -21  -7    5.21    0.41
  -2  21   7    5.41    0.36
   2  21  -7    5.93    0.39
  -1 -21   7    0.48    0.17
  -1 -21   7    0.66    0.17
  -1 -21   7    0.58    0.16
   1 -21  -7    1.25    0.22
   1 -21  -7    0.66    0.22
   1  21  -7    0.63    0.15
  -1  21   7    0.84    0.19
   0 -21   7    0.60    0.16
   0 -21  -7    0.82    0.23
   0 -21  -7    0.72    0.22
   0  21  -7    0.81    0.19
   0  21   7    0.17    0.16
   1 -21   7   13.61    0.55
  -1 -21  -7   13.19    0.59
  -1 -21  -7   13.92    0.60
   1  21   7   13.21    0.57
  -1  21  -7   13.96    0.57
  -2 -21  -7    4.50    0.35
  -2 -21  -7    4.38    0.39
  -2 -21  -7    4.47    0.39
   2 -21   7    4.33    0.40
  -2  21  -7    4.35    0.36
   2  21   7    4.17    0.39
   2 -22  -7    0.64    0.21
   2 -22  -7    0.54    0.24
  -2  22   7    0.65    0.19
  -1 -22   7   10.18    0.42
  -1 -22   7    9.12    0.43
  -1 -22   7    9.40    0.43
   1 -22  -7    9.37    0.50
   1 -22  -7    9.95    0.47
  -1  22   7    9.42    0.45
   1  22  -7    7.84    0.40
   0 -22  -7   10.33    0.52
   0 -22  -7   10.15    0.51
   0  22  -7   10.44    0.47
   0  22   7   10.92    0.50
  -1 -22  -7    6.05    0.43
   1 -22   7    5.49    0.37
  -1 -22  -7    6.57    0.43
  -1  22  -7    5.89    0.39
   1  22   7    5.90    0.42
  -2 -23   7    0.06    0.17
   2 -23  -7    0.22    0.18
   2 -23  -7    0.23    0.22
  -2 -23   7    0.15    0.20
  -2  23   7    0.18    0.17
  -1 -23   7    0.21    0.24
   1 -23  -7    0.16    0.19
   1 -23  -7    0.10    0.19
  -1 -23   7    0.42    0.18
  -1  23   7    0.21    0.18
   0 -23  -7    2.55    0.34
   0 -23  -7    2.47    0.34
   0  23  -7    2.56    0.28
   0  23   7    2.35    0.30
  -1 -23  -7    0.37    0.24
   1 -23   7    0.54    0.20
  -1 -23  -7    0.43    0.21
   1  23   7    0.45    0.19
  -1  23  -7    0.14    0.20
  -1 -24   7    8.46    0.44
   1 -24  -7    7.74    0.46
   1 -24  -7    9.01    0.51
  -1  24   7    8.85    0.47
   0 -24  -7   14.09    0.64
   0 -24  -7   14.24    0.60
   0  24   7   15.11    0.61
   1 -24   7    1.71    0.26
  -1 -24  -7    1.60    0.28
  -1 -24  -7    1.64    0.30
  -1  24  -7    1.06    0.24
   1  24   7    1.78    0.27
  -1 -25   7    3.27    0.32
   1 -25  -7    2.79    0.37
   1 -25  -7    3.62    0.39
  -1  25   7    3.58    0.36
   0 -25   7    0.34    0.19
   0 -25  -7    0.14    0.20
   0 -25  -7   -0.06    0.21
   0  25  -7    0.08    0.16
   0  25   7   -0.12    0.17
  -1 -26   7    3.78    0.35
   0 -26  -7    2.74    0.37
   0 -26  -7    2.97    0.38
   0 -26   7    3.35    0.36
   0  26   7    3.15    0.35
   0  26  -7    3.25    0.32
   4   0  -8    6.74    0.44
  -4   0   8    5.88    0.43
   3   0  -8    0.86    0.21
  -3   0   8    0.78    0.19
   2   0  -8    9.05    0.41
   2   0  -8    9.05    0.40
   1   0  -8   17.54    0.49
   1   0  -8   17.68    0.56
  -1   0   8   17.07    0.49
   1   0  -8   17.24    0.58
   0   0  -8   23.25    0.67
   0   0  -8   23.08    0.72
   0   0  -8   23.76    0.66
   0   0   8   24.23    0.67
  -1   0  -8    5.14    0.29
  -1   0  -8    5.41    0.32
   1   0   8    4.95    0.29
  -2   0  -8   31.51    0.95
   2   0   8   32.17    0.94
  -2   0  -8   31.75    0.97
  -3   0  -8   10.80    0.52
   3   0   8   10.65    0.51
  -3   0  -8   10.69    0.53
  -4  -1   8    3.83    0.38
   4  -1  -8    3.27    0.36
   4   1  -8    3.66    0.39
  -4   1   8    3.91    0.36
   3  -1  -8    0.12    0.17
  -3  -1   8    0.08    0.16
   3   1  -8    0.01    0.16
  -3   1   8   -0.01    0.15
   2  -1  -8    0.06    0.13
   2  -1  -8    0.08    0.14
   2   1  -8    0.02    0.13
   2   1  -8   -0.04    0.13
  -1  -1   8    0.03    0.08
   1  -1  -8    0.11    0.08
   1  -1  -8    0.19    0.12
   1  -1  -8    0.16    0.13
   1   1  -8    0.08    0.08
   1   1  -8    0.07    0.13
  -1   1   8    0.09    0.08
   1   1  -8    0.16    0.11
   0  -1  -8    4.44    0.28
   0  -1   8    4.04    0.23
   0  -1  -8    3.92    0.22
   0  -1  -8    4.21    0.24
   0   1  -8    4.06    0.22
   0   1   8    3.82    0.22
   0   1  -8    4.38    0.23
   0   1  -8    4.23    0.27
  -1  -1  -8    9.94    0.40
  -1  -1  -8   10.54    0.43
  -1  -1  -8   10.49    0.45
   1  -1   8    9.90    0.41
  -1   1  -8   10.96    0.45
   1   1   8   11.59    0.43
  -1   1  -8   10.44    0.42
   2  -1   8    1.01    0.19
  -2  -1  -8    1.06    0.20
  -2  -1  -8    0.82    0.20
  -2   1  -8    1.07    0.21
   2   1   8    0.89    0.18
  -2   1  -8    0.88    0.19
   3  -1   8    1.46    0.25
  -3  -1  -8    1.05    0.24
  -3  -1  -8    2.09    0.28
  -3   1  -8    2.00    0.29
   3   1   8    1.21    0.24
  -3   1  -8    1.71    0.27
  -4  -2   8   20.55    0.74
   4  -2  -8   19.16    0.74
   4   2  -8   19.43    0.73
  -4   2   8   19.90    0.72
   3  -2  -8    2.06    0.27
  -3  -2   8    2.14    0.28
  -3   2   8    2.31    0.27
   3   2  -8    2.28    0.28
   2  -2  -8    3.92    0.28
   2  -2  -8    3.47    0.27
   2   2  -8    3.80    0.28
   2   2  -8    3.59    0.27
   1  -2  -8   17.88    0.51
   1  -2  -8   17.44    0.57
   1  -2  -8   18.51    0.60
  -1  -2   8   18.42    0.50
   1   2  -8   17.27    0.50
   1   2  -8   18.51    0.60
   1   2  -8   16.75    0.56
  -1   2   8   18.76    0.52
   0  -2   8    1.50    0.17
   0  -2  -8    1.26    0.17
   0  -2  -8    1.12    0.18
   0  -2  -8    1.29    0.17
   0   2  -8    1.37    0.19
   0   2  -8    1.27    0.15
   0   2   8    1.21    0.16
   0   2  -8    1.54    0.17
   1  -2   8    0.96    0.16
  -1  -2  -8    1.27    0.19
  -1  -2  -8    1.25    0.15
  -1  -2  -8    1.50    0.19
  -1   2  -8    0.95    0.15
  -1   2  -8    1.22    0.20
   1   2   8    1.41    0.20
  -2  -2  -8   18.34    0.66
   2  -2   8   16.92    0.62
  -2  -2  -8   18.09    0.65
  -2   2  -8   20.58    0.69
  -2   2  -8   17.43    0.64
   2   2   8   17.89    0.63
   3  -2   8    7.29    0.43
  -3  -2  -8    7.16    0.45
  -3  -2  -8    7.71    0.45
  -3   2  -8    6.63    0.43
   3   2   8    7.89    0.44
  -3   2  -8    7.38    0.45
  -4  -3   8    2.94    0.35
   4  -3  -8    1.80    0.28
  -4   3   8    2.63    0.34
   4   3  -8    2.48    0.36
  -3  -3   8   13.33    0.55
   3  -3  -8   15.04    0.58
   3   3  -8   13.33    0.56
  -3   3   8   14.23    0.54
   2  -3  -8    9.05    0.40
   2  -3  -8    8.48    0.39
   2   3  -8    8.39    0.38
   2   3  -8    8.53    0.40
   1  -3  -8    0.75    0.17
  -1  -3   8    0.80    0.10
   1  -3  -8    0.58    0.11
   1  -3  -8    0.59    0.14
   1   3  -8    0.53    0.10
  -1   3   8    0.60    0.11
   1   3  -8    0.54    0.13
   1   3  -8    0.78    0.16
   0  -3  -8   10.11    0.42
   0  -3   8   10.41    0.37
   0  -3  -8   10.55    0.38
   0  -3  -8   10.30    0.38
   0   3   8   10.76    0.38
   0   3  -8   10.60    0.36
   0   3  -8   10.23    0.38
   0   3  -8    9.78    0.41
  -1  -3  -8   20.67    0.66
  -1  -3  -8   20.98    0.60
  -1  -3  -8   20.61    0.68
   1  -3   8   21.92    0.65
   1   3   8   20.44    0.65
  -1   3  -8   20.28    0.68
  -1   3  -8   21.24    0.66
  -2  -3  -8    3.63    0.31
   2  -3   8    4.13    0.30
  -2  -3  -8    3.86    0.29
   2   3   8    3.11    0.29
  -2   3  -8    3.63    0.31
  -2   3  -8    3.73    0.29
  -3  -3  -8    2.44    0.33
   3  -3   8    2.00    0.27
  -3  -3  -8    2.55    0.33
   3   3   8    2.25    0.32
  -3   3  -8    1.95    0.29
  -3   3  -8    1.89    0.28
   4  -4  -8    0.29    0.21
  -4  -4   8    0.07    0.20
   4   4  -8    0.63    0.23
  -4   4   8    0.39    0.21
  -3  -4   8    0.31    0.18
   3  -4  -8    0.35    0.17
   3   4  -8    0.43    0.17
  -3   4   8    0.31    0.16
   2  -4  -8    0.56    0.15
   2  -4  -8    0.41    0.15
   2   4  -8    0.69    0.16
   2   4  -8    0.77    0.17
  -1  -4   8    1.33    0.13
   1  -4  -8    1.29    0.14
   1  -4  -8    1.09    0.18
   1  -4  -8    1.33    0.18
   1   4  -8    1.72    0.21
  -1   4   8    1.19    0.14
   1   4  -8    1.37    0.18
   1   4  -8    0.88    0.12
   0  -4  -8    0.97    0.15
   0  -4   8    0.87    0.13
   0  -4  -8    1.05    0.15
   0  -4  -8    1.18    0.18
   0   4   8    0.70    0.13
   0   4  -8    0.83    0.16
   0   4  -8    1.14    0.15
   0   4  -8    0.89    0.14
  -1  -4  -8    3.87    0.23
  -1  -4  -8    4.15    0.30
  -1  -4  -8    3.70    0.26
   1  -4   8    3.61    0.25
   1   4   8    3.95    0.27
  -1   4  -8    4.75    0.28
  -1   4  -8    4.03    0.29
   2  -4   8    0.00    0.14
  -2  -4  -8    0.33    0.18
  -2  -4  -8    0.09    0.14
   2   4   8    0.24    0.15
  -2   4  -8    0.19    0.16
  -2   4  -8    0.23    0.16
  -3  -4  -8    0.14    0.18
  -3  -4  -8    0.06    0.18
   3  -4   8    0.38    0.19
   3   4   8    0.16    0.19
  -3   4  -8    0.34    0.20
  -3   4  -8    0.12    0.20
   4  -5  -8    1.77    0.29
  -4  -5   8    1.30    0.27
  -4   5   8    1.06    0.23
   4   5  -8    1.09    0.26
  -3  -5   8   14.15    0.57
   3  -5  -8   14.70    0.58
  -3   5   8   15.07    0.56
   3   5  -8   14.24    0.56
   2  -5  -8    9.00    0.39
   2  -5  -8    8.16    0.40
   2   5  -8    8.70    0.40
   2   5  -8    9.56    0.41
  -1  -5   8    1.18    0.13
   1  -5  -8    1.21    0.18
   1  -5  -8    0.99    0.17
   1  -5  -8    1.19    0.16
   1   5  -8    0.97    0.17
   1   5  -8    1.26    0.17
  -1   5   8    1.16    0.14
   1   5  -8    1.00    0.12
   0  -5  -8   23.99    0.73
   0  -5  -8   23.38    0.69
   0  -5   8   23.49    0.66
   0  -5  -8   22.26    0.68
   0   5  -8   23.46    0.67
   0   5  -8   24.14    0.65
   0   5  -8   23.80    0.72
   0   5   8   24.06    0.69
  -1  -5  -8   18.81    0.61
   1  -5   8   17.71    0.58
  -1  -5  -8   17.01    0.61
  -1  -5  -8   17.66    0.54
   1   5   8   18.65    0.60
  -1   5  -8   18.24    0.62
  -1   5  -8   17.49    0.59
   2  -5   8   -0.07    0.14
  -2  -5  -8    0.10    0.16
  -2  -5  -8    0.28    0.17
  -2   5  -8    0.44    0.18
   2   5   8    0.28    0.16
  -2   5  -8    0.42    0.18
   3  -5   8    2.78    0.32
  -3  -5  -8    2.59    0.35
  -3  -5  -8    2.33    0.34
   3   5   8    2.46    0.32
  -3   5  -8    3.12    0.35
  -3   5  -8    2.67    0.33
  -4  -6   8    3.13    0.36
   4  -6  -8    2.99    0.34
  -4   6   8    2.23    0.42
   4   6  -8    2.45    0.35
   3  -6  -8    0.36    0.18
  -3  -6   8    0.55    0.19
   3   6  -8    0.73    0.20
  -3   6   8    0.28    0.15
   2  -6  -8    0.91    0.18
   2  -6  -8    0.87    0.18
   2   6  -8    0.92    0.17
   2   6  -8    0.62    0.16
   1  -6  -8    7.71    0.36
   1  -6  -8    8.75    0.37
  -1  -6   8    7.78    0.28
   1  -6  -8    7.59    0.30
  -1   6   8    7.61    0.31
   1   6  -8    8.05    0.28
   1   6  -8    7.81    0.34
   1   6  -8    7.04    0.35
   0  -6  -8    6.53    0.31
   0  -6  -8    7.38    0.35
   0  -6   8    6.69    0.29
   0  -6  -8    7.00    0.32
   0   6  -8    6.67    0.35
   0   6  -8    7.10    0.30
   0   6  -8    7.31    0.29
   0   6   8    7.16    0.32
   1  -6   8    3.04    0.24
  -1  -6  -8    3.21    0.23
  -1  -6  -8    3.91    0.29
  -1  -6  -8    2.50    0.26
  -1   6  -8    3.23    0.26
  -1   6  -8    3.44    0.27
   1   6   8    3.24    0.26
  -2  -6  -8    3.09    0.30
  -2  -6  -8    3.85    0.30
   2  -6   8    3.18    0.29
  -2   6  -8    3.30    0.30
   2   6   8    3.42    0.30
  -2   6  -8    3.42    0.30
  -3  -6  -8    1.34    0.25
  -3  -6  -8    1.32    0.26
   3  -6   8    0.81    0.22
  -3   6  -8    1.24    0.25
   3   6   8    0.96    0.24
  -3   6  -8    1.09    0.24
   3  -7  -8    3.73    0.33
  -3  -7   8    4.33    0.33
   3   7  -8    3.89    0.34
  -3   7   8    3.78    0.30
   2  -7  -8    6.00    0.35
   2  -7  -8    5.53    0.31
   2   7  -8    5.76    0.33
   2   7  -8    5.44    0.33
   1  -7  -8    0.09    0.13
   1  -7  -8    0.25    0.11
  -1  -7   8    0.32    0.09
   1  -7  -8    0.19    0.13
   1   7  -8    0.39    0.09
   1   7  -8    0.32    0.14
   1   7  -8    0.27    0.12
  -1   7   8    0.26    0.10
   0  -7   8    2.50    0.20
   0  -7  -8    2.42    0.24
   0  -7  -8    2.16    0.21
   0  -7  -8    2.53    0.22
   0   7  -8    2.37    0.20
   0   7   8    2.62    0.22
   0   7  -8    2.63    0.18
   0   7  -8    1.85    0.23
  -1  -7  -8   17.54    0.60
  -1  -7  -8   16.44    0.59
   1  -7   8   18.04    0.57
  -1  -7  -8   16.84    0.54
  -1   7  -8   17.30    0.59
  -1   7  -8   16.76    0.57
   1   7   8   16.15    0.58
   2  -7   8    4.60    0.32
  -2  -7  -8    4.25    0.34
  -2  -7  -8    3.88    0.33
   2   7   8    4.93    0.34
  -2   7  -8    4.87    0.35
  -2   7  -8    5.20    0.34
   3  -7   8    1.92    0.28
  -3  -7  -8    1.36    0.26
  -3  -7  -8    1.59    0.28
  -3   7  -8    2.03    0.28
   3   7   8    1.69    0.26
  -3   7  -8    1.68    0.27
   3  -8  -8    0.16    0.18
  -3  -8   8    0.39    0.18
   3   8  -8    0.34    0.18
  -3   8   8    0.20    0.15
   2  -8  -8    9.20    0.43
   2  -8  -8    9.54    0.40
   2   8  -8    8.67    0.40
   2   8  -8    8.72    0.41
  -1  -8   8   27.47    0.73
   1  -8  -8   27.29    0.83
   1  -8  -8   28.97    0.78
   1  -8  -8   26.67    0.83
  -1   8   8   29.60    0.78
   1   8  -8   28.90    0.83
   1   8  -8   27.91    0.74
   1   8  -8   28.37    0.79
   0  -8   8   35.57    0.95
   0  -8  -8   37.57    1.00
   0  -8  -8   35.56    1.01
   0  -8  -8   35.50    0.99
   0   8  -8   36.40    1.00
   0   8  -8   34.68    0.95
   0   8  -8   36.72    0.93
   0   8   8   37.52    0.99
  -1  -8  -8    2.94    0.27
  -1  -8  -8    2.61    0.26
  -1  -8  -8    3.11    0.24
   1  -8   8    2.70    0.24
  -1   8  -8    2.83    0.25
   1   8   8    2.48    0.26
  -1   8  -8    3.13    0.27
   2  -8   8   19.33    0.66
  -2  -8  -8   17.77    0.68
  -2  -8  -8   18.67    0.68
  -2   8  -8   19.52    0.68
   2   8   8   18.52    0.67
  -2   8  -8   19.80    0.67
  -3  -8  -8   15.10    0.66
   3  -8   8   14.97    0.62
  -3  -8  -8   14.24    0.63
  -3   8  -8   16.26    0.64
  -3   8  -8   14.98    0.63
   3   8   8   15.81    0.65
   3  -9  -8    0.99    0.22
  -3  -9   8    0.60    0.21
   3   9  -8    0.73    0.21
  -3   9   8    1.02    0.19
   2  -9  -8    1.57    0.22
   2  -9  -8    1.53    0.20
   2   9  -8    1.52    0.23
   1  -9  -8    0.30    0.15
   1  -9  -8    0.07    0.11
  -1  -9   8    0.20    0.09
   1  -9  -8    0.33    0.14
  -1   9   8    0.20    0.11
   1   9  -8    0.10    0.13
   1   9  -8    0.04    0.12
   1   9  -8    0.19    0.09
   0  -9  -8    2.51    0.23
   0  -9  -8    2.61    0.24
   0  -9   8    2.45    0.20
   0  -9  -8    2.67    0.24
   0   9  -8    2.23    0.18
   0   9  -8    2.57    0.21
   0   9  -8    3.09    0.24
   0   9   8    2.62    0.22
  -1  -9  -8    0.01    0.12
   1  -9   8   -0.09    0.11
  -1  -9  -8    0.01    0.15
  -1  -9  -8   -0.12    0.14
  -1   9  -8    0.14    0.12
   1   9   8    0.18    0.14
  -1   9  -8    0.10    0.13
  -2  -9  -8    0.75    0.19
   2  -9   8    0.81    0.19
  -2  -9  -8    0.75    0.21
  -2   9  -8    0.64    0.18
  -2   9  -8    0.87    0.20
   2   9   8    0.73    0.20
  -3  -9  -8    0.25    0.21
  -3  -9  -8    0.16    0.22
   3  -9   8   -0.23    0.16
  -3   9  -8    0.33    0.20
   3   9   8    0.13    0.21
  -3   9  -8    0.16    0.20
  -3 -10   8    1.86    0.26
   3 -10  -8    2.63    0.32
   3  10  -8    2.23    0.30
   2 -10  -8    3.78    0.31
   2 -10  -8    3.36    0.26
   2  10  -8    3.39    0.29
   1 -10  -8   35.35    1.00
   1 -10  -8   32.65    0.96
   1 -10  -8   35.68    0.94
  -1 -10   8   35.60    0.89
   1  10  -8   34.23    0.90
   1  10  -8   33.57    0.97
   1  10  -8   37.05    0.96
  -1  10   8   34.80    0.94
   0 -10  -8   24.40    0.73
   0 -10  -8   22.85    0.73
   0 -10   8   24.50    0.69
   0 -10  -8   24.60    0.74
   0  10  -8   23.69    0.66
   0  10   8   23.38    0.72
   0  10  -8   24.72    0.74
   0  10  -8   23.69    0.69
  -1 -10  -8    0.14    0.16
  -1 -10  -8    0.71    0.19
  -1 -10  -8    0.06    0.13
   1 -10   8    0.11    0.13
  -1  10  -8    0.04    0.14
   1  10   8    0.05    0.14
  -1  10  -8    0.27    0.15
  -2 -10  -8   19.66    0.69
   2 -10   8   20.05    0.67
  -2 -10  -8   18.66    0.69
  -2  10  -8   18.91    0.67
  -2  10  -8   18.69    0.67
   2  10   8   17.35    0.67
   3 -10   8   11.86    0.55
  -3 -10  -8   11.04    0.58
  -3 -10  -8   12.42    0.58
   3  10   8   12.15    0.58
  -3  10  -8   10.32    0.52
  -3  10  -8   12.11    0.56
  -3 -11   8    0.29    0.19
   3 -11  -8    0.34    0.20
   3  11  -8    0.00    0.18
   2 -11  -8    6.02    0.32
   2 -11  -8    5.86    0.38
  -2 -11   8    5.17    0.35
   2  11  -8    5.80    0.35
   1 -11  -8    5.37    0.34
  -1 -11   8    6.46    0.26
   1 -11  -8    5.52    0.32
   1 -11  -8    5.93    0.30
   1  11  -8    5.60    0.30
  -1  11   8    5.92    0.29
   1  11  -8    6.64    0.33
   1  11  -8    5.91    0.26
   0 -11  -8    0.34    0.14
   0 -11   8    0.12    0.11
   0 -11  -8    0.14    0.14
   0 -11  -8    0.18    0.13
   0  11  -8    0.26    0.13
   0  11   8    0.16    0.12
   0  11  -8    0.00    0.11
   0  11  -8    0.12    0.10
  -1 -11  -8    9.16    0.42
   1 -11   8    8.74    0.39
  -1 -11  -8    9.28    0.42
  -1 -11  -8    7.92    0.38
  -1  11  -8    9.13    0.40
  -1  11  -8    8.55    0.39
   1  11   8    8.94    0.42
   2 -11   8    1.54    0.22
  -2 -11  -8    1.72    0.26
  -2 -11  -8    1.27    0.24
  -2  11  -8    1.81    0.25
  -2  11  -8    1.77    0.25
   2  11   8    1.18    0.23
  -3 -12   8    0.37    0.20
   3 -12  -8    0.35    0.21
   3  12  -8    0.02    0.17
   2 -12  -8    6.20    0.41
   2 -12  -8    6.20    0.33
  -2 -12   8    6.13    0.36
   2  12  -8    7.24    0.38
  -1 -12   8    7.63    0.30
   1 -12  -8    7.78    0.36
   1 -12  -8    7.10    0.38
   1 -12  -8    7.58    0.35
  -1  12   8    6.99    0.33
   1  12  -8    7.27    0.30
   1  12  -8    7.40    0.36
   1  12  -8    7.38    0.34
   0 -12  -8    0.86    0.17
   0 -12  -8    0.45    0.16
   0 -12   8    0.58    0.14
   0 -12  -8    0.53    0.16
   0  12  -8    0.45    0.15
   0  12   8    0.93    0.17
   0  12  -8    0.61    0.14
   0  12  -8    0.48    0.13
  -1 -12  -8    2.85    0.29
  -1 -12  -8    2.93    0.25
   1 -12   8    2.97    0.25
  -1 -12  -8    3.21    0.28
  -1  12  -8    2.85    0.26
  -1  12  -8    2.90    0.25
   1  12   8    2.76    0.29
  -2 -12  -8    3.79    0.33
  -2 -12  -8    3.44    0.34
   2 -12   8    3.39    0.31
  -2  12  -8    3.19    0.31
  -2  12  -8    3.71    0.31
   2  12   8    2.77    0.32
  -3 -13   8   10.54    0.51
   3 -13  -8   10.67    0.54
   3  13  -8   11.46    0.52
  -2 -13   8    5.03    0.34
   2 -13  -8    5.84    0.39
   2  13  -8    5.72    0.35
  -1 -13   8    0.78    0.13
   1 -13  -8    0.72    0.16
   1 -13  -8    1.03    0.20
   1 -13  -8    0.68    0.16
   1  13  -8    1.01    0.18
   1  13  -8    0.93    0.17
   1  13  -8    0.82    0.14
  -1  13   8    1.16    0.17
   0 -13   8    6.92    0.32
   0 -13  -8    7.47    0.37
   0 -13  -8    7.34    0.37
   0 -13  -8    7.01    0.36
   0  13   8    6.99    0.35
   0  13  -8    6.90    0.33
   0  13  -8    6.76    0.34
   1 -13   8    9.71    0.43
  -1 -13  -8   10.12    0.44
  -1 -13  -8   10.16    0.47
  -1 -13  -8    9.92    0.46
   1  13   8   10.07    0.46
  -1  13  -8   10.53    0.43
  -1  13  -8   10.21    0.44
  -2 -13  -8    2.38    0.32
  -2 -13  -8    2.51    0.30
   2 -13   8    2.30    0.30
   2  13   8    2.82    0.32
  -2  13  -8    2.14    0.26
  -2  13  -8    2.36    0.31
  -3 -14   8    0.00    0.19
   3 -14  -8   -0.28    0.19
   3  14  -8    0.09    0.19
   2 -14  -8    0.12    0.17
  -2 -14   8    0.05    0.16
   2  14  -8   -0.02    0.15
   1 -14  -8    0.38    0.14
   1 -14  -8    0.38    0.14
   1 -14  -8    0.45    0.18
  -1 -14   8    0.26    0.11
   1  14  -8    0.51    0.16
   1  14  -8    0.54    0.14
   1  14  -8    0.33    0.14
  -1  14   8    0.45    0.14
   0 -14  -8    0.46    0.17
   0 -14   8    0.61    0.15
   0 -14  -8    0.27    0.14
   0 -14  -8    0.73    0.17
   0  14  -8    0.51    0.15
   0  14  -8    0.36    0.14
   0  14   8    0.52    0.16
  -1 -14  -8    0.43    0.18
   1 -14   8    0.37    0.16
  -1 -14  -8    0.32    0.16
  -1 -14  -8    0.67    0.19
  -1  14  -8    0.27    0.15
  -1  14  -8    0.27    0.15
   1  14   8    0.57    0.19
  -2 -14  -8    0.60    0.22
   2 -14   8    0.21    0.18
  -2 -14  -8    0.29    0.20
  -2  14  -8    0.28    0.16
   2  14   8    0.28    0.20
  -2  14  -8    0.45    0.19
  -3 -15   8    6.02    0.42
   3 -15  -8    5.98    0.45
   3  15  -8    6.89    0.43
  -2 -15   8   11.82    0.50
   2 -15  -8   10.70    0.53
   2  15  -8   11.60    0.50
   1 -15  -8    0.13    0.17
  -1 -15   8    0.08    0.11
   1 -15  -8    0.25    0.13
   1 -15  -8    0.14    0.14
   1  15  -8    0.02    0.12
   1  15  -8    0.53    0.15
  -1  15   8   -0.04    0.12
   0 -15  -8   14.74    0.53
   0 -15  -8   15.56    0.57
   0 -15  -8   13.78    0.57
   0 -15   8   15.10    0.52
   0  15  -8   15.12    0.52
   0  15  -8   14.33    0.52
   0  15   8   15.26    0.55
  -1 -15  -8   26.67    0.84
  -1 -15  -8   27.35    0.85
   1 -15   8   26.69    0.83
  -1 -15  -8   26.81    0.87
  -1  15  -8   27.13    0.81
  -1  15  -8   28.23    0.85
   1  15   8   27.13    0.86
   2 -15   8    2.53    0.30
  -2 -15  -8    1.94    0.32
  -2 -15  -8    1.91    0.28
  -2 -15  -8    2.20    0.30
  -2  15  -8    2.25    0.31
   2  15   8    2.56    0.32
   3 -16  -8    0.05    0.21
  -3 -16   8    0.24    0.21
   3  16  -8    0.20    0.19
  -2 -16   8    0.27    0.18
   2 -16  -8    0.34    0.21
   2  16  -8    0.20    0.17
   1 -16  -8   13.26    0.57
  -1 -16   8   13.78    0.61
   1 -16  -8   14.03    0.52
   1  16  -8   14.38    0.52
   1  16  -8   14.27    0.51
  -1  16   8   14.21    0.52
   0 -16  -8   13.32    0.54
   0 -16  -8   12.24    0.48
   0 -16   8   12.28    0.47
   0 -16  -8   12.66    0.52
   0  16   8   12.57    0.51
   0  16  -8   12.92    0.48
   0  16  -8   12.88    0.47
  -1 -16  -8    0.03    0.16
  -1 -16  -8    0.15    0.18
  -1 -16  -8    0.10    0.16
   1 -16   8   -0.02    0.14
  -1  16  -8    0.03    0.13
   1  16   8   -0.11    0.15
  -1  16  -8    0.03    0.16
  -2 -16  -8    7.64    0.45
   2 -16   8    7.36    0.42
  -2 -16  -8    6.81    0.45
  -2 -16  -8    6.70    0.40
  -2  16  -8    6.13    0.42
   2  16   8    6.42    0.44
   3 -17  -8    3.94    0.42
  -3 -17   8    3.99    0.37
   3  17  -8    3.52    0.36
   2 -17  -8    4.55    0.38
  -2 -17   8    4.56    0.35
   2  17  -8    4.24    0.34
   1 -17  -8    0.92    0.19
   1 -17  -8    0.12    0.18
  -1  17   8    0.75    0.17
   1  17  -8    0.82    0.17
   1  17  -8    0.46    0.16
   0 -17  -8    3.06    0.30
   0 -17  -8    3.21    0.26
   0 -17   8    3.39    0.27
   0 -17  -8    2.99    0.32
   0  17   8    3.00    0.30
   0  17  -8    3.10    0.24
   0  17  -8    2.74    0.25
  -1 -17  -8    2.06    0.28
  -1 -17  -8    2.49    0.30
   1 -17   8    2.42    0.29
  -1 -17  -8    2.58    0.32
  -1  17  -8    2.00    0.24
   1  17   8    1.65    0.25
  -1  17  -8    2.21    0.25
  -2 -17  -8    0.32    0.20
  -2 -17  -8    0.70    0.23
   2 -17   8    0.39    0.20
  -2 -17  -8    0.64    0.21
  -2  17  -8    0.67    0.22
   2  17   8    0.61    0.22
   2 -18  -8    8.49    0.49
  -2 -18   8    8.92    0.44
   2  18  -8    8.25    0.45
   1 -18  -8   10.74    0.46
   1 -18  -8    9.89    0.50
   1  18  -8   10.44    0.44
  -1  18   8    9.79    0.44
   1  18  -8   10.53    0.43
   0 -18   8    7.07    0.36
   0 -18  -8    7.68    0.41
   0 -18  -8    6.13    0.40
   0  18   8    6.62    0.39
   0  18  -8    6.19    0.33
   0  18  -8    6.35    0.36
  -1 -18  -8    1.63    0.24
  -1 -18  -8    1.49    0.26
  -1 -18  -8    1.63    0.25
   1 -18   8    1.43    0.22
   1  18   8    1.38    0.24
  -1  18  -8    1.65    0.24
  -2 -18  -8   11.58    0.59
  -2 -18  -8   12.36    0.57
  -2 -18  -8   12.04    0.54
   2 -18   8   13.17    0.57
   2  18   8   11.96    0.58
  -2  18  -8   11.81    0.56
  -2 -19   8   -0.29    0.16
   2 -19  -8    0.22    0.21
   2  19  -8    0.25    0.18
   1 -19  -8    0.97    0.23
   1 -19  -8    0.82    0.19
   1  19  -8    1.09    0.20
  -1  19   8    0.95    0.19
   0 -19   8    0.01    0.13
   0 -19  -8   -0.17    0.16
   0 -19  -8    0.05    0.18
   0  19  -8   -0.06    0.12
   0  19  -8    0.12    0.15
   0  19   8    0.01    0.15
  -1 -19  -8    0.51    0.20
  -1 -19  -8    0.67    0.19
   1 -19   8    0.52    0.18
  -1 -19  -8    0.52    0.22
   1  19   8    0.33    0.18
  -1  19  -8    0.48    0.18
   2 -20  -8    0.63    0.24
  -2 -20   8    0.40    0.19
   2  20  -8    0.63    0.21
   1 -20  -8   16.93    0.63
  -1 -20   8   17.37    0.60
   1 -20  -8   17.71    0.68
   1  20  -8   16.65    0.60
  -1  20   8   16.54    0.62
   0 -20  -8    4.75    0.38
   0 -20   8    5.69    0.33
   0 -20  -8    4.29    0.37
   0  20  -8    4.50    0.34
   0  20   8    4.86    0.36
   0  20  -8    3.97    0.42
  -1 -20  -8    0.37    0.19
   1 -20   8    0.36    0.18
  -1 -20  -8    0.17    0.25
  -1 -20  -8    0.41    0.20
   1  20   8    0.38    0.19
  -1  20  -8    0.06    0.17
  -2 -21   8    1.74    0.26
   2 -21  -8    2.32    0.33
   2  21  -8    2.24    0.29
   1 -21  -8    0.35    0.19
  -1 -21   8    0.18    0.17
   1 -21  -8    0.01    0.19
  -1  21   8    0.12    0.16
   0 -21  -8    3.62    0.37
   0 -21  -8    3.82    0.36
   0 -21   8    4.34    0.32
   0  21   8    3.99    0.34
   0  21  -8    4.62    0.34
   1 -21   8    8.56    0.45
  -1 -21  -8    7.94    0.48
  -1 -21  -8    8.38    0.50
   1  21   8    7.84    0.46
  -1  21  -8    8.79    0.46
   2 -22  -8    3.31    0.38
  -2 -22   8    3.49    0.33
   2  22  -8    4.39    0.37
  -1 -22   8    3.99    0.33
   1 -22  -8    4.46    0.39
  -1 -22   8    3.94    0.32
   1 -22  -8    3.45    0.36
  -1  22   8    4.11    0.34
   0 -22  -8    2.79    0.34
   0 -22  -8    3.36    0.38
   0 -22   8    2.54    0.28
   0  22  -8    2.59    0.29
   0  22   8    2.85    0.34
  -1 -22  -8   -0.03    0.21
  -1 -22  -8    0.07    0.20
   1 -22   8   -0.07    0.17
   1  22   8   -0.18    0.17
  -1  22  -8   -0.08    0.19
   1 -23  -8    0.26    0.22
  -1 -23   8   -0.02    0.17
   1 -23  -8   -0.01    0.18
  -1  23   8    0.04    0.17
   0 -23  -8    9.06    0.51
   0 -23  -8    8.42    0.49
   0 -23   8    8.86    0.44
   0  23  -8    7.55    0.43
   0  23   8    8.79    0.47
   1 -24  -8    0.39    0.22
   1 -24  -8    0.44    0.23
  -1  24   8    0.75    0.22
   0 -24   8    1.45    0.24
   0 -24  -8    2.32    0.35
   0 -24  -8    1.22    0.26
   0  24   8    1.41    0.25
   3   0  -9    0.19    0.18
  -3   0   9   -0.09    0.18
   2   0  -9   -0.08    0.15
   2   0  -9    0.13    0.14
   1   0  -9    0.00    0.09
   1   0  -9   -0.07    0.11
   1   0  -9    0.11    0.15
  -1   0   9   -0.01    0.09
   0   0  -9   -0.09    0.10
   0   0   9    0.02    0.10
   0   0  -9   -0.05    0.13
   0   0  -9    0.10    0.11
   1   0   9    0.12    0.13
  -1   0  -9   -0.04    0.14
  -1   0  -9    0.02    0.15
   2   0   9    0.28    0.18
  -2   0  -9    0.08    0.17
  -2   0  -9   -0.17    0.16
   3  -1  -9   16.40    0.63
  -3  -1   9   16.91    0.65
   3   1  -9   15.64    0.62
  -3   1   9   15.53    0.63
   2  -1  -9   12.72    0.52
   2  -1  -9   11.16    0.48
   2   1  -9   11.60    0.48
   2   1  -9   11.47    0.50
   1  -1  -9    5.28    0.24
   1  -1  -9    5.52    0.34
  -1  -1   9    5.02    0.24
   1  -1  -9    4.73    0.29
  -1   1   9    5.34    0.25
   1   1  -9    4.97    0.24
   1   1  -9    5.37    0.33
   1   1  -9    5.33    0.29
   0  -1  -9   16.42    0.53
   0  -1  -9   17.20    0.60
   0  -1  -9   17.17    0.55
   0  -1   9   16.88    0.54
   0   1  -9   17.65    0.54
   0   1  -9   16.80    0.54
   0   1  -9   16.77    0.60
   0   1   9   17.58    0.55
  -1  -1  -9   18.65    0.63
   1  -1   9   18.52    0.62
  -1  -1  -9   19.81    0.67
  -1   1  -9   18.17    0.66
   1   1   9   17.93    0.62
  -1   1  -9   19.05    0.63
   2  -1   9    0.12    0.16
  -2  -1  -9   -0.03    0.16
  -2  -1  -9    0.23    0.18
   2   1   9    0.44    0.18
  -2   1  -9   -0.14    0.17
  -2   1  -9   -0.07    0.16
   3  -2  -9    0.22    0.18
  -3  -2   9    0.01    0.18
   3   2  -9    0.08    0.18
  -3   2   9    0.01    0.17
   2  -2  -9   12.61    0.52
   2  -2  -9   13.70    0.54
   2   2  -9   14.14    0.55
   2   2  -9   14.62    0.53
   1  -2  -9   10.73    0.46
  -1  -2   9   10.35    0.36
   1  -2  -9   10.36    0.42
   1  -2  -9   11.11    0.37
  -1   2   9   10.30    0.37
   1   2  -9   10.26    0.41
   1   2  -9   11.49    0.37
   1   2  -9    9.47    0.44
   0  -2   9    2.11    0.21
   0  -2  -9    2.09    0.20
   0  -2  -9    2.25    0.25
   0  -2  -9    2.23    0.21
   0   2   9    1.94    0.20
   0   2  -9    1.88    0.21
   0   2  -9    2.42    0.25
   0   2  -9    1.92    0.19
   1  -2   9    0.23    0.14
  -1  -2  -9   -0.01    0.14
  -1  -2  -9    0.40    0.17
   1   2   9    0.24    0.14
  -1   2  -9    0.28    0.16
  -1   2  -9    0.21    0.17
  -2  -2  -9    7.70    0.43
  -2  -2  -9    8.19    0.46
   2  -2   9    7.69    0.42
  -2   2  -9    7.68    0.44
   2   2   9    7.54    0.42
  -2   2  -9    8.23    0.42
  -3  -3   9    5.59    0.39
   3  -3  -9    5.36    0.38
  -3   3   9    5.76    0.38
   3   3  -9    4.95    0.37
   2  -3  -9    0.03    0.14
   2  -3  -9    0.41    0.17
   2   3  -9    0.50    0.18
   2   3  -9    0.29    0.15
  -1  -3   9    0.14    0.09
   1  -3  -9    0.18    0.15
   1  -3  -9   -0.05    0.10
   1  -3  -9    0.11    0.13
   1   3  -9   -0.02    0.11
  -1   3   9    0.00    0.10
   1   3  -9   -0.03    0.10
   1   3  -9   -0.06    0.13
   0  -3   9   13.00    0.45
   0  -3  -9   12.93    0.46
   0  -3  -9   13.12    0.46
   0  -3  -9   13.22    0.51
   0   3  -9   12.86    0.45
   0   3  -9   13.41    0.44
   0   3   9   12.07    0.45
   0   3  -9   12.30    0.50
  -1  -3  -9    0.08    0.14
  -1  -3  -9   -0.05    0.15
   1  -3   9    0.19    0.13
  -1   3  -9    0.01    0.15
   1   3   9    0.18    0.14
  -1   3  -9    0.03    0.14
   2  -3   9    0.16    0.16
  -2  -3  -9    0.21    0.19
  -2  -3  -9    0.43    0.19
  -2   3  -9    0.13    0.18
  -2   3  -9    0.40    0.20
   2   3   9    0.31    0.18
   3  -4  -9    1.51    0.25
  -3  -4   9    1.62    0.25
   3   4  -9    1.50    0.25
  -3   4   9    1.92    0.26
   2  -4  -9   12.11    0.51
   2  -4  -9   11.95    0.51
   2   4  -9   12.44    0.50
   2   4  -9   12.00    0.51
  -1  -4   9   16.06    0.48
   1  -4  -9   16.04    0.56
   1  -4  -9   16.59    0.50
   1  -4  -9   16.41    0.59
   1   4  -9   15.58    0.61
  -1   4   9   15.73    0.50
   1   4  -9   15.33    0.53
   1   4  -9   16.99    0.59
   0  -4  -9    0.14    0.12
   0  -4   9    0.04    0.10
   0  -4  -9    0.06    0.12
   0  -4  -9    0.11    0.15
   0   4  -9    0.06    0.10
   0   4  -9    0.30    0.15
   0   4   9   -0.01    0.11
   0   4  -9   -0.06    0.10
  -1  -4  -9    7.79    0.41
  -1  -4  -9    7.80    0.39
   1  -4   9    7.15    0.36
  -1   4  -9    7.36    0.38
  -1   4  -9    8.37    0.41
   1   4   9    7.88    0.38
  -2  -4  -9    6.30    0.42
  -2  -4  -9    7.12    0.42
   2  -4   9    7.93    0.41
   2   4   9    6.75    0.41
  -2   4  -9    7.04    0.41
  -2   4  -9    7.19    0.43
  -3  -5   9    1.63    0.25
   3  -5  -9    2.14    0.29
  -3   5   9    1.44    0.24
   3   5  -9    1.72    0.26
   2  -5  -9    0.26    0.16
   2  -5  -9    0.11    0.14
   2   5  -9    0.16    0.15
   2   5  -9    0.26    0.16
   1  -5  -9   -0.05    0.10
  -1  -5   9    0.05    0.10
   1  -5  -9    0.02    0.14
   1  -5  -9    0.14    0.13
   1   5  -9    0.21    0.12
  -1   5   9    0.19    0.10
   1   5  -9    0.20    0.15
   0  -5  -9    0.02    0.12
   0  -5  -9    0.10    0.15
   0  -5   9    0.13    0.11
   0  -5  -9    0.23    0.12
   0   5  -9    0.17    0.14
   0   5  -9    0.01    0.10
   0   5   9    0.08    0.12
   0   5  -9    0.23    0.12
  -1  -5  -9    3.32    0.29
  -1  -5  -9    3.61    0.31
   1  -5   9    3.00    0.26
  -1  -5  -9    3.09    0.29
  -1   5  -9    3.32    0.30
  -1   5  -9    3.43    0.28
   1   5   9    3.56    0.29
  -2  -5  -9    0.04    0.19
  -2  -5  -9   -0.12    0.17
   2  -5   9    0.24    0.16
   2   5   9    0.11    0.18
  -2   5  -9   -0.05    0.17
  -2   5  -9   -0.07    0.16
   3  -6  -9   -0.26    0.17
  -3  -6   9    0.23    0.19
   3   6  -9    0.19    0.19
  -3   6   9   -0.16    0.16
   2  -6  -9   10.87    0.48
   2  -6  -9   11.93    0.50
   2   6  -9   11.42    0.48
   2   6  -9   11.44    0.49
   1  -6  -9   16.75    0.59
   1  -6  -9   15.37    0.56
   1  -6  -9   16.29    0.51
   1   6  -9   15.34    0.57
   1   6  -9   16.01    0.53
  -1   6   9   15.89    0.50
   0  -6  -9    3.11    0.25
   0  -6  -9    3.24    0.26
   0  -6   9    3.67    0.24
   0  -6  -9    3.63    0.29
   0   6  -9    3.19    0.22
   0   6  -9    3.26    0.23
   0   6   9    3.58    0.25
   0   6  -9    3.19    0.28
  -1  -6  -9    8.13    0.41
  -1  -6  -9    8.48    0.43
  -1  -6  -9    8.05    0.34
   1  -6   9    7.84    0.38
  -1   6  -9    7.70    0.40
  -1   6  -9    8.14    0.39
   1   6   9    8.39    0.40
  -2  -6  -9   11.64    0.55
  -2  -6  -9   11.57    0.54
   2  -6   9   12.19    0.52
  -2   6  -9   12.57    0.55
   2   6   9   13.53    0.55
  -2   6  -9   11.84    0.54
   3  -7  -9    7.88    0.45
  -3  -7   9    7.14    0.44
   3   7  -9    8.69    0.46
  -3   7   9    7.40    0.42
   2  -7  -9    3.92    0.30
   2  -7  -9    4.50    0.33
   2   7  -9    3.76    0.30
   2   7  -9    3.56    0.31
   1  -7  -9    1.92    0.20
   1  -7  -9    1.88    0.25
   1  -7  -9    1.79    0.24
   1   7  -9    1.93    0.24
   1   7  -9    2.13    0.22
  -1   7   9    2.08    0.19
   0  -7  -9   20.85    0.66
   0  -7  -9   21.68    0.67
   0  -7   9   21.59    0.64
   0  -7  -9   20.19    0.69
   0   7   9   20.96    0.66
   0   7  -9   21.20    0.61
   0   7  -9   20.36    0.69
   0   7  -9   20.64    0.63
  -1  -7  -9   13.81    0.56
  -1  -7  -9   13.89    0.49
  -1  -7  -9   14.50    0.55
   1  -7   9   12.96    0.51
  -1   7  -9   14.01    0.55
   1   7   9   14.98    0.56
  -1   7  -9   14.19    0.53
   2  -7   9    0.83    0.20
  -2  -7  -9    0.32    0.20
  -2  -7  -9    0.25    0.21
   2   7   9    0.43    0.19
  -2   7  -9    0.35    0.19
  -2   7  -9    0.40    0.18
   3  -8  -9    0.93    0.23
  -3  -8   9    0.70    0.22
  -3   8   9    0.79    0.21
   3   8  -9    1.10    0.24
   2  -8  -9    5.64    0.37
   2  -8  -9    5.99    0.35
   2   8  -9    5.63    0.34
   2   8  -9    5.77    0.36
   1  -8  -9    2.19    0.21
   1  -8  -9    2.35    0.25
   1  -8  -9    2.55    0.27
   1   8  -9    1.81    0.22
  -1   8   9    2.29    0.20
   1   8  -9    1.77    0.24
   0  -8  -9    1.28    0.19
   0  -8   9    1.56    0.20
   0  -8  -9    1.19    0.19
   0  -8  -9    1.32    0.21
   0   8  -9    1.65    0.23
   0   8  -9    1.62    0.26
   0   8  -9    1.43    0.19
   0   8   9    1.52    0.22
  -1  -8  -9    0.05    0.17
   1  -8   9    0.56    0.16
  -1  -8  -9    0.32    0.14
  -1  -8  -9    0.46    0.18
  -1   8  -9    0.14    0.16
   1   8   9    0.44    0.16
  -1   8  -9    0.39    0.16
   2  -8   9    3.29    0.32
  -2  -8  -9    3.35    0.35
  -2  -8  -9    2.65    0.32
  -2   8  -9    2.63    0.32
   2   8   9    3.00    0.33
  -2   8  -9    3.37    0.32
  -3  -9   9   18.82    0.72
   3  -9  -9   18.44    0.72
   3   9  -9   20.07    0.72
   2  -9  -9    1.37    0.22
   2  -9  -9    1.36    0.22
   2   9  -9    1.50    0.22
   2   9  -9    1.68    0.23
   1  -9  -9   25.67    0.81
   1  -9  -9   26.08    0.74
   1  -9  -9   24.41    0.79
   1   9  -9   26.51    0.76
  -1   9   9   24.98    0.74
   1   9  -9   26.01    0.80
   0  -9  -9   21.10    0.68
   0  -9  -9   20.95    0.67
   0  -9  -9   21.07    0.70
   0  -9   9   20.65    0.64
   0   9  -9   21.74    0.71
   0   9   9   21.29    0.67
   0   9  -9   21.18    0.65
  -1  -9  -9   11.84    0.50
  -1  -9  -9   10.53    0.45
  -1  -9  -9   11.75    0.51
   1  -9   9   12.99    0.49
   1   9   9   11.57    0.50
  -1   9  -9   11.39    0.48
  -1   9  -9   12.26    0.50
   2  -9   9   -0.11    0.15
  -2  -9  -9   -0.04    0.16
  -2  -9  -9   -0.13    0.19
   2   9   9    0.00    0.18
  -2   9  -9    0.09    0.18
  -2   9  -9    0.09    0.17
  -3 -10   9    0.44    0.21
   3 -10  -9    0.29    0.21
   3  10  -9    0.18    0.20
   2 -10  -9    1.20    0.21
   2 -10  -9    1.76    0.25
   2  10  -9    1.81    0.26
   2  10  -9    1.46    0.23
   1 -10  -9    0.20    0.16
   1 -10  -9    0.23    0.15
   1 -10  -9    0.00    0.12
   1  10  -9    0.11    0.15
   1  10  -9    0.12    0.14
  -1  10   9    0.06    0.11
   0 -10  -9    5.74    0.34
   0 -10   9    5.33    0.29
   0 -10  -9    5.70    0.34
   0 -10  -9    5.37    0.34
   0  10   9    5.85    0.34
   0  10  -9    5.55    0.30
   0  10  -9    5.53    0.34
   1 -10   9    0.27    0.15
  -1 -10  -9    0.10    0.17
  -1 -10  -9    0.34    0.15
  -1 -10  -9   -0.18    0.15
  -1  10  -9   -0.02    0.14
   1  10   9    0.04    0.15
  -1  10  -9    0.20    0.16
  -2 -10  -9    0.27    0.21
   2 -10   9    0.18    0.16
  -2 -10  -9    0.48    0.21
  -2  10  -9    0.21    0.17
  -2  10  -9    0.51    0.19
   2  10   9    0.38    0.21
   3 -11  -9   10.19    0.54
  -3 -11   9    9.37    0.49
   3  11  -9    8.88    0.48
   2 -11  -9    2.93    0.32
   2 -11  -9    3.60    0.29
   2  11  -9    2.19    0.28
   1 -11  -9    2.33    0.24
   1 -11  -9    2.71    0.27
   1 -11  -9    1.92    0.27
  -1  11   9    1.96    0.22
   1  11  -9    2.08    0.25
   1  11  -9    2.56    0.25
   0 -11  -9   13.04    0.52
   0 -11  -9   13.48    0.52
   0 -11   9   12.97    0.47
   0 -11  -9   13.01    0.51
   0  11  -9   13.09    0.48
   0  11   9   13.69    0.51
   0  11  -9   13.30    0.51
   1 -11   9    4.62    0.31
  -1 -11  -9    4.84    0.35
  -1 -11  -9    4.68    0.32
  -1 -11  -9    4.89    0.34
  -1  11  -9    5.76    0.34
   1  11   9    4.54    0.34
  -1  11  -9    4.67    0.32
   2 -11   9    0.18    0.18
  -2 -11  -9    0.61    0.21
  -2 -11  -9    0.62    0.23
  -2  11  -9    0.38    0.20
  -2  11  -9    0.22    0.19
   2  11   9    0.20    0.20
  -3 -12   9    0.39    0.21
   3 -12  -9    0.27    0.22
   3  12  -9   -0.07    0.18
   2 -12  -9    9.46    0.49
   2 -12  -9    9.31    0.43
   2  12  -9    9.69    0.45
   1 -12  -9    0.46    0.17
   1 -12  -9    0.47    0.15
   1 -12  -9    0.33    0.18
   1  12  -9    0.73    0.18
   1  12  -9    0.49    0.16
  -1  12   9    0.49    0.14
   0 -12   9    2.51    0.24
   0 -12  -9    3.12    0.30
   0 -12  -9    2.28    0.26
   0 -12  -9    2.88    0.27
   0  12  -9    2.50    0.26
   0  12  -9    2.16    0.23
   0  12   9    2.29    0.26
   1 -12   9    5.36    0.33
  -1 -12  -9    5.29    0.37
  -1 -12  -9    5.05    0.36
  -1 -12  -9    5.01    0.33
   1  12   9    4.85    0.35
  -1  12  -9    5.51    0.35
  -1  12  -9    5.61    0.34
  -2 -12  -9    2.05    0.30
  -2 -12  -9    2.13    0.29
   2 -12   9    2.37    0.31
  -2  12  -9    2.01    0.28
  -2  12  -9    2.31    0.32
   2  12   9    2.51    0.34
  -3 -13   9    0.09    0.20
   3 -13  -9    0.01    0.21
   3  13  -9   -0.05    0.18
  -2 -13   9    0.59    0.19
   2 -13  -9    0.33    0.20
   2  13  -9    0.42    0.18
   1 -13  -9    1.65    0.22
   1 -13  -9    1.76    0.25
   1 -13  -9    1.48    0.20
   1  13  -9    1.78    0.25
  -1  13   9    1.61    0.23
   1  13  -9    1.71    0.23
   0 -13   9    7.74    0.35
   0 -13  -9    7.60    0.40
   0 -13  -9    7.42    0.39
   0 -13  -9    8.24    0.39
   0  13  -9    7.02    0.35
   0  13  -9    7.04    0.38
   0  13   9    7.25    0.39
  -1 -13  -9    2.04    0.29
  -1 -13  -9    2.12    0.27
  -1 -13  -9    1.78    0.26
   1 -13   9    2.10    0.26
   1  13   9    1.72    0.25
  -1  13  -9    1.99    0.27
  -1  13  -9    2.25    0.28
   2 -13   9   -0.02    0.18
  -2 -13  -9   -0.11    0.18
  -2 -13  -9    0.00    0.21
  -2  13  -9    0.09    0.18
   2  13   9   -0.32    0.17
  -2  13  -9   -0.07    0.17
  -3 -14   9    0.31    0.21
   3 -14  -9    0.27    0.24
   3  14  -9    0.07    0.20
   2 -14  -9    4.28    0.39
  -2 -14   9    4.37    0.36
   2  14  -9    4.57    0.35
   1 -14  -9   18.87    0.63
   1 -14  -9   18.42    0.63
   1 -14  -9   18.77    0.68
  -1  14   9   18.32    0.62
   1  14  -9   18.45    0.64
   1  14  -9   18.37    0.62
   0 -14  -9    1.34    0.23
   0 -14  -9    1.68    0.23
   0 -14   9    1.07    0.18
   0 -14  -9    1.31    0.23
   0  14   9    1.39    0.22
   0  14  -9    1.26    0.19
   0  14  -9    0.98    0.19
  -1 -14  -9   10.40    0.49
  -1 -14  -9    9.22    0.45
   1 -14   9    9.86    0.45
  -1 -14  -9   10.23    0.50
  -1  14  -9    9.93    0.45
   1  14   9    9.96    0.49
  -1  14  -9    9.87    0.46
   2 -14   9   12.57    0.55
  -2 -14  -9   11.74    0.56
  -2 -14  -9   10.92    0.56
  -2  14  -9   11.57    0.52
   2  14   9   13.23    0.59
  -2  14  -9   12.37    0.57
   2 -15  -9    0.67    0.23
  -2 -15   9    0.82    0.22
   2  15  -9    0.77    0.21
   1 -15  -9    0.39    0.17
   1 -15  -9    0.51    0.21
   1  15  -9    0.33    0.17
  -1  15   9    0.33    0.14
   1  15  -9    0.25    0.15
   0 -15  -9   10.33    0.49
   0 -15  -9   11.28    0.49
   0 -15   9   10.13    0.44
   0 -15  -9   11.14    0.47
   0  15  -9   10.66    0.46
   0  15  -9   11.11    0.45
   0  15   9   11.88    0.49
  -1 -15  -9    1.59    0.26
  -1 -15  -9    1.90    0.26
   1 -15   9    1.45    0.22
  -1 -15  -9    1.80    0.26
   1  15   9    1.61    0.25
  -1  15  -9    1.43    0.23
  -1  15  -9    1.66    0.23
  -2 -15  -9    0.74    0.25
  -2 -15  -9    1.15    0.27
   2 -15   9    1.66    0.27
  -2  15  -9    1.19    0.26
   2  15   9    0.98    0.25
   2 -16  -9   11.00    0.56
  -2 -16   9   10.55    0.51
   2  16  -9   11.41    0.51
   1 -16  -9    3.10    0.30
   1 -16  -9    3.48    0.34
   1  16  -9    2.80    0.27
   1  16  -9    3.28    0.28
  -1  16   9    2.65    0.27
   0 -16  -9    0.13    0.18
   0 -16   9    0.21    0.14
   0 -16  -9    0.15    0.16
   0 -16  -9   -0.15    0.16
   0  16  -9    0.10    0.14
   0  16   9    0.30    0.17
   0  16  -9    0.19    0.15
   1 -16   9    3.49    0.31
  -1 -16  -9    3.58    0.32
  -1 -16  -9    3.11    0.35
  -1 -16  -9    3.47    0.34
  -1  16  -9    3.22    0.31
   1  16   9    3.17    0.34
  -1  16  -9    3.63    0.30
  -2 -17   9    1.77    0.27
   2 -17  -9    2.64    0.36
   2  17  -9    1.36    0.24
   1 -17  -9    5.66    0.36
   1 -17  -9    4.89    0.39
   1  17  -9    5.95    0.34
   1  17  -9    5.23    0.34
  -1  17   9    5.49    0.36
   0 -17   9    5.92    0.35
   0 -17  -9    6.13    0.41
   0 -17  -9    6.69    0.37
   0 -17  -9    6.25    0.39
   0  17  -9    6.51    0.36
   0  17   9    7.16    0.41
   0  17  -9    6.22    0.34
  -1 -17  -9    7.53    0.43
   1 -17   9    5.91    0.40
  -1 -17  -9    6.70    0.42
  -1 -17  -9    5.85    0.42
   1  17   9    7.06    0.43
  -1  17  -9    7.30    0.42
  -1  17  -9    7.16    0.39
  -2 -18   9    0.23    0.19
   2 -18  -9   -0.14    0.20
   2  18  -9    0.08    0.18
   1 -18  -9    0.17    0.19
   1 -18  -9    0.57    0.18
  -1  18   9    0.22    0.16
   1  18  -9    0.43    0.17
   1  18  -9    0.43    0.16
   0 -18  -9    0.38    0.19
   0 -18  -9    0.28    0.20
   0 -18   9    0.19    0.15
   0  18  -9    0.48    0.16
   0  18   9    0.25    0.17
   0  18  -9    0.19    0.15
  -1 -18  -9    2.48    0.31
  -1 -18  -9    2.72    0.34
   1 -18   9    2.53    0.30
  -1 -18  -9    2.23    0.31
  -1  18  -9    2.29    0.30
   1  18   9    2.24    0.30
   2 -19  -9    4.99    0.44
  -2 -19   9    5.68    0.41
   2  19  -9    6.07    0.41
   1 -19  -9    2.43    0.33
   1 -19  -9    2.17    0.30
  -1  19   9    2.43    0.29
   1  19  -9    2.06    0.25
   1  19  -9    2.35    0.28
   0 -19  -9    7.44    0.45
   0 -19  -9    7.31    0.47
   0 -19   9    8.32    0.40
   0  19   9    8.13    0.44
   0  19  -9    8.03    0.41
   0  19  -9    8.31    0.39
  -1 -19  -9    6.04    0.43
   1 -19   9    5.34    0.38
  -1 -19  -9    5.97    0.39
  -1 -19  -9    5.75    0.44
  -1  19  -9    5.76    0.40
   1  19   9    5.29    0.41
   1 -20  -9    3.35    0.35
   1 -20  -9    3.28    0.37
  -1  20   9    4.22    0.34
   0 -20   9    1.33    0.22
   0 -20  -9    1.18    0.26
   0 -20  -9    0.99    0.25
   0  20  -9    1.13    0.22
   0  20   9    1.44    0.24
   1 -20   9    1.03    0.22
  -1 -20  -9    0.56    0.25
  -1 -20  -9    0.83    0.24
   1  20   9    0.84    0.25
  -1  20  -9    1.12    0.24
   1 -21  -9    0.39    0.22
   1 -21  -9    0.76    0.21
  -1 -21   9    0.46    0.20
  -1  21   9    0.52    0.19
   0 -21  -9   14.41    0.64
   0 -21  -9   13.07    0.61
   0 -21   9   14.08    0.56
   0  21   9   13.95    0.59
   0  21  -9   13.59    0.56
   0 -22   9    2.16    0.30
   0 -22  -9    2.12    0.31
   0 -22  -9    2.70    0.35
   0  22   9    1.86    0.27
   0  22  -9    2.12    0.29
   3   0 -10    2.45    0.32
  -3   0  10    1.82    0.28
   2   0 -10    8.23    0.42
   2   0 -10    8.11    0.44
   1   0 -10    6.73    0.40
   1   0 -10    7.14    0.36
   0   0 -10   11.67    0.43
   0   0 -10   11.29    0.45
   0   0  10   12.13    0.45
   0   0 -10   11.71    0.51
  -1   0 -10   31.45    0.97
  -1   0 -10   29.41    0.92
   1   0  10   31.37    0.92
   2   0  10    5.94    0.41
  -2   0 -10    6.36    0.43
  -2   0 -10    6.60    0.44
   3  -1 -10    0.08    0.18
  -3  -1  10   -0.27    0.18
   3   1 -10   -0.25    0.18
  -3   1  10   -0.06    0.18
   2  -1 -10    0.13    0.18
   2  -1 -10    0.28    0.16
   2   1 -10    0.00    0.16
   2   1 -10    0.20    0.18
   1  -1 -10    5.99    0.34
   1  -1 -10    5.24    0.38
   1   1 -10    5.30    0.33
   1   1 -10    5.27    0.36
   0  -1 -10    3.89    0.27
   0  -1  10    4.39    0.28
   0  -1 -10    3.96    0.32
   0  -1 -10    3.96    0.26
   0   1 -10    4.60    0.33
   0   1 -10    4.06    0.27
   0   1 -10    3.99    0.26
   0   1  10    3.94    0.27
   1  -1  10    0.53    0.16
  -1  -1 -10    0.30    0.17
  -1  -1 -10    0.51    0.20
   1   1  10    0.50    0.17
  -1   1 -10    0.63    0.19
  -1   1 -10    0.36    0.18
  -2  -1 -10    2.36    0.31
  -2  -1 -10    2.27    0.33
   2  -1  10    2.14    0.28
  -2   1 -10    1.85    0.27
  -2   1 -10    1.40    0.28
   2   1  10    1.61    0.26
  -3  -2  10    2.74    0.36
   3  -2 -10    2.61    0.33
  -3   2  10    2.63    0.35
   3   2 -10    2.91    0.35
   2  -2 -10    6.95    0.41
   2  -2 -10    7.02    0.42
   2   2 -10    6.94    0.42
   2   2 -10    6.86    0.40
   1  -2 -10    1.95    0.28
   1  -2 -10    1.26    0.19
   1   2 -10    1.49    0.24
   1   2 -10    1.45    0.20
   0  -2 -10    0.83    0.16
   0  -2  10    0.69    0.15
   0  -2 -10    0.92    0.21
   0  -2 -10    0.78    0.17
   0   2 -10    0.84    0.20
   0   2  10    0.38    0.13
   0   2 -10    0.78    0.15
   0   2 -10    0.81    0.17
  -1  -2 -10   12.61    0.53
   1  -2  10   15.22    0.54
  -1  -2 -10   12.73    0.56
   1   2  10   12.60    0.53
  -1   2 -10   12.97    0.53
  -1   2 -10   12.89    0.56
  -2  -2 -10    6.82    0.45
   2  -2  10    6.86    0.43
  -2  -2 -10    7.17    0.44
  -2   2 -10    7.48    0.45
   2   2  10    6.57    0.44
  -2   2 -10    7.42    0.46
   3  -3 -10    2.77    0.34
  -3  -3  10    2.57    0.34
   3   3 -10    3.11    0.34
  -3   3  10    2.97    0.35
   2  -3 -10    0.14    0.19
   2  -3 -10    0.53    0.19
   2   3 -10    0.52    0.21
   2   3 -10    0.78    0.19
   1  -3 -10    4.36    0.34
   1  -3 -10    4.92    0.31
   1   3 -10    3.95    0.34
   1   3 -10    4.15    0.29
   0  -3  10   16.50    0.56
   0  -3 -10   17.89    0.58
   0  -3 -10   15.80    0.56
   0  -3 -10   17.18    0.63
   0   3 -10   17.68    0.64
   0   3 -10   17.34    0.57
   0   3 -10   17.29    0.55
   0   3  10   16.96    0.57
  -1  -3 -10    0.96    0.23
   1  -3  10    1.09    0.20
  -1  -3 -10    1.11    0.21
   1   3  10    1.22    0.21
  -1   3 -10    0.78    0.20
  -1   3 -10    1.21    0.20
  -2  -3 -10    1.54    0.25
   2  -3  10    2.49    0.32
  -2  -3 -10    2.58    0.34
  -2   3 -10    1.85    0.30
  -2   3 -10    2.21    0.32
   2   3  10    2.42    0.34
  -3  -4  10    0.44    0.22
   3  -4 -10    0.15    0.21
   3   4 -10    0.02    0.19
  -3   4  10    0.22    0.19
   2  -4 -10    1.40    0.23
   2  -4 -10    1.95    0.27
   2   4 -10    1.61    0.23
   2   4 -10    1.63    0.26
   1  -4 -10   -0.01    0.13
   1  -4 -10    0.29    0.17
   1   4 -10   -0.10    0.15
   1   4 -10   -0.09    0.12
   0  -4 -10    1.34    0.22
   0  -4 -10    1.23    0.19
   0  -4 -10    1.52    0.21
   0  -4  10    1.58    0.22
   0   4  10    1.59    0.20
   0   4 -10    1.42    0.21
   0   4 -10    1.49    0.23
  -1  -4 -10   -0.06    0.16
   1  -4  10   -0.17    0.13
  -1  -4 -10   -0.04    0.17
   1   4  10   -0.07    0.15
  -1   4 -10   -0.13    0.15
  -1   4 -10   -0.16    0.15
  -2  -4 -10    0.25    0.22
   2  -4  10    0.47    0.20
  -2  -4 -10    0.23    0.20
   2   4  10    0.20    0.18
  -2   4 -10    0.53    0.22
  -2   4 -10    0.29    0.20
   3  -5 -10    4.57    0.39
  -3  -5  10    3.55    0.38
   3   5 -10    3.59    0.35
  -3   5  10    4.24    0.37
   2  -5 -10    0.07    0.18
   2  -5 -10    0.14    0.18
   2   5 -10    0.12    0.15
   2   5 -10    0.11    0.18
   1  -5 -10   13.75    0.58
   1  -5 -10   15.47    0.57
   1   5 -10   14.64    0.58
   1   5 -10   14.51    0.53
  -1   5  10   15.88    0.70
   0  -5 -10    7.13    0.36
   0  -5 -10    6.46    0.35
   0  -5  10    7.21    0.34
   0  -5 -10    7.93    0.42
   0   5 -10    7.18    0.40
   0   5  10    6.88    0.36
   0   5 -10    6.71    0.34
   1  -5  10    0.49    0.16
  -1  -5 -10    0.29    0.18
  -1  -5 -10    0.26    0.19
  -1   5 -10    0.20    0.17
   1   5  10    0.38    0.17
  -1   5 -10    0.34    0.19
   2  -5  10    1.75    0.25
  -2  -5 -10    2.48    0.33
  -2  -5 -10    2.31    0.34
  -2   5 -10    2.14    0.30
  -2   5 -10    2.02    0.30
   2   5  10    2.37    0.32
  -3  -6  10    0.44    0.23
   3  -6 -10    0.48    0.23
   3   6 -10    0.39    0.21
  -3   6  10    0.49    0.21
   2  -6 -10    7.71    0.44
   2  -6 -10    6.51    0.41
   2   6 -10    7.30    0.42
   2   6 -10    7.06    0.39
   1  -6 -10    2.23    0.28
   1  -6 -10    1.98    0.28
   1   6 -10    2.14    0.28
  -1   6  10    2.25    0.23
   1   6 -10    2.04    0.24
   0  -6 -10    0.59    0.17
   0  -6  10    0.53    0.14
   0  -6 -10    0.64    0.17
   0  -6 -10    0.46    0.18
   0   6 -10    0.55    0.16
   0   6  10    0.68    0.16
   0   6 -10    0.51    0.19
  -1  -6 -10    1.39    0.23
   1  -6  10    1.24    0.21
  -1  -6 -10    1.52    0.25
  -1   6 -10    1.30    0.24
  -1   6 -10    0.96    0.21
   1   6  10    0.87    0.20
  -2  -6 -10    1.19    0.27
   2  -6  10    0.99    0.23
  -2  -6 -10    0.94    0.25
   2   6  10    0.85    0.22
  -2   6 -10    0.56    0.22
  -2   6 -10    0.41    0.23
   3  -7 -10    1.51    0.28
  -3  -7  10    1.43    0.27
   3   7 -10    1.67    0.27
  -3   7  10    1.52    0.26
   2  -7 -10    0.47    0.19
   2  -7 -10    0.07    0.17
   2   7 -10    0.17    0.17
   2   7 -10    0.00    0.17
   1  -7 -10    2.75    0.30
   1  -7 -10    2.56    0.28
  -1   7  10    2.92    0.24
   1   7 -10    2.68    0.29
   1   7 -10    3.05    0.26
   0  -7 -10   17.28    0.58
   0  -7 -10   15.37    0.60
   0  -7  10   16.19    0.55
   0  -7 -10   15.77    0.57
   0   7 -10   15.70    0.54
   0   7  10   15.90    0.57
   0   7 -10   15.54    0.61
  -1  -7 -10    1.67    0.25
  -1  -7 -10    1.86    0.28
   1  -7  10    1.82    0.23
   1   7  10    1.52    0.23
  -1   7 -10    1.39    0.22
  -1   7 -10    1.72    0.26
  -2  -7 -10    4.02    0.38
   2  -7  10    3.71    0.35
  -2  -7 -10    3.34    0.38
   2   7  10    3.32    0.38
  -2   7 -10    2.88    0.34
  -2   7 -10    3.32    0.36
  -3  -8  10    4.12    0.38
   3  -8 -10    3.46    0.38
  -3   8  10    3.35    0.34
   3   8 -10    3.26    0.36
   2  -8 -10   14.10    0.58
   2  -8 -10   12.42    0.55
   2   8 -10   13.50    0.55
   1  -8 -10   20.67    0.72
   1  -8 -10   21.92    0.71
   1  -8 -10   22.33    0.74
  -1   8  10   20.91    0.66
   1   8 -10   22.16    0.69
   1   8 -10   20.83    0.73
   0  -8  10    0.04    0.12
   0  -8 -10   -0.14    0.15
   0  -8 -10    0.05    0.15
   0  -8 -10    0.08    0.15
   0   8 -10    0.28    0.18
   0   8 -10    0.11    0.13
   0   8  10    0.12    0.14
   1  -8  10   21.47    0.72
  -1  -8 -10   21.87    0.76
  -1  -8 -10   21.89    0.78
  -1   8 -10   22.58    0.74
  -1   8 -10   22.39    0.76
   1   8  10   22.19    0.75
  -2  -8 -10   13.46    0.58
  -2  -8 -10   11.78    0.59
   2  -8  10   11.63    0.55
   2   8  10   12.60    0.59
  -2   8 -10   12.66    0.57
  -2   8 -10   11.44    0.56
  -3  -9  10    1.01    0.27
   3  -9 -10    0.50    0.24
   3   9 -10    0.36    0.21
   2  -9 -10    0.45    0.21
   2  -9 -10    0.54    0.21
   2   9 -10    0.40    0.18
   2   9 -10    0.32    0.19
   1  -9 -10    1.14    0.22
   1  -9 -10    1.05    0.18
   1  -9 -10    0.83    0.21
   1   9 -10    0.96    0.18
  -1   9  10    0.95    0.17
   1   9 -10    0.71    0.20
   0  -9 -10    0.36    0.18
   0  -9 -10    0.56    0.18
   0  -9 -10    0.38    0.17
   0  -9  10    0.43    0.14
   0   9 -10    0.32    0.18
   0   9  10    0.49    0.17
   0   9 -10    0.23    0.14
  -1  -9 -10    0.20    0.19
   1  -9  10    0.30    0.16
  -1  -9 -10    0.23    0.19
  -1   9 -10    0.28    0.17
  -1   9 -10    0.00    0.16
   1   9  10    0.45    0.19
  -2  -9 -10    0.40    0.22
  -2  -9 -10    0.00    0.21
   2  -9  10    0.26    0.19
  -2   9 -10    0.08    0.20
  -2   9 -10    0.29    0.19
   2   9  10   -0.08    0.20
   3 -10 -10    2.71    0.38
  -3 -10  10    2.43    0.33
   3  10 -10    3.20    0.36
   2 -10 -10   19.65    0.73
   2 -10 -10   19.30    0.70
   2  10 -10   20.52    0.72
   2  10 -10   20.22    0.70
   1 -10 -10   14.63    0.58
   1 -10 -10   14.99    0.52
   1 -10 -10   14.00    0.59
   1  10 -10   14.39    0.58
   1  10 -10   13.99    0.53
  -1  10  10   13.88    0.51
   0 -10 -10    0.09    0.16
   0 -10  10    0.37    0.14
   0 -10 -10    0.46    0.17
   0 -10 -10    0.30    0.18
   0  10 -10    0.30    0.18
   0  10  10    0.26    0.15
   0  10 -10   -0.03    0.13
   1 -10  10   15.06    0.57
  -1 -10 -10   14.36    0.61
  -1 -10 -10   15.10    0.59
  -1  10 -10   12.87    0.55
   1  10  10   13.83    0.58
  -1  10 -10   14.18    0.58
  -2 -10 -10    9.41    0.50
  -2 -10 -10    9.34    0.54
   2 -10  10    9.26    0.49
   2  10  10    9.30    0.53
  -2  10 -10    8.34    0.47
  -2  10 -10   10.13    0.51
   2 -11 -10    3.15    0.33
   2 -11 -10    3.56    0.36
   2  11 -10    2.90    0.33
   2  11 -10    3.22    0.33
   1 -11 -10    0.47    0.19
   1 -11 -10    0.44    0.19
   1 -11 -10    0.40    0.16
   1  11 -10    0.43    0.16
  -1  11  10    0.23    0.14
   1  11 -10    0.50    0.19
   0 -11  10    7.12    0.36
   0 -11 -10    6.76    0.40
   0 -11 -10    7.78    0.41
   0 -11 -10    8.23    0.42
   0  11  10    7.50    0.40
   0  11 -10    6.39    0.40
   0  11 -10    7.52    0.36
  -1 -11 -10    0.60    0.19
  -1 -11 -10    0.63    0.20
  -1 -11 -10    0.54    0.21
   1 -11  10    0.61    0.18
   1  11  10    0.50    0.19
  -1  11 -10    0.55    0.20
  -1  11 -10    0.38    0.18
   2 -12 -10    3.05    0.35
   2  12 -10    3.42    0.34
   1 -12 -10    0.23    0.17
   1 -12 -10    0.08    0.18
   1 -12 -10    0.02    0.14
  -1  12  10    0.07    0.13
   1  12 -10   -0.11    0.14
   1  12 -10    0.02    0.15
   0 -12 -10    0.99    0.21
   0 -12 -10    1.07    0.21
   0 -12  10    1.18    0.19
   0 -12 -10    1.23    0.22
   0  12 -10    1.10    0.21
   0  12 -10    1.07    0.19
   0  12  10    1.09    0.21
  -1 -12 -10    3.43    0.34
   1 -12  10    3.41    0.31
  -1 -12 -10    3.65    0.35
  -1 -12 -10    3.87    0.33
  -1  12 -10    2.86    0.32
   1  12  10    3.28    0.35
  -1  12 -10    3.51    0.32
   2 -13 -10    0.11    0.20
   2  13 -10    0.21    0.18
   1 -13 -10    4.52    0.34
   1 -13 -10    3.87    0.38
   1 -13 -10    3.83    0.31
  -1  13  10    4.05    0.30
   1  13 -10    4.54    0.32
   1  13 -10    4.21    0.33
   0 -13 -10    6.80    0.40
   0 -13 -10    6.89    0.40
   0 -13  10    7.11    0.36
   0 -13 -10    6.77    0.39
   0  13  10    7.01    0.40
   0  13 -10    7.00    0.38
   0  13 -10    6.66    0.39
   1 -13  10    1.23    0.22
  -1 -13 -10    0.89    0.21
  -1 -13 -10    0.71    0.23
  -1 -13 -10    1.20    0.24
  -1  13 -10    1.06    0.23
  -1  13 -10    0.90    0.22
   1  13  10    1.46    0.25
  -2 -14  10    0.01    0.18
   2 -14 -10    0.02    0.21
   2  14 -10   -0.07    0.17
   1 -14 -10    1.21    0.25
   1 -14 -10    0.98    0.21
   1 -14 -10    0.68    0.19
   1  14 -10    0.59    0.20
   1  14 -10    0.95    0.19
  -1  14  10    0.83    0.18
   0 -14 -10    1.07    0.23
   0 -14 -10    1.51    0.24
   0 -14 -10    1.13    0.22
   0 -14  10    1.04    0.19
   0  14 -10    1.09    0.21
   0  14  10    1.49    0.23
   0  14 -10    1.33    0.21
  -1 -14 -10    0.40    0.19
  -1 -14 -10    0.89    0.24
  -1 -14 -10    0.42    0.20
   1 -14  10    0.54    0.19
   1  14  10    0.42    0.21
  -1  14 -10    0.30    0.19
  -1  14 -10    0.32    0.19
  -2 -15  10    0.03    0.20
   2 -15 -10   -0.43    0.19
   2  15 -10    0.44    0.21
   1 -15 -10   11.43    0.50
   1 -15 -10   11.72    0.56
   1  15 -10   11.65    0.52
   1  15 -10   12.58    0.50
  -1  15  10   11.03    0.48
   0 -15 -10   17.64    0.65
   0 -15 -10   17.42    0.67
   0 -15 -10   18.18    0.66
   0 -15  10   17.29    0.61
   0  15 -10   16.81    0.61
   0  15 -10   17.31    0.63
   0  15  10   16.78    0.65
  -1 -15 -10    1.18    0.24
   1 -15  10    1.31    0.23
  -1 -15 -10    1.07    0.24
  -1 -15 -10    1.44    0.26
  -1  15 -10    1.39    0.24
  -1  15 -10    1.00    0.23
   1  15  10    0.97    0.24
   2 -16 -10    6.65    0.49
  -2 -16  10    8.20    0.47
   2  16 -10    7.47    0.43
   1 -16 -10    5.20    0.36
   1 -16 -10    5.01    0.41
  -1  16  10    5.06    0.35
   1  16 -10    4.91    0.37
   0 -16 -10    0.51    0.21
   0 -16  10    0.68    0.18
   0 -16 -10    0.94    0.23
   0 -16 -10    0.67    0.20
   0  16 -10    0.84    0.20
   0  16 -10    1.03    0.20
   0  16  10    0.48    0.20
  -1 -16 -10    5.51    0.41
  -1 -16 -10    5.95    0.40
  -1 -16 -10    5.99    0.44
   1 -16  10    7.10    0.42
  -1  16 -10    5.77    0.40
  -1  16 -10    6.47    0.40
   1  16  10    5.99    0.43
   1 -17 -10    1.64    0.28
   1 -17 -10    1.87    0.27
   1  17 -10    1.96    0.26
  -1  17  10    1.34    0.22
   0 -17 -10    1.31    0.25
   0 -17 -10    1.12    0.26
   0 -17  10    1.17    0.20
   0  17  10    0.81    0.22
   0  17 -10    0.99    0.21
   0  17 -10    1.59    0.23
   1 -18 -10    4.41    0.34
   1 -18 -10    4.01    0.39
  -1  18  10    4.33    0.34
   1  18 -10    3.60    0.33
   0 -18 -10    1.01    0.25
   0 -18  10    1.34    0.21
   0 -18 -10    1.22    0.26
   0  18 -10    1.26    0.23
   0  18 -10    1.58    0.24
   0  18  10    1.23    0.23
   1 -19 -10   -0.04    0.18
   1 -19 -10    0.45    0.23
   1  19 -10   -0.14    0.15
  -1  19  10    0.11    0.16
   0 -19 -10    0.12    0.20
   0 -19  10    0.06    0.16
   0 -19 -10    0.35    0.22
   0  19 -10    0.03    0.17
   0  19  10    0.11    0.17
   0  19 -10    0.20    0.17
   2   0 -11    0.20    0.19
   2   0 -11    0.08    0.20
   1   0 -11   -0.05    0.14
   1   0 -11    0.06    0.17
   0   0 -11   -0.02    0.17
   0   0  11    0.00    0.13
   0   0 -11    0.21    0.15
   1   0  11    0.15    0.17
  -1   0 -11   -0.24    0.16
  -1   0 -11    0.03    0.17
   2  -1 -11    3.01    0.34
   2  -1 -11    3.83    0.37
   2   1 -11    2.53    0.35
   2   1 -11    3.56    0.35
   1  -1 -11   10.64    0.47
   1  -1 -11   10.49    0.53
   1   1 -11   10.86    0.53
   1   1 -11   11.82    0.48
   0  -1  11   12.23    0.49
   0  -1 -11   11.92    0.55
   0  -1 -11   12.62    0.49
   0   1 -11   12.84    0.56
   0   1 -11   12.54    0.49
   0   1  11   11.77    0.47
   1  -1  11    0.08    0.16
  -1  -1 -11    0.34    0.20
  -1  -1 -11    0.23    0.19
  -1   1 -11    0.24    0.18
   1   1  11    0.18    0.17
  -1   1 -11    0.30    0.20
   2  -2 -11    2.98    0.32
   2  -2 -11    2.73    0.37
   2   2 -11    3.07    0.36
   2   2 -11    2.64    0.30
   1  -2 -11    1.98    0.28
   1  -2 -11    2.05    0.28
   1   2 -11    1.63    0.22
   1   2 -11    1.25    0.25
   0  -2 -11    1.41    0.21
   0  -2  11    2.09    0.25
   0  -2 -11    1.59    0.22
   0  -2 -11    2.09    0.28
   0   2  11    1.40    0.20
   0   2 -11    1.74    0.27
   0   2 -11    1.28    0.20
  -1  -2 -11    6.88    0.43
  -1  -2 -11    6.25    0.40
   1  -2  11    6.12    0.38
   1   2  11    7.01    0.40
  -1   2 -11    6.50    0.43
  -1   2 -11    6.12    0.40
   2  -3 -11    0.04    0.19
   2  -3 -11    0.42    0.19
   2   3 -11    0.26    0.21
   2   3 -11    0.19    0.18
   1  -3 -11    4.70    0.38
   1  -3 -11    4.68    0.35
   1   3 -11    5.08    0.34
   1   3 -11    5.90    0.40
   0  -3 -11    0.03    0.14
   0  -3 -11    0.04    0.14
   0  -3  11   -0.19    0.13
   0  -3 -11    0.09    0.18
   0   3 -11    0.02    0.14
   0   3  11    0.10    0.14
   0   3 -11    0.16    0.18
  -1  -3 -11    0.07    0.18
   1  -3  11    0.31    0.17
  -1  -3 -11    0.03    0.19
   1   3  11   -0.05    0.17
  -1   3 -11    0.22    0.20
  -1   3 -11   -0.08    0.17
   2  -4 -11    9.37    0.51
   2  -4 -11    9.79    0.50
   2   4 -11    8.83    0.50
   2   4 -11    8.93    0.47
   1  -4 -11    0.04    0.19
   1  -4 -11    0.14    0.17
   1   4 -11    0.00    0.14
   1   4 -11   -0.17    0.17
   0  -4  11    1.44    0.20
   0  -4 -11    1.57    0.21
   0  -4 -11    0.92    0.22
   0  -4 -11    0.84    0.19
   0   4 -11    1.36    0.21
   0   4 -11    1.49    0.25
   0   4  11    1.08    0.19
  -1  -4 -11    6.12    0.42
   1  -4  11    6.04    0.39
  -1  -4 -11    6.06    0.40
  -1   4 -11    6.86    0.43
  -1   4 -11    5.44    0.38
   1   4  11    6.24    0.41
   2  -5 -11    0.09    0.18
   2  -5 -11    0.17    0.20
   2   5 -11   -0.24    0.14
   2   5 -11    0.04    0.19
   1  -5 -11   -0.05    0.17
   1  -5 -11    0.18    0.17
   1   5 -11    0.06    0.19
   1   5 -11    0.02    0.15
   0  -5  11    0.80    0.17
   0  -5 -11    0.70    0.18
   0  -5 -11    1.06    0.20
   0  -5 -11    1.20    0.24
   0   5 -11    1.18    0.24
   0   5 -11    1.14    0.20
   0   5  11    1.08    0.20
  -1  -5 -11    0.17    0.19
  -1  -5 -11    0.17    0.20
   1  -5  11    0.13    0.17
   1   5  11    0.38    0.19
  -1   5 -11    0.07    0.19
  -1   5 -11    0.33    0.19
   2  -6 -11    6.90    0.43
   2  -6 -11    6.36    0.42
   2   6 -11    5.48    0.38
   2   6 -11    6.39    0.43
   1  -6 -11    0.76    0.20
   1  -6 -11    0.53    0.21
   1   6 -11    0.59    0.18
   1   6 -11    0.23    0.20
   0  -6 -11   10.57    0.47
   0  -6 -11   10.56    0.47
   0  -6  11   10.69    0.45
   0  -6 -11   10.24    0.50
   0   6 -11   11.17    0.52
   0   6 -11   10.52    0.44
   0   6  11   10.77    0.47
  -1  -6 -11    9.29    0.49
  -1  -6 -11   10.07    0.52
   1  -6  11    9.67    0.46
   1   6  11   10.42    0.50
  -1   6 -11   10.16    0.48
  -1   6 -11    8.79    0.49
   2  -7 -11    1.22    0.26
   2  -7 -11    1.58    0.27
   2   7 -11    1.29    0.24
   2   7 -11    1.47    0.27
   1  -7 -11   16.12    0.63
   1  -7 -11   15.11    0.59
   1   7 -11   15.02    0.56
   1   7 -11   13.79    0.60
   0  -7 -11    5.10    0.35
   0  -7  11    6.03    0.34
   0  -7 -11    5.62    0.39
   0  -7 -11    5.65    0.37
   0   7 -11    5.68    0.41
   0   7  11    4.93    0.35
   0   7 -11    5.61    0.34
  -1  -7 -11    0.30    0.20
   1  -7  11    0.52    0.19
  -1  -7 -11    0.55    0.22
  -1   7 -11    0.54    0.20
   1   7  11    0.29    0.19
  -1   7 -11    0.38    0.21
   2  -8 -11    0.30    0.20
   2  -8 -11    0.40    0.22
   2   8 -11    0.35    0.21
   2   8 -11    0.40    0.19
   1  -8 -11    0.47    0.20
   1  -8 -11    0.19    0.20
   1   8 -11    0.40    0.21
   1   8 -11    0.26    0.17
   0  -8 -11    0.33    0.17
   0  -8  11    0.27    0.15
   0  -8 -11    0.29    0.18
   0  -8 -11    0.63    0.21
   0   8 -11    0.47    0.16
   0   8 -11    0.38    0.20
   0   8  11    0.16    0.15
  -1  -8 -11    1.83    0.30
   1  -8  11    2.14    0.29
  -1  -8 -11    1.95    0.28
  -1   8 -11    2.19    0.31
  -1   8 -11    1.65    0.25
   1   8  11    2.10    0.28
   2  -9 -11   11.12    0.57
   2  -9 -11    9.80    0.52
   2   9 -11   12.65    0.54
   2   9 -11   10.89    0.54
   1  -9 -11    6.82    0.43
   1  -9 -11    6.81    0.42
   1   9 -11    7.55    0.39
   1   9 -11    6.40    0.42
   0  -9 -11    8.63    0.46
   0  -9  11   10.23    0.44
   0  -9 -11    9.18    0.44
   0  -9 -11    8.83    0.46
   0   9  11    9.36    0.44
   0   9 -11    8.97    0.41
   0   9 -11    8.63    0.49
   1  -9  11    0.18    0.18
  -1  -9 -11    0.13    0.20
  -1  -9 -11    0.18    0.22
  -1   9 -11    0.19    0.20
  -1   9 -11    0.08    0.17
   1   9  11    0.23    0.19
   2 -10 -11    1.09    0.25
   2 -10 -11    1.31    0.26
   2  10 -11    1.47    0.26
   2  10 -11    1.43    0.26
   1 -10 -11    3.13    0.34
   1 -10 -11    3.20    0.33
   1  10 -11    3.27    0.36
   1  10 -11    2.81    0.29
   0 -10 -11    0.01    0.17
   0 -10  11   -0.06    0.14
   0 -10 -11    0.16    0.17
   0 -10 -11    0.13    0.18
   0  10 -11    0.20    0.19
   0  10 -11   -0.18    0.13
   0  10  11    0.13    0.17
  -1 -10 -11    0.15    0.21
   1 -10  11    0.18    0.18
  -1 -10 -11    0.31    0.21
  -1  10 -11    0.30    0.19
  -1  10 -11    0.21    0.20
   1  10  11    0.24    0.19
   2 -11 -11    1.21    0.27
   2 -11 -11    1.04    0.26
   2  11 -11    1.20    0.24
   2  11 -11    0.86    0.24
   1 -11 -11   10.21    0.52
   1 -11 -11   10.23    0.50
   1  11 -11    9.40    0.49
   1  11 -11    8.75    0.60
   0 -11 -11    1.82    0.26
   0 -11 -11    2.62    0.32
   0 -11  11    1.69    0.25
   0 -11 -11    2.06    0.28
   0  11 -11    1.89    0.25
   0  11 -11    2.06    0.28
   0  11  11    2.07    0.30
  -1 -11 -11   -0.07    0.20
   1 -11  11   -0.01    0.17
  -1 -11 -11   -0.08    0.19
  -1  11 -11   -0.07    0.18
   1  11  11   -0.07    0.17
  -1  11 -11   -0.02    0.17
   2 -12 -11    0.33    0.21
   2  12 -11   -0.06    0.19
   2  12 -11    0.29    0.21
   1 -12 -11    0.65    0.22
   1 -12 -11    0.85    0.24
   1  12 -11    0.78    0.22
   0 -12  11    2.25    0.28
   0 -12 -11    2.27    0.32
   0 -12 -11    2.42    0.32
   0 -12 -11    1.88    0.28
   0  12  11    2.08    0.29
   0  12 -11    2.36    0.28
   0  12 -11    2.29    0.32
   1 -12  11    1.39    0.24
  -1 -12 -11    1.06    0.26
  -1 -12 -11    1.20    0.27
  -1  12 -11    1.20    0.25
   1  12  11    1.65    0.27
  -1  12 -11    1.50    0.25
   1 -13 -11    4.88    0.43
   1 -13 -11    5.25    0.39
   1  13 -11    5.40    0.41
   0 -13 -11    1.18    0.23
   0 -13 -11    0.65    0.22
   0 -13 -11    1.37    0.25
   0 -13  11    0.58    0.18
   0  13 -11    0.69    0.20
   0  13  11    0.95    0.21
   0  13 -11    0.96    0.23
   1 -14 -11    0.41    0.22
   1 -14 -11    0.69    0.34
   1  14 -11   -0.19    0.18
   0 -14  11    6.40    0.39
   0 -14 -11    6.92    0.44
   0 -14 -11    7.26    0.45
   0 -14 -11    6.77    0.41
   0  14 -11    7.10    0.43
   0  14 -11    7.35    0.41
   0  14  11    6.88    0.42
   1 -15 -11    6.28    0.46
   1  15 -11    6.44    0.42
   0 -15 -11    0.72    0.22
   0 -15  11    0.72    0.20
   0 -15 -11    0.84    0.25
   0 -15 -11    0.65    0.22
   0  15 -11    0.85    0.23
   0  15  11    0.74    0.21
   0  15 -11    0.69    0.20
   2   0 -12    0.42    0.21
   2   0 -12    0.10    0.22
   1   0 -12    9.43    0.47
   1   0 -12    9.13    0.52
   0   0 -12   19.16    0.68
   0   0  12   20.10    0.68
   0   0 -12   20.67    0.77
  -1   0 -12    1.95    0.31
   1   0  12    1.77    0.27
  -1   0 -12    2.32    0.30
   2  -1 -12    3.61    0.42
   2  -1 -12    3.90    0.36
   2   1 -12    3.79    0.37
   2   1 -12    3.07    0.39
   1  -1 -12    0.64    0.23
   1  -1 -12    0.43    0.20
   1   1 -12    0.51    0.19
   1   1 -12    0.67    0.24
   0  -1  12    0.15    0.16
   0  -1 -12    0.11    0.21
   0  -1 -12    0.36    0.17
   0   1 -12    0.14    0.16
   0   1  12    0.17    0.16
   0   1 -12    0.04    0.19
  -1  -1 -12    0.87    0.26
   1  -1  12    1.14    0.24
  -1   1 -12    1.26    0.28
   1   1  12    1.00    0.23
   2  -2 -12    0.93    0.25
   2  -2 -12    1.35    0.28
   2   2 -12    1.94    0.32
   2   2 -12    1.34    0.25
   1  -2 -12    1.15    0.23
   1  -2 -12    1.05    0.26
   1   2 -12    1.29    0.22
   1   2 -12    1.01    0.26
   0  -2 -12    7.62    0.42
   0  -2 -12    7.69    0.47
   0  -2  12    7.49    0.41
   0   2 -12    7.96    0.48
   0   2  12    7.94    0.43
   0   2 -12    7.74    0.40
   2  -3 -12    3.03    0.35
   2  -3 -12    2.75    0.38
   2   3 -12    2.80    0.35
   2   3 -12    3.19    0.39
   1  -3 -12    9.71    0.48
   1  -3 -12   10.21    0.53
   1   3 -12    9.79    0.46
   1   3 -12    9.11    0.52
   0  -3 -12    0.40    0.21
   0  -3 -12    0.35    0.18
   0  -3  12    0.28    0.17
   0   3 -12    0.04    0.16
   0   3 -12   -0.02    0.21
   2  -4 -12    0.57    0.25
   2  -4 -12    0.13    0.21
   2   4 -12    0.05    0.18
   2   4 -12    0.40    0.24
   1  -4 -12    0.03    0.17
   1  -4 -12    0.19    0.20
   1   4 -12   -0.25    0.19
   1   4 -12    0.21    0.18
   0  -4  12   -0.11    0.15
   0  -4 -12    0.02    0.19
   0  -4 -12   -0.23    0.16
   0   4 -12    0.00    0.16
   0   4  12   -0.16    0.15
   0   4 -12    0.06    0.20
   1  -5 -12    3.60    0.39
   1  -5 -12    3.04    0.32
   1   5 -12    2.57    0.29
   1   5 -12    2.66    0.36
   0  -5 -12    0.29    0.19
   0  -5  12    0.23    0.17
   0  -5 -12    0.56    0.23
   0   5 -12    0.39    0.18
   0   5 -12    0.24    0.22
   0   5  12    0.35    0.19
   1  -6 -12   -0.17    0.18
   1  -6 -12    0.31    0.22
   1   6 -12   -0.29    0.18
   1   6 -12    0.05    0.17
   0  -6 -12    0.56    0.20
   0  -6 -12    0.88    0.25
   0  -6  12    0.59    0.19
   0   6 -12    0.46    0.24
   0   6 -12    0.98    0.23
   0   6  12    0.70    0.20
   1  -7 -12    7.11    0.43
   1  -7 -12    7.65    0.49
   1   7 -12    7.65    0.49
   0  -7 -12    0.05    0.19
   0  -7  12    0.04    0.16
   0  -7 -12    0.14    0.19
   0  -7 -12    0.02    0.20
   0   7 -12    0.06    0.20
   0   7  12   -0.01    0.16
   1  -8 -12    1.20    0.24
   1  -8 -12    0.54    0.24
   1   8 -12    0.99    0.25
   0  -8 -12   15.38    0.62
   0  -8 -12   17.14    0.63
   0  -8 -12   16.18    0.67
   0  -8  12   14.92    0.69
   0   8 -12   17.75    0.71
   0   8  12   16.01    0.62
   1  -9 -12    0.13    0.19
   1  -9 -12    0.08    0.20
   1   9 -12    0.27    0.21
   0  -9 -12    0.14    0.19
   0  -9 -12   -0.10    0.20
   0  -9 -12    0.10    0.18
   0   9  12   -0.16    0.17
   0   9 -12    0.24    0.20
   1 -10 -12    0.36    0.21
   1 -10 -12    0.49    0.23
   1  10 -12    0.43    0.23
   0   0   0    0.00    0.00
;
_shelx_hkl_checksum              89413
loop_
_space_group_symop_operation_xyz
'x, y, z'
'-x, y+1/2, -z+1/2'
'-x, -y, -z'
'x, -y-1/2, z-1/2'
loop_
_atom_site_label
_atom_site_type_symbol
_atom_site_fract_x
_atom_site_fract_y
_atom_site_fract_z
_atom_site_U_iso_or_equiv
_atom_site_adp_type
_atom_site_occupancy
_atom_site_site_symmetry_order
_atom_site_calc_flag
_atom_site_refinement_flags_posn
_atom_site_refinement_flags_adp
C1 C 0.3095(5) 0.48030(7) 0.63478(18) 0.0130(4) Uani 1 1 d . .
H1 H 0.2237 0.5129 0.5906 0.016 Uiso 1 1 calc R U
C2 C 0.5265(5) 0.48397(7) 0.75819(19) 0.0128(3) Uani 1 1 d . .
C3 C 0.6528(5) 0.43696(7) 0.82540(18) 0.0146(4) Uani 1 1 d . .
H3 H 0.8014 0.4388 0.9102 0.018 Uiso 1 1 calc R U
C4 C 0.5563(5) 0.38735(7) 0.76550(18) 0.0132(4) Uani 1 1 d . .
H4 H 0.6350 0.3540 0.8078 0.016 Uiso 1 1 calc R U
C5 C 0.3401(5) 0.38812(7) 0.64127(18) 0.0115(3) Uani 1 1 d . .
C6 C 0.1970(5) 0.25419(7) 0.54543(18) 0.0134(3) Uani 1 1 d . .
C7 C -0.0021(5) 0.27614(8) 0.42933(18) 0.0154(4) Uani 1 1 d . .
H7 H -0.1274 0.2576 0.3537 0.018 Uiso 1 1 calc R U
C8 C 0.0285(5) 0.33110(7) 0.45182(18) 0.0149(4) Uani 1 1 d . .
H8 H -0.0735 0.3591 0.3931 0.018 Uiso 1 1 calc R U
N1 N 0.2158(4) 0.43241(6) 0.57533(15) 0.0125(3) Uani 1 1 d . .
N2 N 0.2336(4) 0.33808(6) 0.57485(15) 0.0118(3) Uani 1 1 d . .
N3 N 0.3415(4) 0.29052(6) 0.63473(15) 0.0130(3) Uani 1 1 d . .
N4 N 0.2622(4) 0.19707(6) 0.57572(16) 0.0158(3) Uani 1 1 d . .
O1 O 0.4758(4) 0.18476(6) 0.67413(14) 0.0245(3) Uani 1 1 d . .
O2 O 0.0978(4) 0.16400(5) 0.49827(14) 0.0244(3) Uani 1 1 d . .
Br1 Br 0.64613(5) 0.55373(2) 0.82974(2) 0.01622(7) Uani 1 1 d . .
loop_
_atom_site_aniso_label
_atom_site_aniso_U_11
_atom_site_aniso_U_22
_atom_site_aniso_U_33
_atom_site_aniso_U_23
_atom_site_aniso_U_13
_atom_site_aniso_U_12
C1 0.0127(9) 0.0120(8) 0.0144(9) 0.0018(7) 0.0017(7) 0.0004(7)
C2 0.0109(8) 0.0126(8) 0.0151(9) -0.0030(7) 0.0033(7) -0.0015(7)
C3 0.0131(9) 0.0184(9) 0.0121(8) -0.0006(7) 0.0000(7) 0.0000(7)
C4 0.0124(9) 0.0135(8) 0.0137(9) 0.0026(7) 0.0009(7) 0.0012(7)
C5 0.0107(9) 0.0129(8) 0.0111(8) -0.0011(6) 0.0019(7) -0.0009(6)
C6 0.0131(9) 0.0123(8) 0.0146(8) 0.0000(7) 0.0014(7) 0.0000(7)
C7 0.0160(9) 0.0180(9) 0.0120(8) -0.0011(7) 0.0011(7) -0.0015(7)
C8 0.0137(9) 0.0172(9) 0.0132(9) 0.0014(7) -0.0009(7) 0.0003(7)
N1 0.0131(7) 0.0122(7) 0.0118(7) 0.0013(6) 0.0001(6) 0.0012(6)
N2 0.0139(8) 0.0102(7) 0.0107(7) 0.0021(6) -0.0007(6) 0.0005(6)
N3 0.0143(8) 0.0111(7) 0.0131(7) 0.0000(6) -0.0006(6) 0.0010(6)
N4 0.0189(8) 0.0135(8) 0.0144(8) -0.0013(6) -0.0007(6) -0.0004(6)
O1 0.0316(8) 0.0153(7) 0.0229(8) 0.0011(6) -0.0107(6) 0.0029(6)
O2 0.0321(8) 0.0150(7) 0.0234(8) -0.0046(6) -0.0077(6) -0.0037(6)
Br1 0.01498(10) 0.01369(10) 0.01952(10) -0.00443(7) 0.00030(7) -0.00195(7)
loop_
_atom_type_symbol
_atom_type_description
_atom_type_scat_dispersion_real
_atom_type_scat_dispersion_imag
_atom_type_scat_source
C C 0.0033 0.0016 'International Tables Vol C Tables 4.2.6.8 and 6.1.1.4'
H H 0.0000 0.0000 'International Tables Vol C Tables 4.2.6.8 and 6.1.1.4'
Br Br -0.2901 2.4595 'International Tables Vol C Tables 4.2.6.8 and 6.1.1.4'
N N 0.0061 0.0033 'International Tables Vol C Tables 4.2.6.8 and 6.1.1.4'
O O 0.0106 0.0060 'International Tables Vol C Tables 4.2.6.8 and 6.1.1.4'
loop_
_geom_angle_atom_site_label_1
_geom_angle_atom_site_label_2
_geom_angle_atom_site_label_3
_geom_angle
N1 C1 C2 122.50(16)
N1 C1 H1 118.7
C2 C1 H1 118.7
C1 C2 C3 119.89(16)
C1 C2 Br1 118.49(13)
C3 C2 Br1 121.62(14)
C4 C3 C2 118.13(16)
C4 C3 H3 120.9
C2 C3 H3 120.9
C3 C4 C5 117.49(16)
C3 C4 H4 121.3
C5 C4 H4 121.3
N1 C5 C4 125.48(16)
N1 C5 N2 114.75(15)
C4 C5 N2 119.77(16)
N3 C6 C7 114.97(16)
N3 C6 N4 117.98(15)
C7 C6 N4 127.04(16)
C8 C7 C6 102.72(15)
C8 C7 H7 128.6
C6 C7 H7 128.6
N2 C8 C7 107.13(16)
N2 C8 H8 126.4
C7 C8 H8 126.4
C5 N1 C1 116.51(15)
N3 N2 C8 112.82(14)
N3 N2 C5 119.41(14)
C8 N2 C5 127.77(15)
C6 N3 N2 102.34(14)
O1 N4 O2 124.37(16)
O1 N4 C6 118.83(15)
O2 N4 C6 116.80(15)
loop_
_geom_bond_atom_site_label_1
_geom_bond_atom_site_label_2
_geom_bond_distance
C1 N1 1.342(2)
C1 C2 1.385(3)
C1 H1 0.9500
C2 C3 1.386(2)
C2 Br1 1.8863(17)
C3 C4 1.383(3)
C3 H3 0.9500
C4 C5 1.387(2)
C4 H4 0.9500
C5 N1 1.323(2)
C5 N2 1.427(2)
C6 N3 1.324(2)
C6 C7 1.399(2)
C6 N4 1.449(2)
C7 C8 1.370(3)
C7 H7 0.9500
C8 N2 1.369(2)
C8 H8 0.9500
N2 N3 1.349(2)
N4 O1 1.222(2)
N4 O2 1.2296(19)
loop_
_geom_torsion_atom_site_label_1
_geom_torsion_atom_site_label_2
_geom_torsion_atom_site_label_3
_geom_torsion_atom_site_label_4
_geom_torsion
N1 C1 C2 C3 -0.6(3)
N1 C1 C2 Br1 178.88(13)
C1 C2 C3 C4 0.2(3)
Br1 C2 C3 C4 -179.27(14)
C2 C3 C4 C5 0.3(3)
C3 C4 C5 N1 -0.5(3)
C3 C4 C5 N2 179.79(16)
N3 C6 C7 C8 0.2(2)
N4 C6 C7 C8 -178.95(18)
C6 C7 C8 N2 -0.3(2)
C4 C5 N1 C1 0.1(3)
N2 C5 N1 C1 179.84(15)
C2 C1 N1 C5 0.4(3)
C7 C8 N2 N3 0.2(2)
C7 C8 N2 C5 179.73(17)
N1 C5 N2 N3 -178.97(15)
C4 C5 N2 N3 0.8(3)
N1 C5 N2 C8 1.6(3)
C4 C5 N2 C8 -178.68(18)
C7 C6 N3 N2 -0.1(2)
N4 C6 N3 N2 179.17(15)
C8 N2 N3 C6 -0.1(2)
C5 N2 N3 C6 -179.62(15)
N3 C6 N4 O1 -7.5(3)
C7 C6 N4 O1 171.63(19)
N3 C6 N4 O2 173.14(17)
C7 C6 N4 O2 -7.7(3)
