#------------------------------------------------------------------------------
#$Date: 2017-06-30 02:13:14 +0300 (Fri, 30 Jun 2017) $
#$Revision: 198264 $
#$URL: file:///home/coder/svn-repositories/cod/cif/4/03/26/4032601.cif $
#------------------------------------------------------------------------------
#
# This file is available in the Crystallography Open Database (COD),
# http://www.crystallography.net/
#
# All data on this site have been placed in the public domain by the
# contributors.
#
data_4032601
loop_
_publ_author_name
'Savva, Anastasia C.'
'Mirallai, Styliana I.'
'Zissimou, Georgia A.'
'Berezin, Andrey A.'
'Demetriades, Marina'
'Kourtellaris, Andreas'
'Constantinides, Christos P.'
'Nicolaides, Constantinos'
'Trypiniotis, Theodossis'
'Koutentis, Panayiotis A.'
_publ_section_title
;
 Preparation of Blatter Radicals via Aza-Wittig Chemistry: The Reaction of
 N Aryliminophosphoranes with 1-(Het)aroyl-2-aryldiazenes.
;
_journal_name_full               'The Journal of organic chemistry'
_journal_paper_doi               10.1021/acs.joc.7b01297
_journal_year                    2017
_chemical_formula_moiety         'C13 H5 F5 N2 O'
_chemical_formula_sum            'C13 H5 F5 N2 O'
_chemical_formula_weight         300.19
_space_group_crystal_system      triclinic
_space_group_IT_number           2
_space_group_name_Hall           '-P 1'
_space_group_name_H-M_alt        'P -1'
_symmetry_space_group_name_Hall  '-P 1'
_symmetry_space_group_name_H-M   'P -1'
_atom_sites_solution_hydrogens   geom
_audit_creation_method           SHELXL-2016/4
_cell_angle_alpha                80.949(5)
_cell_angle_beta                 79.134(5)
_cell_angle_gamma                78.079(5)
_cell_formula_units_Z            2
_cell_length_a                   7.369(5)
_cell_length_b                   7.894(5)
_cell_length_c                   10.285(5)
_cell_measurement_reflns_used    1226
_cell_measurement_temperature    100(2)
_cell_measurement_theta_max      28.7680
_cell_measurement_theta_min      3.7570
_cell_volume                     570.5(6)
_computing_structure_refinement  'SHELXL-2016/4 (Sheldrick, 2016)'
_diffrn_ambient_temperature      100(2)
_diffrn_detector_area_resol_mean 10.4223
_diffrn_measured_fraction_theta_full 0.998
_diffrn_measured_fraction_theta_max 0.998
_diffrn_measurement_device_type  'SuperNova, Dual, Cu at zero, Atlas'
_diffrn_radiation_type           MoK\a
_diffrn_radiation_wavelength     0.71069
_diffrn_reflns_av_R_equivalents  0.0437
_diffrn_reflns_av_unetI/netI     0.0566
_diffrn_reflns_Laue_measured_fraction_full 0.998
_diffrn_reflns_Laue_measured_fraction_max 0.998
_diffrn_reflns_limit_h_max       8
_diffrn_reflns_limit_h_min       -8
_diffrn_reflns_limit_k_max       8
_diffrn_reflns_limit_k_min       -9
_diffrn_reflns_limit_l_max       11
_diffrn_reflns_limit_l_min       -12
_diffrn_reflns_number            3563
_diffrn_reflns_point_group_measured_fraction_full 0.998
_diffrn_reflns_point_group_measured_fraction_max 0.998
_diffrn_reflns_theta_full        24.999
_diffrn_reflns_theta_max         24.999
_diffrn_reflns_theta_min         3.140
_diffrn_source                   'SuperNova (Mo) X-ray Source'
_exptl_absorpt_coefficient_mu    0.169
_exptl_absorpt_correction_T_max  1.00000
_exptl_absorpt_correction_T_min  0.55310
_exptl_absorpt_correction_type   multi-scan
_exptl_absorpt_process_details
;
CrysAlisPro, Agilent Technologies,
Version 1.171.36.28 (release 01-02-2013 CrysAlis171 .NET)
(compiled Feb  1 2013,16:14:44)
Empirical absorption correction using spherical harmonics,
 implemented in SCALE3 ABSPACK scaling algorithm.
;
_exptl_crystal_colour            red
_exptl_crystal_density_diffrn    1.747
_exptl_crystal_description       polyhedra
_exptl_crystal_F_000             300
_exptl_crystal_size_max          0.08
_exptl_crystal_size_mid          0.08
_exptl_crystal_size_min          0.05
_refine_diff_density_max         0.245
_refine_diff_density_min         -0.313
_refine_diff_density_rms         0.076
_refine_ls_extinction_method     none
_refine_ls_goodness_of_fit_ref   1.042
_refine_ls_hydrogen_treatment    constr
_refine_ls_matrix_type           full
_refine_ls_number_parameters     190
_refine_ls_number_reflns         2008
_refine_ls_number_restraints     0
_refine_ls_restrained_S_all      1.042
_refine_ls_R_factor_all          0.0666
_refine_ls_R_factor_gt           0.0484
_refine_ls_shift/su_max          0.001
_refine_ls_shift/su_mean         0.000
_refine_ls_structure_factor_coef Fsqd
_refine_ls_weighting_details
'w=1/[\s^2^(Fo^2^)+(0.0492P)^2^] where P=(Fo^2^+2Fc^2^)/3'
_refine_ls_weighting_scheme      calc
_refine_ls_wR_factor_gt          0.1076
_refine_ls_wR_factor_ref         0.1242
_reflns_Friedel_coverage         0.000
_reflns_number_gt                1464
_reflns_number_total             2008
_reflns_threshold_expression     'I > 2\s(I)'
_cod_data_source_file            jo7b01297_si_002.cif
_cod_data_source_block           shelx
_cod_database_code               4032601
_shelx_shelxl_version_number     2016/4
_shelx_space_group_comment
;
The symmetry employed for this shelxl refinement is uniquely defined
by the following loop, which should always be used as a source of
symmetry information in preference to the above space-group names.
They are only intended as comments.
;
_shelx_res_file
;
TITL SM_209 in P-1
 shelx.res created by SHELXL-2016/4 at 17:43:07 on 22-May-2017
CELL  0.71069   7.3690   7.8940  10.2850   80.949   79.134   78.079
ZERR     2.00   0.0050   0.0050   0.0050    0.005    0.005    0.005
LATT   1
SFAC  C    N    F    O    H
UNIT  26   4    10    2    10
MERG   2
OMIT     4.00 180.00
omit 0 50
FMAP   2
PLAN   20
acta
BOND $H
ACTA
L.S.  14
WGHT    0.049200
FVAR       5.47943
MOLE    1
F1    3    0.368446    0.470004    0.905094    11.00000    0.02551    0.01849 =
         0.02756   -0.00248    0.00059   -0.00372
F2    3    0.561833    0.428491    0.658718    11.00000    0.03591    0.03021 =
         0.03231   -0.01680    0.00214   -0.00165
F3    3    0.688782    0.703466    0.500512    11.00000    0.02830    0.05036 =
         0.01774   -0.01087    0.00690   -0.00499
F4    3    0.623905    1.017886    0.589904    11.00000    0.02573    0.03644 =
         0.02124    0.00420    0.00242   -0.01122
F5    3    0.435241    1.062434    0.833377    11.00000    0.03183    0.02023 =
         0.02821   -0.00500    0.00343   -0.00924
N1    2    0.289491    0.774080    1.007737    11.00000    0.01958    0.02063 =
         0.01744   -0.00537    0.00125   -0.00416
N2    2    0.194728    0.919546    1.026935    11.00000    0.02624    0.01908 =
         0.02078   -0.00507    0.00280   -0.00587
O1    4    0.039111    0.790220    1.226302    11.00000    0.06090    0.01946 =
         0.02916   -0.00737    0.01710   -0.01536
C1    1    0.099675    1.238683    1.129719    11.00000    0.01635    0.01892 =
         0.01745   -0.00049    0.00076   -0.00476
AFIX  43
H1    5    0.162297    1.230114    1.042942    11.00000   -1.20000
AFIX   0
C2    1    0.056973    1.397327    1.180107    11.00000    0.01946    0.01805 =
         0.02194   -0.00009   -0.00159   -0.00498
AFIX  43
H2    5    0.091959    1.495776    1.126999    11.00000   -1.20000
AFIX   0
C3    1   -0.036974    1.410539    1.308349    11.00000    0.02006    0.01894 =
         0.02780   -0.00722   -0.00283   -0.00241
AFIX  43
H3    5   -0.065600    1.517869    1.341091    11.00000   -1.20000
AFIX   0
C4    1   -0.089273    1.263861    1.389183    11.00000    0.02034    0.02372 =
         0.01912   -0.00654    0.00197   -0.00238
AFIX  43
H4    5   -0.151630    1.272817    1.475983    11.00000   -1.20000
AFIX   0
C5    1   -0.048218    1.105931    1.339956    11.00000    0.02116    0.01908 =
         0.01788   -0.00024   -0.00067   -0.00560
AFIX  43
H5    5   -0.084591    1.008115    1.393178    11.00000   -1.20000
AFIX   0
C6    1    0.047522    1.091714    1.210849    11.00000    0.01545    0.01786 =
         0.01528   -0.00110   -0.00213   -0.00316
C7    1    0.089267    0.918877    1.164208    11.00000    0.02792    0.02140 =
         0.02002   -0.00412    0.00024   -0.00594
C8    1    0.390211    0.766964    0.876508    11.00000    0.01462    0.02212 =
         0.01644   -0.00237   -0.00146   -0.00136
C9    1    0.430750    0.606583    0.828396    11.00000    0.01561    0.02096 =
         0.02196   -0.00049   -0.00325   -0.00303
C10   1    0.529627    0.583358    0.703296    11.00000    0.01754    0.02463 =
         0.02538   -0.01040   -0.00251    0.00120
C11   1    0.592849    0.723746    0.622032    11.00000    0.01481    0.03719 =
         0.01835   -0.00745    0.00103   -0.00164
C12   1    0.557940    0.882954    0.668011    11.00000    0.01673    0.03016 =
         0.01912   -0.00040   -0.00287   -0.00651
C13   1    0.456626    0.905857    0.792395    11.00000    0.01720    0.02117 =
         0.02276   -0.00600   -0.00363   -0.00202
HKLF    4




REM  SM_209 in P-1
REM R1 =  0.0484 for    1464 Fo > 4sig(Fo)  and  0.0666 for all    2008 data
REM    190 parameters refined using      0 restraints

END

WGHT      0.0465      0.0000

REM Highest difference peak  0.245,  deepest hole -0.313,  1-sigma level  0.076
Q1    1   0.1283  0.9200  0.9374  11.00000  0.05    0.22
Q2    1   0.4087  0.5067  1.0206  11.00000  0.05    0.22
Q3    1   0.3924  0.7846  1.1633  11.00000  0.05    0.21
Q4    1   0.5690  1.1548  0.5041  11.00000  0.05    0.20
Q5    1  -0.0083  1.3130  1.0334  11.00000  0.05    0.20
Q6    1   0.1714  1.0799  1.2964  11.00000  0.05    0.20
Q7    1   0.4811  0.6419  0.9585  11.00000  0.05    0.19
Q8    1   0.6113  0.7982  0.3878  11.00000  0.05    0.19
Q9    1   0.0373  1.1227  1.1865  11.00000  0.05    0.19
Q10   1   0.0003  1.5127  1.4277  11.00000  0.05    0.19
Q11   1   0.5719  1.1194  0.6848  11.00000  0.05    0.19
Q12   1   0.2777  0.8923  1.2543  11.00000  0.05    0.18
Q13   1   0.2651  0.4637  0.8248  11.00000  0.05    0.18
Q14   1   0.5388  0.4044  0.8842  11.00000  0.05    0.18
Q15   1   0.7258  1.0201  0.6874  11.00000  0.05    0.18
Q16   1   0.6098  0.3419  0.8198  11.00000  0.05    0.18
Q17   1   0.4741  0.7988  0.5239  11.00000  0.05    0.18
Q18   1   0.4991  0.7903  0.9414  11.00000  0.05    0.18
Q19   1   0.4930  0.8302  0.6008  11.00000  0.05    0.18
Q20   1   0.2685  0.7331  1.2001  11.00000  0.05    0.18
;
_shelx_res_checksum              35406
_shelx_hkl_file
;
   0   0  -2 26209.0 512.607   2
   0   0  -2 24151.1 332.568   6
   0   0  -3 2752.06 138.501   6
   0   0   3 2684.35 136.124   6
   0   0  -3 3096.57 223.119   2
   0   0  -3 2449.71 115.837   3
   0   0  -4 22587.8 431.965   3
   0   0  -4 20455.9 480.348   6
   0   0  -5 7931.97 280.323   3
   0   0  -5 8742.10 504.055   2
   0   0  -6 44787.7 1283.47   2
   0   0  -6 41320.8 700.490   3
   0   0  -7 1944.89 161.701   3
   0   0  -7 2248.86 321.546   2
   0   0  -7 1515.98 109.185   4
   0   0  -8 586.482 177.250   2
   0   0  -8 469.755 58.3828   4
   0   0  -9 39.5227 65.2141   2
   0   0 -10 4785.12 590.664   2
   0   0 -11 1221.99 320.706   2
   0   0 -12 1563.57 391.177   2
   0   1 -12 299.136 170.401   2
   0   1 -11 191.989 127.132   2
   0   1 -10 853.119 250.948   2
   0   1  -9 86.0883 55.1708   2
   0   1  -8 80.3340 44.2333   3
   0   1  -8 65.3245 78.0939   2
   0   1  -8 80.4590 44.7560   6
   0   1  -7 290.207 80.6491   3
   0   1  -7 303.046 80.9830   6
   0   1  -7 435.514 136.740   2
   0   1  -6 1058.85 146.590   6
   0   1  -6 934.686 191.676   2
   0   1  -6 1157.23 152.227   3
   0  -1   5 13812.7 564.610   1
   0   1  -5 13347.8 484.488   6
   0   1  -5 14995.1 504.188   3
   0   1  -5 14050.8 676.900   2
   0   1  -4 1049.93 123.112   3
   0  -1   4 970.489 136.456   1
   0   1  -4 1007.83 162.468   2
   0  -1   3 77.4700 32.8294   1
   0   1  -3 91.8940 44.9938   2
   0   1  -3 82.9528 32.9592   6
   0   1  -3 64.6205 27.9623   3
   0   1  -2 3640.73 111.643   4
   0   1  -2 4179.45 246.397   2
   0  -1   2 3330.23 182.487   3
   0   1  -2 4366.43 215.759   5
   0   1  -2 3575.83 194.395   3
   0  -1   1 57159.3 691.419   3
   0   1  -1 63217.7 752.662   2
   0  -1  -1 27640.0 361.429   3
   0  -1  -2 5762.71 243.942   2
   0  -1  -3 24361.7 613.753   2
   0  -1  -4 1396.41 166.324   2
   0   1   4 988.677 76.9117   6
   0  -1  -5 113006. 652.108   3
   0  -1  -5 140988. 1880.08   2
   0  -1  -6 1497.81 220.766   2
   0  -1  -6 1498.39 86.6991   3
   0  -1  -7 3624.62 384.241   2
   0  -1  -8-74.6391 61.1046   2
   0  -1  -8 47.7075 27.6011   4
   0  -1  -9 181.106 92.2191   2
   0  -1 -10 217.690 123.488   2
   0  -1 -11 6325.57 726.034   2
   0  -1 -12 438.884 210.911   2
   0   2 -12 2986.39 552.662   2
   0   2 -11 107.551 96.5000   2
   0   2 -10 1922.87 384.436   2
   0   2  -9-13.9839 49.6141   2
   0   2  -8 85843.4 1626.53   3
   0   2  -8 84144.0 2251.45   2
   0   2  -7 714.503 135.840   5
   0   2  -7 664.609 176.667   2
   0   2  -7 695.020 140.716   3
   0   2  -6 82.6510 76.9359   2
   0   2  -6-61.6137 37.7162   5
   0   2  -6 33.0646 27.3197   6
   0   2  -6 21.6609 27.4277   3
   0   2  -5 0.29603 20.2191   3
   0   2  -5-8.95808 34.0782   2
   0   2  -5-44.0924 31.7716   5
   0   2  -5 41.7403 51.3468   6
   0   2  -4 15.6637 21.4517   3
   0   2  -4-4.39288 32.7324   2
   0   2  -4 11.1091 21.3554   5
   0   2  -4-2.85726 10.9707   6
   0   2  -4 28.3901 28.2618   1
   0  -2   4 18.0602 11.9528   2
   0  -2   3 2738.64 225.784   3
   0   2  -3 2771.71 267.426   2
   0   2  -3 2759.49 232.160   3
   0  -2   3 2608.57 231.605   2
   0  -2   2 61161.5 1026.96   2
   0  -2   2 50937.8 845.997   3
   0  -2   2 58999.5 718.702   4
   0  -2   2 74457.4 1245.82   5
   0   2  -2 70027.1 1167.43   2
   0  -2   1 752.110 112.904   2
   0  -2   1 647.317 77.4963   2
   0  -2   1 777.983 107.266   3
   0  -2   1 629.177 79.4618   4
   0  -2   0 6326.23 277.362   3
   0  -2   0 6128.92 219.925   2
   0   2   0 6028.37 225.275   2
   0  -2  -1 10384.2 340.054   3
   0  -2  -1 10600.0 294.873   2
   0   2   1 10692.9 308.338   2
   0  -2  -2 1.24689 9.56474   2
   0  -2  -2 15.2265 9.21163   3
   0   2   2 16.6010 16.0448   2
   0  -2  -3 815.005 114.530   2
   0  -2  -3 771.955 76.7273   3
   0  -2  -4 66992.1 1210.38   2
   0  -2  -4 69971.0 652.277   3
   0  -2  -5 1003.34 67.5757   3
   0  -2  -5 1122.35 173.292   2
   0   2   6 860.450 79.2192   6
   0  -2  -6 992.107 173.578   2
   0  -2  -7 6674.59 509.470   2
   0  -2  -8 62.1035 42.4210   4
   0  -2  -8 47.9134 47.6636   2
   0  -2  -9-80.2493 67.8123   2
   0  -2 -10 4999.44 588.919   2
   0  -2 -11 2308.88 433.441   2
   0  -2 -12 891.561 284.187   2
   0   3 -12 95.6011 101.442   2
   0   3 -11 272.572 161.141   2
   0   3 -10 1166.71 318.700   2
   0   3  -9 25832.3 1398.95   2
   0   3  -8 4906.51 570.818   2
   0   3  -7 10377.5 771.886   2
   0   3  -7 11556.1 640.283   3
   0   3  -6 1975.31 263.098   1
   0   3  -6 2316.98 337.244   2
   0   3  -6 2125.56 266.476   3
   0   3  -5 18817.4 771.439   1
   0   3  -5 20069.7 903.638   2
   0   3  -5 19472.4 783.721   3
   0   3  -4 29.4442 21.0744   2
   0   3  -4 36.3856 28.6573   3
   0  -3   4 1.73484 24.3996   2
   0   3  -3 114181. 1794.85   3
   0  -3   3 116396. 1736.99   2
   0  -3   3 105171. 1166.45   4
   0   3  -3 123036. 1969.84   2
   0  -3   3 110030. 1615.74   3
   0  -3   3 126661. 1944.64   5
   0  -3   2 323.476 85.1797   2
   0   3  -2 467.878 107.758   2
   0  -3   2 469.938 127.415   5
   0  -3   2 332.262 68.5564   4
   0  -3   2 384.420 87.1119   3
   0  -3   1 18920.9 541.364   4
   0  -3   1 19508.9 649.927   3
   0  -3   1 20919.2 670.612   2
   0  -3   1 19230.6 502.927   2
   0   3   0 99.0029 34.9142   2
   0  -3   0 108.829 48.0202   3
   0  -3   0 163.607 47.2310   2
   0  -3   0 95.1039 40.8501   4
   0  -3  -1 36650.6 648.911   2
   0   3   1 37641.7 695.488   2
   0  -3  -1 36626.8 782.417   3
   0  -3  -2 18305.4 504.091   2
   0   3   2 18035.5 510.296   2
   0  -3  -2 17863.8 522.358   3
   0   3   3 48968.5 893.959   2
   0  -3  -3 47672.7 810.534   3
   0  -3  -3 50083.4 941.054   2
   0  -3  -4 138.338 40.6647   3
   0  -3  -4 131.498 53.0344   2
   0   3   4 170.300 56.8734   2
   0  -3  -5 1426.90 204.257   2
   0  -3  -5 1374.00 115.147   3
   0  -3  -6 60.5507 20.5202   3
   0  -3  -6 146.964 73.7557   2
   0  -3  -7 1139.25 208.896   2
   0  -3  -8 3794.31 413.629   2
   0  -3  -9 1263.20 265.783   2
   0  -3 -10 68.7530 66.5804   2
   0  -3 -11 513.122 204.835   2
   0  -3 -12 428.069 197.684   2
   0   4 -11-128.936 110.594   2
   0   4 -10 3166.07 533.607   2
   0   4  -9 3.72662 19.2691   2
   0   4  -8 386.757 160.650   2
   0   4  -7 712.827 212.980   2
   0   4  -7 765.400 187.674   3
   0   4  -7 657.430 176.248   1
   0   4  -6 2270.89 306.516   1
   0   4  -6 1752.80 273.848   3
   0   4  -6 2692.63 406.249   2
   0   4  -5 913.906 194.089   3
   0   4  -5 1111.85 234.843   2
   0   4  -5 1037.65 200.994   1
   0   4  -4 288.270 101.273   1
   0  -4   4 185.373 74.5888   2
   0   4  -4 171.910 83.6565   3
   0  -4   4 220.935 94.0368   5
   0  -4   3 1295.26 153.511   4
   0  -4   3 1238.11 193.210   2
   0  -4   3 1157.47 154.848   2
   0  -4   3 1569.86 257.469   5
   0   4  -3 1320.19 212.380   3
   0  -4   2 6019.03 414.769   2
   0  -4   2 6247.70 544.384   5
   0  -4   2 5789.24 330.695   2
   0  -4   2 5814.70 340.750   4
   0  -4   1 56.1200 33.3663   4
   0  -4   1 38.8851 43.6866   2
   0  -4   1 57.5715 30.9496   2
   0   4   0 4053.83 267.046   2
   0  -4   0 3912.36 295.576   4
   0  -4   0 3965.89 246.380   2
   0  -4  -1 110.255 51.1220   3
   0  -4  -1 100.101 40.9100   2
   0   4   1 106.880 43.9100   2
   0   4   2 85604.4 1258.41   2
   0  -4  -2 84412.7 1366.62   3
   0  -4  -2 86181.6 1203.31   2
   0  -4  -3 140.877 50.2962   3
   0  -4  -3 159.336 59.0697   2
   0   4   3 241.875 69.9729   2
   0  -4  -4 15102.1 524.972   3
   0  -4  -4 15957.2 625.983   2
   0  -4  -5 641.314 102.189   3
   0  -4  -5 624.828 137.594   2
   0  -4  -6 34926.9 656.729   3
   0  -4  -6 43070.9 1258.09   2
   0  -4  -7 12160.0 717.869   2
   0  -4  -8 80539.9 1955.31   2
   0  -4  -9 245.776 113.563   2
   0  -4 -10 74.3943 62.5528   2
   0  -4 -11 654.144 224.291   2
   0  -4 -12 721.589 263.316   2
   0   5 -10 40.8341 63.7260   2
   0   5  -9-122.590 102.461   2
   0   5  -8 100.805 65.0837   1
   0   5  -8 175.010 113.508   2
   0   5  -7 810.547 226.472   2
   0   5  -7 832.656 210.404   1
   0   5  -6 2413.05 345.607   1
   0   5  -6 2857.12 414.853   2
   0   5  -5 1265.89 268.161   2
   0   5  -5 879.253 203.502   1
   0   5  -5 1059.85 223.796   3
   0  -5   4 131.866 82.4976   5
   0   5  -4 101.902 45.8453   3
   0  -5   4-47.7655 36.7335   2
   0  -5   3 87.6812 68.7209   5
   0   5  -3 129.691 72.7120   3
   0  -5   3 108.051 56.0420   2
   0  -5   3 112.060 52.0327   2
   0  -5   2 6772.91 642.804   5
   0  -5   2 5732.54 440.873   2
   0  -5   2 6263.57 370.573   2
   0   5  -2 6235.34 490.030   3
   0  -5   1 3954.82 495.282   5
   0  -5   1 3132.26 249.652   2
   0  -5   1 3220.20 338.522   2
   0   5   0 129.727 53.1303   2
   0  -5   0 165.009 54.5156   2
   0  -5  -1 4204.86 278.686   2
   0   5   1 3977.78 298.237   2
   0   5   2 1006.63 154.638   2
   0  -5  -2 1167.26 153.339   2
   0  -5  -3 4413.91 325.998   2
   0  -5  -4-4.78929 11.8338   2
   0  -5  -4 25.9811 22.2388   3
   0  -5  -5 78.4864 40.9436   3
   0  -5  -5 8.47732 16.2113   2
   0  -5  -6-18.5811 18.6000   3
   0  -5  -6-7.85767 41.8509   2
   0  -5  -7 24237.9 1050.71   2
   0  -5  -8 1420.85 264.651   2
   0  -5  -9 86.9214 55.5865   2
   0  -5 -10 168.825 112.491   2
   0  -5 -11 3214.50 503.926   2
   0   6  -8-48.5731 56.9559   1
   0   6  -8 28.9755 43.2652   2
   0  -6   7 268.979 104.451   2
   0   6  -7 116.409 91.4125   2
   0   6  -7 155.043 102.756   1
   0  -6   6 23152.9 956.565   2
   0   6  -6 23482.5 1157.94   1
   0   6  -5 1681.98 306.778   1
   0  -6   5 1590.84 236.563   2
   0  -6   4 2917.05 439.536   5
   0  -6   4 2380.28 275.293   2
   0  -6   3 487.297 183.846   5
   0  -6   3 518.491 117.591   2
   0  -6   2 27755.9 1471.04   5
   0  -6   2 23324.3 768.865   2
   0  -6   1 9769.00 848.848   5
   0  -6   1 8526.71 450.107   2
   0  -6   0 48631.9 1032.56   2
   0  -6  -1 231.577 71.2654   2
   0  -6  -2 525.377 110.459   2
   0  -6  -3 2559.37 265.423   2
   0  -6  -4 489.362 122.560   2
   0  -6  -5 467.292 127.524   2
   0  -6  -6 3291.17 373.979   2
   0  -6  -7 42.5330 42.5734   2
   0  -6  -8 889.052 214.659   2
   0  -6  -9 110.914 80.7269   2
   0  -6 -10 143.263 99.8301   2
   0  -6 -11 139.301 105.309   2
   0   7  -9-64.0914 70.2521   1
   0   7  -8 70.3743 89.0895   1
   0   7  -7 158.299 103.742   1
   0   7  -6 285.066 136.442   1
   0   7  -5 40.0177 29.5378   1
   0  -7   5 18.6221 12.9195   2
   0  -7   4 28.6666 30.5263   2
   0  -7   4 8.37898 92.4892   5
   0  -7   3 1489.96 350.956   5
   0  -7   3 1305.55 198.092   2
   0  -7   2 95.2474 66.2422   5
   0  -7   2 15.7825 24.6372   2
   0  -7   1 72742.4 1383.80   2
   0  -7   1 82705.8 2737.67   5
   0  -7   0 800.741 278.156   5
   0  -7   0 953.096 158.553   2
   0  -7  -1-3.71768 12.2402   2
   0  -7  -2 945.438 163.278   2
   0  -7  -3 11121.1 597.280   2
   0  -7  -4 2256.82 282.180   2
   0  -7  -5 12734.2 710.458   2
   0  -7  -6-124.789 75.8794   2
   0  -7  -7 593.110 180.202   2
   0  -7  -8 1230.67 270.558   2
   0  -7  -9 4934.10 558.394   2
   0  -7 -10 674.643 224.100   2
   0   8  -7 473.074 197.500   1
   0   8  -6 131.745 125.127   1
   0   8  -5-155.122 108.911   1
   0  -8   4 1061.36 328.918   5
   0  -8   3 531.121 227.467   5
   0  -8   2 1327.27 375.995   5
   0  -8   1 579.342 257.304   5
   0  -8   1 415.148 104.404   2
   0  -8   0 12.7599 18.9759   2
   0  -8   0 59.5945 79.8003   5
   0  -8  -1 1034.86 174.348   2
   0  -8  -1 1517.98 407.775   5
   0  -8  -2 163.971 74.4097   2
   0  -8  -3-25.8311 31.1379   2
   0  -8  -4 2302.00 299.175   2
   0  -8  -5 25.6478 26.8401   2
   0  -8  -6 917.187 217.356   2
   0  -8  -7 63.8061 60.1449   2
   0  -8  -8 1125.24 267.129   2
   0  -8  -9 519.766 195.248   2
   0  -9   3 2685.85 545.158   5
   0  -9   2 292.858 184.911   5
   0  -9   1 126.847 129.587   5
   0  -9   0 596.318 276.615   5
   0  -9  -1 373.887 189.926   5
   0  -9  -2 132.971 132.143   5
   0  -9  -4 268.325 109.473   2
   0  -9  -5 134.812 80.4721   2
   0  -9  -6 500.481 168.207   2
   0  -9  -7 19.6245 35.6258   2
   0  -9  -8 81.1596 73.1825   2
   0 -10   2 333.192 211.460   5
   0 -10   1 58.4852 139.410   5
   0 -10   0 3516.25 732.703   5
   0 -10  -1 518.131 284.286   5
   1  -9  -4 95.2234 116.411   5
   1  -9  -3 1652.03 486.744   5
   1  -9  -2 2549.59 616.404   5
   1  -9  -1 2091.79 560.283   5
   1  -9   0 201.174 167.063   5
   1  -9   1 1163.50 381.902   5
   1  -9   2-59.2953 86.5806   5
   1  -9   3 110.808 122.604   5
   1  -9   4 52.4129 85.3505   5
   1  -8  -9 297.132 138.369   2
   1  -8  -8 128.412 88.2956   2
   1  -8  -7 96.1485 78.6859   2
   1  -8  -6 1174.92 239.922   2
   1  -8  -5 180.310 85.6587   2
   1  -8  -5 109.850 181.376   5
   1  -8  -4 733.231 296.558   5
   1  -8  -4 660.850 160.352   2
   1  -8  -3 379.824 108.625   2
   1  -8  -3 704.107 290.302   5
   1  -8  -2 157.932 137.460   5
   1  -8  -1 729.739 289.440   5
   1  -8   0 985.260 358.551   5
   1  -8   1 540.606 256.516   5
   1  -8   2 42.6390 68.6520   5
   1  -8   3 147.396 126.932   5
   1  -8   4 167.721 140.206   5
  -1   8  -5 468.758 202.776   1
  -1   8  -6 3539.45 542.661   1
   1  -7 -10 599.444 217.745   2
   1  -7  -9 633.624 207.057   2
   1  -7  -8 932.778 236.866   2
   1  -7  -7 98.6307 38.0859   2
   1  -7  -6-3.68726 57.7885   2
   1  -7  -5 1211.58 223.044   2
   1  -7  -4 13.1267 35.9650   2
   1  -7  -3 2208.42 264.147   2
   1  -7  -3 2179.67 487.999   5
   1  -7  -2 57.6898 38.2082   2
   1  -7  -2-206.710 145.857   5
   1  -7  -1 3783.92 618.613   5
   1  -7  -1 4010.60 306.451   2
   1  -7   0 46.1358 30.1251   2
   1  -7   0 7.05676 113.504   5
  -1   7  -1 2712.48 394.451   3
   1  -7   1 3161.50 244.133   2
   1  -7   1 3505.23 608.199   5
   1  -7   2 5430.62 322.829   2
   1  -7   2 5500.65 725.065   5
  -1   7  -2 4871.26 547.551   3
   1  -7   3 94.1077 59.3441   5
  -1   7  -3 150.017 90.4135   3
  -1   7  -4-128.301 89.8654   3
   1  -7   4 254.497 159.992   5
  -1   7  -5-15.5498 32.2992   3
  -1   7  -5-79.8780 76.5383   1
  -1   7  -6 193.607 123.595   1
  -1   7  -7 364.557 159.881   1
  -1   7  -8 302.690 150.645   1
   1  -6 -10 2544.05 446.074   2
   1  -6  -9 91.6964 99.8170   2
   1  -6  -8 4953.49 521.660   2
   1  -6  -7 1698.85 283.151   2
   1  -6  -6 529.728 148.878   2
   1  -6  -5 164.645 77.2558   2
   1  -6  -4 786.989 158.029   2
   1  -6  -3 84.9623 44.3565   2
   1  -6  -2 6352.36 378.990   2
   1  -6  -2 6705.05 785.613   5
   1  -6  -1 18.3605 23.7517   2
  -1   6   1 25.2280 12.5880   2
   1  -6  -1 80.4699 83.2499   5
  -1   6   1-11.1007 47.7571   3
   1  -6   0 6745.48 483.443   2
  -1   6   0 6097.27 521.284   3
   1  -6   0 7329.64 351.094   2
   1  -6   1 92.6449 37.6655   2
  -1   6  -1 25.5733 43.8129   3
   1  -6   1 164.434 129.233   5
   1  -6   1 76.6716 60.3645   2
  -1   6  -2 2741.20 370.026   3
   1  -6   2 2789.77 221.232   2
   1  -6   2 2529.25 271.424   2
   1  -6   2 3048.63 491.151   5
   1  -6   3 97.7639 72.0187   5
  -1   6  -3 294.921 123.855   3
   1  -6   3 208.336 63.5040   2
   1  -6   4-2.09138 7.66278   2
   1  -6   4-104.829 94.9375   5
  -1   6  -4-37.5143 45.6514   3
   1  -6   5 213.769 75.8209   2
  -1   6  -5 196.387 116.297   1
  -1   6  -5 228.205 114.624   3
  -1   6  -6 653.727 200.327   1
  -1   6  -6 741.952 216.625   3
  -1   6  -7 1563.90 320.752   1
  -1   6  -7 1475.59 317.660   3
  -1   6  -8 80.0831 39.9734   1
  -1   6  -8 48.9627 57.0467   3
  -1   6  -9 144.022 112.402   1
   1  -5 -11 42.2673 108.261   2
   1  -5 -10 493.150 203.344   2
   1  -5  -9 223.205 97.6661   2
   1  -5  -8 253.430 112.710   2
   1  -5  -7 7828.88 600.059   2
   1  -5  -6 1478.54 240.557   2
   1  -5  -5 113.053 52.1940   2
   1  -5  -4-40.9648 34.9591   2
   1  -5  -3 20835.7 717.208   2
  -1   5   2 3726.82 273.872   2
   1  -5  -2 3539.85 263.911   2
  -1   5   2 3573.51 331.664   3
  -1   5   1 60.6203 41.7198   3
   1  -5  -1 150.109 93.8492   5
  -1   5   1 121.159 49.0492   2
   1  -5  -1 104.798 37.7106   2
   1  -5   0 478.514 80.8561   2
  -1   5   0 517.281 94.5938   2
   1  -5   0 687.020 223.587   5
  -1   5   0 420.156 122.935   3
   1  -5   1 4512.95 248.580   2
   1  -5   1 4478.24 351.643   2
  -1   5  -1 4650.61 435.873   3
   1  -5   2 689.974 103.124   2
   1  -5   2 1058.59 265.914   5
  -1   5  -2 723.264 178.895   3
   1  -5   2 742.259 136.361   2
   1  -5   3 4259.59 277.932   2
   1  -5   3 4521.54 547.586   5
  -1   5  -3 4209.51 440.578   3
   1  -5   3 4033.39 321.157   2
  -1   5  -4 209.492 107.786   3
   1  -5   4 100.423 48.6642   2
   1  -5   4 194.718 58.1450   2
  -1   5  -5 9112.48 688.265   1
   1  -5   5 8547.04 465.917   2
  -1   5  -5 9508.19 712.493   3
  -1   5  -6 357.636 138.540   1
  -1   5  -6 533.652 173.572   3
  -1   5  -6 396.094 138.917   2
  -1   5  -7 425.771 156.978   1
  -1   5  -7 818.487 218.048   3
  -1   5  -7 549.447 177.752   2
  -1   5  -8-32.0686 45.2732   2
  -1   5  -8 51.8485 55.0859   3
  -1   5  -8-12.7725 44.7093   1
  -1   5  -9 84.4763 71.2517   3
   1  -4 -11 1278.29 334.025   2
   1  -4 -10 55.7345 81.4563   2
   1  -4  -9 209.081 114.312   2
   1  -4  -8 318.894 142.468   2
   1  -4  -7 287.813 110.501   2
   1  -4  -6 6721.85 497.120   2
  -1   4   6 11018.8 740.803   6
  -1   4   5 1790.89 190.746   6
   1  -4  -5 1561.06 223.436   2
  -1   4   4 12376.1 519.279   6
   1  -4  -4 12554.8 583.914   2
   1  -4  -3 174.125 62.0047   2
  -1   4   3 88.6714 42.3314   3
  -1   4   3 250.279 77.7782   6
  -1   4   3 136.410 46.5394   2
  -1   4   2 20524.4 565.943   2
  -1   4   2 20215.3 710.038   3
   1  -4  -2 20419.7 581.812   2
  -1   4   2 20212.2 739.601   6
  -1   4   1 8946.61 354.946   2
   1  -4  -1 9339.28 355.633   2
   1  -4   0 138.754 89.0696   5
   1  -4   0 131.076 35.3204   2
  -1   4   0 191.163 50.3759   2
   1  -4   1 1946.56 195.922   2
   1  -4   1 1857.45 140.861   2
   1  -4   1 2103.81 350.770   5
   1  -4   2 53.6840 32.1543   5
   1  -4   2 82.4915 43.5019   2
   1  -4   2 100.601 39.1867   2
   1  -4   3 3784.11 248.600   2
   1  -4   3 4854.72 533.486   5
   1  -4   3 4081.91 290.212   2
  -1   4  -3 4055.32 378.883   3
  -1   4  -4 312.669 105.328   3
  -1   4  -4 421.408 118.844   2
  -1   4  -4 355.145 123.946   1
   1  -4   4 264.822 76.3663   2
  -1   4  -5 49.9703 57.6239   3
  -1   4  -5-6.96417 45.2054   1
   1  -4   5 63.4432 40.0083   2
  -1   4  -5 106.778 61.5952   2
  -1   4  -6 3048.61 372.072   3
  -1   4  -6 2866.32 362.984   1
  -1   4  -6 3204.11 400.067   2
  -1   4  -7 1210.92 253.345   2
  -1   4  -7 1042.79 232.299   1
  -1   4  -7 998.125 221.523   3
  -1   4  -8 417.541 160.207   2
  -1   4  -8 452.634 156.260   3
  -1   4  -9 16.3766 33.1247   2
  -1   4  -9 195.822 101.107   3
  -1   4 -10 127.663 81.6948   3
  -1   4 -10 375.757 166.054   2
   1  -3 -12 90.9239 106.440   2
   1  -3 -11 5992.51 735.612   2
   1  -3 -10-49.9638 86.4912   2
   1  -3  -9 1014.34 259.630   2
   1  -3  -8 2604.90 374.657   2
   1  -3  -7 282.616 111.030   2
   1  -3  -6 6581.90 490.882   2
  -1   3   6 625.923 85.5907   6
   1  -3  -5 232.829 83.9535   2
  -1   3   5 37.9783 31.0580   6
  -1   3   4 1275.15 140.755   6
   1  -3  -4 1228.34 172.477   2
  -1   3   4 1321.12 167.205   2
   1  -3  -3 13831.4 524.322   2
  -1   3   3 14102.7 476.786   2
   1  -3  -3 13940.0 569.818   4
  -1   3   3 13660.6 483.041   6
  -1   3   3 13511.5 443.450   3
  -1   3   2 12.8729 14.5173   2
  -1   3   2 11.7402 11.8607   3
   1  -3  -2-37.4509 28.5308   4
  -1   3   2 21.0106 17.6711   6
   1  -3  -2 9.77921 7.05303   2
  -1   3   1 724.806 86.0113   2
  -1   3   1 810.243 132.172   6
   1  -3  -1 772.562 126.076   4
  -1   3   1 800.156 123.818   3
   1  -3  -1 807.318 90.6349   2
  -1   3   0 7589.09 421.615   6
   1  -3   0 7978.96 392.933   4
   1  -3   0 7509.99 233.717   2
  -1   3   0 7548.89 254.731   2
   1  -3   1 55460.7 888.013   2
  -1   3  -1 53214.4 1182.48   6
  -1   3  -1 49301.6 977.454   4
   1  -3   1 51926.0 985.187   4
   1  -3   1 51361.5 627.768   2
  -1   3  -2 592.465 105.221   4
   1  -3   2 626.750 163.152   5
   1  -3   2 469.338 80.3737   2
  -1   3  -2 694.554 144.506   6
   1  -3   2 435.653 66.9531   2
   1  -3   3 1128.96 227.547   5
  -1   3  -3 819.650 121.717   4
  -1   3  -3 976.069 150.022   2
   1  -3   3 791.718 117.504   2
  -1   3  -3 883.877 201.986   5
  -1   3  -4 583.876 153.700   5
  -1   3  -4 743.423 111.638   4
  -1   3  -4 629.927 130.342   2
  -1   3  -4 760.555 152.848   3
   1  -3   4 601.378 108.384   2
  -1   3  -5 9353.04 384.731   4
  -1   3  -5 9497.20 579.670   1
  -1   3  -5 10375.1 587.576   3
  -1   3  -5 11282.9 692.607   5
   1  -3   5 8507.54 426.264   2
  -1   3  -5 10578.5 608.747   2
  -1   3  -6 40.0717 49.8763   5
  -1   3  -6-18.8970 28.9774   1
  -1   3  -6 3.44173 13.0285   2
  -1   3  -6 14.5292 22.7603   3
  -1   3  -7 1931.60 301.921   2
  -1   3  -7 1838.45 268.014   3
  -1   3  -7 2469.13 338.321   5
  -1   3  -8 3963.10 466.139   2
  -1   3  -8 3858.62 411.623   3
  -1   3  -9 3990.82 442.023   3
  -1   3  -9 3933.82 500.793   2
  -1   3 -10 933.974 213.433   3
  -1   3 -10 896.650 260.067   2
  -1   3 -11 612.001 232.728   2
  -1   3 -12 270.397 161.895   2
   1  -2 -12 523.114 242.840   2
   1  -2 -11 275.976 151.750   2
   1  -2 -10 157.412 111.692   2
   1  -2  -9 144.186 98.2383   2
   1  -2  -8 563.089 172.160   2
   1  -2  -7 604.454 115.697   4
   1  -2  -7 722.007 182.097   2
   1  -2  -6 6321.00 494.264   2
   1  -2  -6 6746.89 376.128   4
   1  -2  -5 1386.74 164.921   4
   1  -2  -5 1433.35 207.714   2
  -1   2   4 431.877 52.6454   6
   1  -2  -4 628.584 107.115   4
  -1   2   4 550.226 105.491   2
   1  -2  -4 605.471 116.997   2
   1  -2  -3 2209.30 196.348   4
  -1   2   3 2237.53 136.021   3
  -1   2   3 2077.53 182.237   2
   1  -2  -3 1934.70 185.869   2
  -1   2   3 1457.42 215.945   6
  -1   2   2 23416.5 516.292   2
   1  -2  -2 22223.8 546.725   2
   1  -2  -2 22940.3 612.519   4
  -1   2   2 22194.5 484.755   3
   1  -2  -1 244.486 60.6010   4
  -1   2   1 238.365 50.5331   3
  -1   2   1 244.838 61.4753   6
   1  -2  -1 244.137 46.8753   2
  -1   2   1 256.553 42.1705   2
  -1   2   0 76823.4 609.130   2
   1  -2   0 77242.6 590.659   2
   1  -2   0 76912.7 1055.76   4
   1  -2   1 7312.10 174.793   2
   1  -2   1 7149.95 221.853   2
  -1   2  -1 7787.82 332.527   4
   1  -2   2 9192.70 565.228   5
  -1   2  -2 9102.63 556.901   5
   1  -2   2 7013.33 258.077   2
  -1   2  -2 7200.69 308.003   4
  -1   2  -2 7715.33 300.317   2
  -1   2  -3 750.299 160.186   6
  -1   2  -3 422.541 83.5005   2
  -1   2  -3 505.737 128.189   5
   1  -2   3 399.589 70.1073   2
  -1   2  -3 386.812 90.2704   3
  -1   2  -3 497.617 79.3917   4
  -1   2  -4 12.9837 10.5270   4
  -1   2  -4-5.54223 16.4718   5
  -1   2  -4 12.0569 23.1808   3
  -1   2  -4 19.9988 23.7180   6
  -1   2  -4 2.22598 28.7962   2
   1  -2   4 20.3187 29.4410   2
  -1   2  -5 1283.63 121.991   4
  -1   2  -5 1323.78 186.564   3
  -1   2  -5 1255.62 196.504   1
  -1   2  -5 1566.27 230.167   5
  -1   2  -5 1266.50 195.640   2
   1  -2   5 1156.09 154.110   2
  -1   2  -6 935.900 167.437   3
  -1   2  -6 772.410 161.460   5
  -1   2  -6 843.223 94.5964   4
  -1   2  -6 828.549 176.432   2
  -1   2  -7 205.754 86.6596   5
  -1   2  -7 239.470 47.4170   4
  -1   2  -7 189.648 90.5767   2
  -1   2  -7 198.385 74.9137   3
  -1   2  -8 12.3820 23.1500   5
  -1   2  -8 71.6604 61.4024   3
  -1   2  -9 203.200 86.4830   3
  -1   2  -9 73.5462 68.7011   2
  -1   2 -10 5047.93 445.309   3
  -1   2 -10 4174.37 548.323   2
  -1   2 -11 126.397 111.968   2
  -1   2 -12 109.360 97.8638   2
  -1   2 -13 190.567 136.750   2
   1  -1 -12-58.6091 76.7882   2
   1  -1 -11 512.793 209.562   2
   1  -1 -10 348.092 170.476   2
   1  -1  -9 354.321 152.107   2
   1  -1  -8 2065.75 349.310   2
   1  -1  -7 29570.1 1224.87   2
   1  -1  -6 2379.65 310.970   2
   1  -1  -6 2150.18 173.847   4
   1  -1  -5 4411.24 248.633   4
   1  -1  -5 5420.36 422.887   2
   1  -1  -4 49.7614 25.9737   4
   1  -1  -4 101.923 55.8934   2
   1  -1  -3 448.414 93.6741   2
   1  -1  -3 439.870 72.8177   4
   1  -1  -2 6286.87 261.935   4
  -1   1   2 6364.39 274.949   2
   1  -1  -2 7628.56 209.709   6
   1  -1  -2 6657.31 304.614   2
  -1   1   1 351.706 50.3562   2
   1  -1  -1 378.311 57.0067   2
  -1   1   1 345.241 56.4688   6
  -1   1   0 1142.01 159.619   5
  -1   1   0 799.182 88.6265   6
  -1   1  -1 27132.2 751.895   5
  -1   1  -1 21940.3 495.887   6
   1  -1   2 5503.35 189.808   2
  -1   1  -2 4803.22 263.810   6
  -1   1  -2 5486.75 210.468   2
   1  -1   3 7186.21 372.100   1
  -1   1  -3 6986.25 310.040   2
   1  -1   3 6635.81 274.740   2
  -1   1  -3 7303.47 361.818   6
   1  -1   4 92.4247 53.3533   6
   1  -1   4 149.188 57.8586   1
  -1   1  -4 99.7937 49.5502   2
  -1   1  -4 112.373 52.9348   6
   1  -1   4 116.901 43.3846   2
  -1   1  -5 86332.6 1409.83   6
  -1   1  -5 85711.7 1504.99   2
   1  -1   5 83650.1 1326.27   2
  -1   1  -6 64.7904 38.6948   6
  -1   1  -6 54.7468 32.2712   3
  -1   1  -6 31.9050 27.4246   2
  -1   1  -7 4811.52 353.776   3
  -1   1  -7 5553.20 393.942   6
  -1   1  -7 5603.21 480.017   2
  -1   1  -8 400.092 105.289   3
  -1   1  -8 456.721 150.593   2
  -1   1  -9-30.6952 35.6916   2
  -1   1  -9 33.9799 29.7151   3
  -1   1 -10 1128.49 194.113   3
  -1   1 -10 1107.24 276.340   2
  -1   1 -11 109.841 69.8561   2
  -1   1 -12-115.615 102.616   2
  -1   1 -13 746.262 271.156   2
   1   0 -12 531.018 240.613   2
   1   0 -11-8.40051 31.4872   2
   1   0 -10 277.188 147.795   2
   1   0  -9 2509.73 418.621   2
   1   0  -8 2931.58 418.316   2
   1   0  -7 802.587 202.012   2
   1   0  -6 665.351 67.4206   6
   1   0  -6 909.463 194.079   2
   1   0  -5 10071.7 244.332   6
   1   0  -5 11343.1 633.452   2
   1   0  -4 13511.2 631.327   2
   1   0  -4 13214.4 265.195   6
  -1   0   3 177.259 31.3644   3
  -1   0   3 175.120 33.1552   4
   1   0  -3 201.782 65.9585   2
   1   0  -2 34349.2 761.736   2
   1   0  -2 35254.8 633.901   5
  -1   0   1 14561.3 400.035   5
   1   0  -1 14143.8 405.873   2
  -1   0  -1 148.126 23.6604   2
   1   0   2 647.108 85.0894   1
  -1   0  -2 671.608 69.5343   2
  -1   0  -3 1425.58 134.090   2
   1   0   3 1221.25 141.730   6
   1   0   3 1314.71 139.442   1
   1   0   4 15383.7 540.232   1
  -1   0  -4 14547.5 496.923   2
   1   0   5 801.885 125.924   2
   1   0   5 923.927 142.814   6
  -1   0  -5 736.197 126.833   2
   1   0   5 762.537 133.866   1
  -1   0  -6 11657.9 589.992   2
   1   0   6 10032.6 532.461   6
  -1   0  -7 2495.30 219.575   3
   1   0   7 2117.13 212.552   6
  -1   0  -7 2338.33 296.328   2
  -1   0  -8 1876.86 195.009   3
  -1   0  -8 2131.41 314.754   2
  -1   0  -9 33.0811 43.2876   2
  -1   0  -9 174.050 60.7532   3
  -1   0 -10 3923.47 512.011   2
  -1   0 -11 1013.34 276.463   2
  -1   0 -12 1180.55 327.915   2
  -1   0 -13 82.3616 73.6534   2
   1   1 -12 205.985 143.972   2
   1   1 -11 2021.89 437.597   2
   1   1 -10-143.668 110.191   2
   1   1  -9 1914.60 379.494   2
   1   1  -8 3027.35 433.100   2
   1   1  -7 125.734 75.9804   2
   1   1  -7 50.3191 30.2354   6
  -1  -1   6 52.6381 37.5057   1
   1   1  -6 42.7517 17.1446   2
   1   1  -6 120.666 64.9791   6
  -1  -1   5 1208.19 154.986   1
  -1  -1   5 902.521 112.818   3
   1   1  -5 723.387 101.873   6
   1   1  -5 1269.16 222.724   2
  -1  -1   4 1974.36 159.587   3
   1   1  -4 2295.33 274.432   2
  -1  -1   4 1945.10 174.935   1
  -1  -1   3 135248. 1298.70   3
  -1  -1   3 137425. 1273.31   1
   1   1  -2 206.244 71.0648   2
   1   1  -2 195.096 38.5061   1
   1   1  -1 54116.9 1019.13   2
  -1  -1   0 16502.8 380.383   2
  -1  -1  -1 25824.7 452.662   2
  -1  -1  -2-2.06906 9.21406   2
  -1  -1  -3 300.538 63.6260   2
  -1  -1  -4 1052.86 139.712   2
   1   1   5 135.616 51.3759   6
  -1  -1  -5 87.5163 47.8854   2
  -1  -1  -6 103.840 58.7459   2
   1   1   6 27.4035 19.3986   6
  -1  -1  -7-2.21374 55.9795   2
   1   1   7-2.42237 10.9495   6
   1   1   8 153.020 63.8042   6
  -1  -1  -8 178.096 90.5564   2
  -1  -1  -9 12513.5 447.307   3
  -1  -1  -9 11438.6 776.845   2
  -1  -1 -10 1429.49 301.352   2
  -1  -1 -11 904.468 262.971   2
  -1  -1 -12 241.353 144.089   2
  -1  -1 -13 752.023 268.036   2
   1   2 -12 323.058 196.291   2
   1   2 -11 97.1992 96.2493   2
   1   2 -10-178.514 122.395   2
   1   2  -9 516.918 193.338   2
   1   2  -8 14585.5 968.996   2
   1   2  -7 584.444 203.896   6
   1   2  -7 309.116 133.594   2
   1   2  -6 3618.47 425.089   2
   1   2  -6 2703.12 261.047   6
   1   2  -5 605.602 159.749   2
  -1  -2   5 602.056 105.587   3
  -1  -2   4 708.523 118.592   3
   1   2  -4 727.586 117.804   1
   1   2  -4 738.835 168.709   2
   1   2  -3 2450.24 198.477   1
  -1  -2   3 1991.47 136.791   5
   1   2  -3 2042.25 251.170   2
  -1  -2   3 2189.03 197.620   3
  -1  -2   2 7131.83 339.458   3
   1   2  -2 8963.59 516.993   2
   1   2  -1 1507.44 186.953   2
  -1  -2   0 4710.85 242.170   2
  -1  -2  -1 15328.9 429.006   2
  -1  -2  -2 80265.6 995.594   2
  -1  -2  -3 81.0077 38.9420   2
  -1  -2  -4 60378.3 1090.97   2
  -1  -2  -5 1578.71 199.176   2
  -1  -2  -6 5809.42 422.693   2
  -1  -2  -7 195.440 77.9507   2
   1   2   7 60.2337 33.0383   6
   1   2   8 786.292 117.692   6
  -1  -2  -8 809.841 181.313   2
  -1  -2  -9 323.932 131.698   2
  -1  -2  -9 319.226 56.6790   3
   1   2   9 403.464 105.052   6
  -1  -2 -10 1423.45 295.433   2
  -1  -2 -11 13.3537 31.4881   2
  -1  -2 -12 180.903 123.367   2
   1   3 -11 18.7144 45.4183   2
   1   3 -10 264.970 157.003   2
   1   3  -9 1260.65 333.356   2
   1   3  -8 4158.68 559.399   2
   1   3  -7 3734.90 490.127   2
   1   3  -6 2806.24 395.001   2
   1   3  -5 9890.57 685.209   2
   1   3  -4 203.494 88.4595   2
  -1  -3   4 136.114 33.1979   4
   1   3  -4 187.293 73.7257   1
  -1  -3   3 17050.2 636.226   5
  -1  -3   3 17411.1 745.317   2
   1   3  -3 18020.0 842.776   2
  -1  -3   3 16211.8 624.466   3
   1   3  -2 469.946 120.067   2
  -1  -3   2 667.719 123.679   3
  -1  -3   2 488.496 127.489   2
  -1  -3   1 21308.5 677.824   3
  -1  -3   1 22249.0 809.836   2
  -1  -3   1 20188.5 613.771   2
  -1  -3   0 907.296 131.937   3
   1   3   0 979.065 131.542   2
  -1  -3   0 868.372 117.953   2
   1   3   1 30656.8 723.908   2
  -1  -3  -1 31107.5 702.339   2
   1   3   2 9200.27 402.846   2
  -1  -3  -2 8478.25 366.725   2
  -1  -3  -3 85.5963 34.8621   2
  -1  -3  -4 504.949 107.928   2
  -1  -3  -5 2261.78 243.812   2
  -1  -3  -6 436.274 117.503   2
  -1  -3  -7 47.0759 33.9220   2
   1   3   8 4405.79 291.202   6
  -1  -3  -8 5206.39 479.393   2
   1   3   9 497.219 85.7348   6
  -1  -3  -9 529.389 160.286   2
  -1  -3 -10 864.503 223.985   2
  -1  -3 -11 211.714 133.405   2
  -1  -3 -12 217.289 135.296   2
   1   4 -11 169.849 135.078   2
   1   4 -10-99.8669 98.9704   2
   1   4  -9 119.623 101.570   2
   1   4  -8 304.782 157.672   2
   1   4  -7-7.23719 25.5815   2
   1   4  -6 411.775 125.853   1
   1   4  -6 541.498 187.772   2
   1   4  -5 1691.23 311.487   2
   1   4  -5 1552.07 228.884   1
   1   4  -4 16277.4 903.889   2
  -1  -4   4 13929.6 450.235   4
   1   4  -3 668.424 180.096   2
  -1  -4   3 501.420 91.5177   4
  -1  -4   3 653.999 152.793   5
  -1  -4   2 3567.31 297.931   2
  -1  -4   2 3455.35 350.280   2
  -1  -4   1 5347.25 339.622   2
  -1  -4   1 6090.31 471.032   2
   1   4   0 3838.02 290.404   2
  -1  -4   0 3843.46 278.804   2
  -1  -4  -1 1364.76 164.700   2
   1   4   1 1612.14 185.540   2
  -1  -4  -1 1444.17 187.377   3
   1   4   2 1764.27 196.096   2
  -1  -4  -2 1569.91 188.993   3
  -1  -4  -2 1785.55 185.517   2
  -1  -4  -3 10223.7 470.891   3
  -1  -4  -3 11566.2 494.789   2
  -1  -4  -4 15814.0 626.795   2
  -1  -4  -5 541.220 125.519   2
  -1  -4  -6 5214.14 421.346   2
  -1  -4  -7 2035.80 179.955   3
  -1  -4  -7 2437.21 316.451   2
  -1  -4  -8 7922.84 613.364   2
  -1  -4  -9 102.718 78.4212   2
  -1  -4 -10 1221.08 270.793   2
  -1  -4 -11-129.154 94.8578   2
  -1  -4 -12-59.6229 70.6744   2
   1   5 -11 611.629 267.870   2
   1   5 -10 281.178 163.461   2
   1   5  -9 219.583 143.570   2
   1   5  -8-146.530 110.775   2
   1   5  -7 1079.03 226.735   1
   1   5  -7 1295.70 317.870   2
   1   5  -6-22.8505 39.5352   2
   1   5  -6 51.0015 45.4511   1
   1   5  -5 30.7799 43.7328   2
   1   5  -5 1.54281 25.2003   1
  -1  -5   4 1724.47 236.774   2
  -1  -5   4 1867.09 194.040   4
  -1  -5   4 2463.97 331.315   5
  -1  -5   3 5170.22 338.702   4
  -1  -5   3 5210.24 407.448   2
  -1  -5   3 6368.76 565.408   5
  -1  -5   2 386.767 104.572   2
  -1  -5   1 9990.71 503.718   2
  -1  -5   0 1084.54 162.474   2
  -1  -5  -1 8461.62 447.294   2
  -1  -5  -2 463.674 105.017   2
  -1  -5  -3 4959.01 350.568   2
  -1  -5  -4 6863.30 436.075   2
  -1  -5  -5 7157.72 481.679   2
  -1  -5  -5 6499.94 410.767   3
  -1  -5  -6 15.4810 28.4522   3
  -1  -5  -6 49.1184 35.8644   2
  -1  -5  -7 64.9077 56.5830   2
  -1  -5  -8 1490.02 278.491   2
  -1  -5  -9 2875.64 406.739   2
  -1  -5 -10 391.450 153.542   2
  -1  -5 -11 75.1678 71.9367   2
   1   6  -9 665.207 245.056   2
   1   6  -8 3130.61 424.872   1
   1   6  -8 3078.97 523.045   2
   1   6  -7-55.9131 67.6520   2
   1   6  -7 52.2061 47.7929   1
   1   6  -6 15.0066 32.7549   1
  -1  -6   6 2.66719 22.1480   2
  -1  -6   5 2871.78 407.937   5
  -1  -6   5 2006.20 296.160   2
   1   6  -5 2179.83 331.987   1
  -1  -6   4 868.475 184.032   2
  -1  -6   4 1060.54 247.099   5
  -1  -6   3 65.0299 60.1270   5
  -1  -6   3 150.448 66.1043   2
  -1  -6   2 686.860 147.013   2
  -1  -6   2 410.841 166.284   5
  -1  -6   1 230.422 77.8695   2
  -1  -6   0 3247.73 300.704   2
  -1  -6  -1 823.380 146.882   2
  -1  -6  -2 4786.89 355.325   2
  -1  -6  -3 16.5812 24.7229   2
  -1  -6  -4 8207.17 507.703   2
  -1  -6  -5 1.74589 34.5417   2
  -1  -6  -6 2567.22 322.383   2
  -1  -6  -7 422.379 141.626   2
  -1  -6  -8 283.820 124.657   2
  -1  -6  -9 1935.16 341.145   2
  -1  -6 -10 2014.00 367.855   2
  -1  -6 -11 435.596 186.364   2
   1   7  -8 193.734 105.762   1
   1   7  -7 87.7212 63.4510   1
  -1  -7   7-75.5303 64.0398   2
   1   7  -6 863.904 234.265   1
  -1  -7   6 935.154 211.064   2
  -1  -7   5 223.398 92.8874   2
   1   7  -5 271.728 128.509   1
  -1  -7   4 428.640 132.808   2
  -1  -7   4 551.448 197.530   5
  -1  -7   3 204.970 94.0136   2
  -1  -7   3 281.525 116.246   5
  -1  -7   2 30.2975 15.1418   2
  -1  -7   2 195.868 121.315   5
  -1  -7   1 609.844 146.094   2
  -1  -7   0 8221.68 510.283   2
  -1  -7  -1 242.133 83.3700   2
  -1  -7  -2 231.340 82.5978   2
  -1  -7  -3 4165.55 368.412   2
  -1  -7  -4 11.9864 15.6512   2
  -1  -7  -5 1552.00 249.966   2
  -1  -7  -6 81.8645 52.3406   2
  -1  -7  -7 3289.35 411.333   2
  -1  -7  -8 211.678 116.878   2
  -1  -7  -9 18.3289 30.3254   2
  -1  -7 -10 832.347 247.555   2
   1   8  -7 69.6788 47.9704   1
   1   8  -6 234.438 127.980   1
   1   8  -5 502.095 190.513   1
  -1  -8   4 7175.71 556.214   2
  -1  -8   3 717.297 262.644   5
  -1  -8   3 526.691 145.808   2
  -1  -8   2 490.802 136.791   2
  -1  -8   2 598.247 221.684   5
  -1  -8   1 112.518 104.757   5
  -1  -8   1-43.9835 40.0566   2
  -1  -8   0 112.780 61.5966   2
  -1  -8  -1 2196.35 274.548   2
  -1  -8  -2 404.366 116.734   2
  -1  -8  -3 107.758 62.6794   2
  -1  -8  -4 630.837 161.417   2
  -1  -8  -5 707.552 183.305   2
  -1  -8  -6 405.949 138.543   2
  -1  -8  -7 451.865 146.383   2
  -1  -8  -8 969.705 244.889   2
  -1  -8  -9 87.5442 77.9961   2
   1   9  -5 963.847 268.680   1
  -1  -9   3 292.760 174.399   5
  -1  -9   2 222.894 161.839   5
  -1  -9   1 87.9817 47.5127   2
  -1  -9   1-14.8718 41.9814   5
  -1  -9   0 174.216 80.0291   2
  -1  -9   0 288.099 185.026   5
  -1  -9  -1 2073.83 277.551   2
  -1  -9  -2 954.403 194.624   2
  -1  -9  -3 3112.19 360.547   2
  -1  -9  -4 1509.06 267.614   2
  -1  -9  -5 67.1639 57.4517   2
  -1  -9  -6 54.5094 53.8888   2
  -1  -9  -7 273.600 128.069   2
  -1  -9  -8 327.405 156.272   2
  -1 -10   2 920.172 349.761   5
  -1 -10   1 538.102 273.467   5
  -1 -10   0 2933.57 629.075   5
  -1 -10  -1 196.536 166.822   5
  -1 -10  -2-65.4185 98.4575   5
  -1 -10  -5 264.090 118.189   2
  -1 -10  -6-10.2812 25.4369   2
   2  -9  -2-214.720 181.881   5
   2  -9  -1 274.709 197.998   5
   2  -9   0 554.053 278.845   5
   2  -9   1 309.645 203.601   5
   2  -9   2 158.623 157.218   5
   2  -9   3 246.680 191.791   5
   2  -8  -7 463.853 281.695   5
   2  -8  -6-317.983 216.502   5
   2  -8  -5 107.647 170.258   5
   2  -8  -4-47.3290 159.240   5
   2  -8  -3-26.0562 60.5860   5
   2  -8  -2 2200.39 564.236   5
   2  -8  -1 231.830 175.454   5
   2  -8   0 105.963 162.332   5
  -2   8   0 56.5058 37.0707   3
   2  -8   1 898.860 329.774   5
  -2   8  -1 572.459 195.078   3
   2  -8   2 252.609 179.281   5
  -2   8  -2 109.439 104.931   3
   2  -8   3 9.86846 40.8254   5
  -2   8  -3 44.0140 56.7926   3
  -2   8  -4 1612.42 354.447   3
   2  -7 -10 30.6990 68.5539   5
   2  -7  -9 524.845 246.517   5
   2  -7  -9 740.968 238.773   2
   2  -7  -8 725.357 320.176   5
   2  -7  -8 837.157 226.913   2
   2  -7  -7 5432.32 824.632   5
   2  -7  -7 3564.22 450.339   2
   2  -7  -6 512.716 156.602   2
   2  -7  -6 613.526 264.037   5
   2  -7  -5-5.17465 40.2447   5
   2  -7  -5 119.183 69.5630   2
   2  -7  -4-96.5668 109.691   5
   2  -7  -4-9.47941 40.7636   2
   2  -7  -3 18767.6 1530.54   5
   2  -7  -3 14940.2 659.943   2
   2  -7  -2 577.441 261.016   5
  -2   7   2 515.242 162.980   3
   2  -7  -1 7887.15 969.869   5
  -2   7   1 5642.16 547.484   3
   2  -7   0 548.485 241.030   5
  -2   7   0 537.044 169.868   3
   2  -7   1 4651.39 704.253   5
  -2   7  -1 3527.70 462.578   3
   2  -7   2 1020.01 329.781   5
  -2   7  -2 901.126 240.950   3
   2  -7   3 44867.6 2295.66   5
  -2   7  -3 38008.5 1605.17   3
  -2   7  -4 87.7339 86.3876   3
  -2   7  -5 77.6162 75.6901   1
  -2   7  -5-11.0949 53.0083   3
  -2   7  -6-99.7087 86.8632   3
  -2   7  -6-5.20734 82.8849   1
  -2   7  -7 65.9645 67.9530   1
  -2   7  -7-290.105 151.231   3
   2  -6 -10 503.379 247.767   5
   2  -6 -10 209.602 135.544   2
   2  -6  -9 252.203 170.779   5
   2  -6  -9 278.258 102.591   2
   2  -6  -8 73.7247 91.8697   5
   2  -6  -8-23.2444 53.4004   2
   2  -6  -7 86.0100 61.5082   5
   2  -6  -7 156.894 93.4692   2
   2  -6  -6 631.414 172.125   2
   2  -6  -6 531.053 220.215   5
   2  -6  -5 220.267 148.196   5
   2  -6  -5-14.4142 23.7129   2
   2  -6  -4 4778.24 693.693   5
   2  -6  -4 4309.23 370.083   2
  -2   6   3 58.3905 47.0266   3
   2  -6  -3 36.9832 66.3806   5
   2  -6  -3 17.9025 22.0850   2
  -2   6   2 1544.85 256.182   3
   2  -6  -2 1914.66 209.278   2
   2  -6  -2 1918.29 449.953   5
   2  -6  -1 918.582 302.835   5
  -2   6   1 564.241 164.191   3
   2  -6  -1 508.932 95.3735   2
   2  -6   0 591.691 245.179   5
   2  -6   0 558.659 87.4416   2
  -2   6   0 477.173 148.533   3
   2  -6   1 492.338 197.207   5
   2  -6   1 386.723 61.3025   2
  -2   6  -1 389.204 143.389   3
   2  -6   2 52565.3 2200.96   5
  -2   6  -2 48617.3 1611.37   3
  -2   6  -3 1720.03 311.971   3
   2  -6   3 2098.53 456.956   5
  -2   6  -4 5744.22 590.841   3
  -2   6  -5 269.110 141.193   1
  -2   6  -5 270.803 129.099   3
  -2   6  -6 2695.38 430.847   3
  -2   6  -6 2436.90 412.015   1
  -2   6  -7 1557.67 334.952   3
  -2   6  -7 1719.06 344.661   1
  -2   6  -8 12537.4 982.081   1
  -2   6  -8 11224.8 943.233   3
  -2   6  -9 192.222 120.769   3
   2  -5 -10 1058.28 342.135   5
   2  -5 -10 1223.26 332.125   2
   2  -5  -9 3394.15 590.937   5
   2  -5  -9 3252.47 484.925   2
   2  -5  -8 506.820 247.336   5
   2  -5  -8 310.801 131.958   2
   2  -5  -7 1331.32 360.070   5
   2  -5  -7 1283.73 265.506   2
   2  -5  -6 776.269 275.755   5
   2  -5  -6 766.041 188.226   2
   2  -5  -5 18314.2 1294.74   5
   2  -5  -5 17072.6 798.552   2
   2  -5  -4-98.2874 91.2843   5
   2  -5  -4 3.73519 11.6873   2
   2  -5  -3 154.219 38.2618   5
  -2   5   3 175.306 77.1863   3
   2  -5  -3 187.416 65.1602   2
   2  -5  -2 102.940 94.7003   5
  -2   5   2 24.6066 28.2978   3
  -2   5   2 27.2762 22.2515   2
   2  -5  -2 1.31034 22.8541   2
  -2   5   1 1125.57 128.784   2
   2  -5  -1 1211.14 135.107   2
   2  -5  -1 1345.60 346.294   5
  -2   5   1 1081.25 196.659   3
   2  -5   0 306.938 153.572   5
  -2   5   0 151.154 43.8471   2
  -2   5   0 250.931 98.1070   3
   2  -5   0 212.659 47.1513   2
   2  -5   1 1151.28 290.439   5
   2  -5   1 947.878 112.138   2
  -2   5  -1 1453.55 242.318   3
   2  -5   1 1186.28 93.8221   2
   2  -5   2 23.4186 16.5715   5
   2  -5   2 24.4030 10.8263   2
  -2   5  -2 30.9836 28.0611   3
   2  -5   2 21.9867 12.4166   2
   2  -5   3 1450.99 113.721   2
  -2   5  -3 1403.30 252.487   3
   2  -5   3 1839.64 400.664   5
   2  -5   3 1180.61 114.262   2
  -2   5  -4 1828.15 300.747   3
   2  -5   4 1868.47 156.385   2
   2  -5   5 156.306 52.2489   2
  -2   5  -5 120.849 58.4567   1
  -2   5  -5 74.6042 49.3989   3
  -2   5  -6 13.7313 27.0829   1
   2  -5   6 62.2312 31.9648   2
  -2   5  -6 108.967 77.6060   3
  -2   5  -7 179.528 87.7936   3
  -2   5  -7 151.274 94.6040   1
  -2   5  -8 1032.81 264.407   1
  -2   5  -8 978.835 258.328   3
  -2   5  -9 303.473 145.956   3
  -2   5 -10 492.705 179.002   3
   2  -4 -11 1355.54 347.352   2
   2  -4 -10 356.207 175.068   2
   2  -4  -9 403.278 161.160   2
   2  -4  -9 459.473 201.426   5
   2  -4  -8 131.086 48.8311   5
   2  -4  -8 126.032 57.4946   2
   2  -4  -7 299.433 154.684   5
   2  -4  -7 213.448 112.855   2
   2  -4  -6 131422. 2424.53   2
   2  -4  -6 150807. 3521.49   5
   2  -4  -5 3483.90 520.861   5
  -2   4   5 3399.20 274.251   6
   2  -4  -5 2605.63 309.250   2
  -2   4   4 9533.81 466.404   3
   2  -4  -4 10064.6 866.544   5
  -2   4   4 8966.57 434.819   6
   2  -4  -4 9077.49 518.845   2
   2  -4  -3 69.5587 39.2221   5
  -2   4   3 16.4862 7.30240   2
  -2   4   3 45.6324 33.3544   6
  -2   4   3 13.9798 14.1800   3
   2  -4  -3 39.2911 36.2259   2
  -2   4   2 17839.0 503.233   2
   2  -4  -2 16441.0 535.774   2
  -2   4   1 34.5394 18.7978   2
   2  -4  -1 66.6054 30.3142   2
  -2   4   0 39534.7 1123.55   3
  -2   4   0 39137.0 1109.68   4
  -2   4   0 39271.2 594.222   2
   2  -4   0 39303.0 579.075   2
   2  -4   1 153.189 107.527   5
  -2   4  -1 254.353 87.8509   4
   2  -4   1 147.078 35.2565   2
   2  -4   1 210.273 31.9358   2
   2  -4   2 7362.62 177.603   2
  -2   4  -2 8143.80 486.223   4
   2  -4   3 24.0502 15.6149   2
  -2   4  -3-24.9735 26.8880   4
  -2   4  -3 0.23094 43.4582   3
   2  -4   3 8.26553 9.15737   2
   2  -4   4 6766.89 300.152   2
  -2   4  -4 7366.79 457.017   4
  -2   4  -4 7039.57 545.579   3
  -2   4  -4 7650.51 592.028   1
   2  -4   4 6608.26 285.448   2
  -2   4  -5 1110.81 227.135   1
  -2   4  -5 1116.87 221.799   3
  -2   4  -5 1154.74 189.555   2
   2  -4   5 1197.01 142.519   2
  -2   4  -5 1205.28 179.730   4
  -2   4  -6 713.229 138.394   4
  -2   4  -6 629.809 162.857   2
  -2   4  -6 575.980 164.728   3
  -2   4  -6 524.649 163.522   1
  -2   4  -7 30.4290 18.1655   4
  -2   4  -7 36.6016 45.3790   2
  -2   4  -7 0.90790 9.30333   3
  -2   4  -7 40.6523 56.0192   1
  -2   4  -8 583.800 178.922   2
  -2   4  -8 446.360 162.260   3
  -2   4  -8 715.012 208.652   1
  -2   4  -9 294.573 127.185   3
  -2   4 -10 303.083 139.530   3
  -2   4 -11-8.43314 38.2071   3
   2  -3 -11 757.099 266.509   2
   2  -3 -10 426.229 193.261   2
   2  -3  -9 213.744 118.608   5
   2  -3  -9-36.3863 52.6846   2
   2  -3  -8 359.645 165.384   5
   2  -3  -8 536.196 185.450   2
   2  -3  -7 252.691 125.058   5
   2  -3  -7 85.7480 68.8600   2
   2  -3  -6 3396.29 473.512   5
   2  -3  -6 3121.92 379.516   2
   2  -3  -5 379.859 155.934   5
  -2   3   5 304.787 56.6671   3
   2  -3  -5 354.059 116.022   2
  -2   3   5 246.698 57.0751   6
   2  -3  -4 13.3820 39.7501   5
  -2   3   4 4.25859 10.9053   3
   2  -3  -4-47.1649 37.4029   2
  -2   3   4 5.21352 10.2500   6
  -2   3   3 192.267 65.1765   6
  -2   3   3 219.963 61.2266   2
  -2   3   3 211.085 61.3724   3
   2  -3  -3 301.019 84.0503   2
  -2   3   2 407.949 84.9388   3
  -2   3   2 483.005 79.6696   2
   2  -3  -2 391.315 81.2492   2
  -2   3   2 428.388 93.4252   6
  -2   3   1 72653.9 1342.69   6
  -2   3   1 71664.2 795.104   2
   2  -3  -1 69440.7 904.316   2
  -2   3   0 4389.28 159.686   2
  -2   3   0 4597.68 337.082   3
   2  -3   0 3912.03 160.074   2
  -2   3   0 5015.90 377.291   6
  -2   3  -1 494.469 109.015   4
   2  -3   2 236.893 114.445   5
  -2   3  -2 123.329 53.9347   4
   2  -3   3 5.10862 8.61796   2
  -2   3  -3-13.4289 17.9892   4
   2  -3   4 125.937 39.1097   2
  -2   3  -4 129.096 55.5605   4
  -2   3  -4 133.233 53.9378   2
  -2   3  -4 176.417 78.3532   3
  -2   3  -5 40796.7 1285.95   1
  -2   3  -5 41799.3 965.084   4
   2  -3   5 41094.6 831.627   2
  -2   3  -5 44287.4 1114.03   2
  -2   3  -6 330.770 108.375   2
   2  -3   6 194.511 62.2898   2
  -2   3  -6 175.414 91.7868   1
  -2   3  -6 206.461 66.9976   4
  -2   3  -6 125.905 61.1059   3
  -2   3  -7 5060.57 323.730   4
  -2   3  -7 4568.88 466.615   1
  -2   3  -7 4936.33 464.381   3
  -2   3  -7 4739.53 444.232   2
  -2   3  -8 1916.67 300.913   3
  -2   3  -8 1780.82 297.563   2
  -2   3  -8 1788.01 184.957   4
  -2   3  -9 13052.5 805.134   3
  -2   3  -9 13499.7 878.341   2
  -2   3 -10 4135.35 469.178   3
  -2   3 -10 4168.43 524.232   2
  -2   3 -11 5468.03 583.230   3
  -2   3 -11 4723.19 596.893   2
   2  -2 -11 139.713 114.707   2
   2  -2 -10 1562.64 367.944   2
   2  -2  -9 1993.25 386.399   2
   2  -2  -8 7440.02 694.096   2
   2  -2  -7 19.3245 24.0778   2
   2  -2  -6 107.682 75.8462   2
  -2   2   5 7781.12 200.104   3
   2  -2  -5 7943.19 567.550   2
   2  -2  -4 161.317 94.2864   5
  -2   2   4 234.176 44.1702   3
   2  -2  -4 302.260 96.9667   2
   2  -2  -3 1253.02 247.352   5
  -2   2   3 754.414 128.757   4
  -2   2   3 1060.78 126.454   6
   2  -2  -3 998.725 160.849   2
  -2   2   3 1010.95 140.311   2
   2  -2  -2 62824.8 1121.32   2
  -2   2   2 61504.7 957.511   2
   2  -2  -2 62408.6 1018.39   6
  -2   2   1 2214.92 215.536   6
   2  -2  -1 2023.84 164.699   2
  -2   2   1 2073.36 138.821   2
   2  -2  -1 2207.23 213.321   6
  -2   2   0 4571.54 433.259   5
  -2   2   0 3921.84 128.120   2
   2  -2   0 3617.65 163.662   2
  -2   2   0 3973.55 298.163   6
   2  -2   0 4160.13 318.846   6
  -2   2  -1 8305.24 450.215   6
  -2   2  -1 10980.4 716.856   5
  -2   2  -2 8770.95 608.598   5
  -2   2  -2 8274.06 473.851   6
   2  -2   3 14.9843 9.37476   2
  -2   2  -3 7.39978 5.78539   2
  -2   2  -3-7.15831 36.8216   5
  -2   2  -4 20934.5 612.521   2
   2  -2   4 20110.1 479.411   2
   2  -2   5 2348.42 280.316   6
  -2   2  -5 2313.82 234.048   2
   2  -2   5 2370.10 194.861   2
   2  -2   6 83.7499 56.2433   6
   2  -2   6 112.652 48.7690   2
  -2   2  -6 93.9139 61.8237   3
  -2   2  -6 83.9271 59.0707   1
  -2   2  -6 115.751 70.2182   2
  -2   2  -7 551.277 137.983   3
  -2   2  -7 750.236 170.708   2
  -2   2  -8 2605.27 354.705   2
  -2   2  -8 2007.28 281.929   3
  -2   2  -9 1681.16 269.863   3
  -2   2  -9 1521.98 290.256   2
  -2   2 -10 42713.6 1371.77   3
  -2   2 -10 42487.6 1657.52   2
  -2   2 -11 308.209 150.466   2
  -2   2 -12 152.900 117.710   2
  -2   2 -13 747.601 259.067   2
   2  -1 -11 686.619 263.693   2
   2  -1 -10 595.773 224.739   2
   2  -1  -9 12563.3 981.103   2
   2  -1  -8 322.685 117.266   5
   2  -1  -8 282.723 145.800   2
   2  -1  -7 7199.80 544.217   5
   2  -1  -7 5399.13 554.500   2
   2  -1  -6 103.184 60.1628   5
   2  -1  -6-12.0220 39.5466   2
   2  -1  -5 1899.52 273.616   5
   2  -1  -5 1568.74 249.119   2
   2  -1  -4 7565.50 519.174   5
  -2   1   4 6204.97 327.429   4
   2  -1  -4 6975.59 478.954   2
   2  -1  -3 138530. 2154.26   5
  -2   1   3 124309. 1458.84   4
   2  -1  -3 135929. 1049.83   6
   2  -1  -3 131016. 1914.73   2
  -2   1   3 121679. 1574.40   2
   2  -1  -2 83.3001 34.1038   6
   2  -1  -2 109.286 56.5334   5
  -2   1   2 53.6931 27.7133   4
   2  -1  -2 92.6478 46.4200   2
  -2   1   2 116.836 40.9585   2
   2  -1  -1 13216.8 448.926   2
  -2   1   1 12933.3 404.167   2
   2  -1  -1 14084.4 461.863   6
   2  -1   0 5232.75 306.765   6
   2  -1   0 6519.75 275.530   2
  -2   1   0 5230.98 207.978   2
  -2   1   0 5717.59 316.352   6
  -2   1   0 6351.61 445.377   5
  -2   1  -1 54767.5 613.045   2
  -2   1  -1 56584.4 1063.47   6
   2  -1   2 14358.4 266.257   2
  -2   1  -2 14506.0 272.981   2
  -2   1  -3 472.379 110.675   6
   2  -1   3 402.934 56.8575   2
  -2   1  -3 403.789 62.0503   2
  -2   1  -4-24.0608 25.8165   6
   2  -1   4 0.52706 12.7380   2
   2  -1   4 0.53468 9.22367   6
  -2   1  -4 4.04259 12.5454   2
   2  -1   5 2372.42 198.934   2
  -2   1  -5 2242.97 216.850   2
  -2   1  -5 2144.07 258.401   6
  -2   1  -6 1131.88 179.290   2
   2  -1   6 1276.86 162.974   2
  -2   1  -7 1295.66 214.122   2
   2  -1   7 1149.08 199.219   6
  -2   1  -8 45.7219 38.0219   3
  -2   1  -8 103.401 75.0667   2
   2  -1   8 60.6802 46.7022   6
  -2   1  -9 313.065 96.0512   3
  -2   1  -9 179.438 94.7411   2
  -2   1 -10-7.37142 16.5105   3
  -2   1 -10 27.7223 41.7296   2
  -2   1 -11 67.4730 23.2585   2
  -2   1 -12 129.294 102.293   2
  -2   1 -13-90.7554 92.8625   2
   2   0 -11 9.86937 34.9321   2
   2   0 -10 1086.81 324.373   2
   2   0  -9 1032.35 288.953   2
   2   0  -8 8589.19 389.511   5
   2   0  -8 7608.65 717.355   2
   2   0  -7 126.199 47.3395   5
   2   0  -7 37.7242 70.9749   2
  -2   0   6 10.8033 6.78944   3
   2   0  -6-17.3247 18.0842   5
   2   0  -5 2633.62 223.389   5
  -2   0   5 2124.28 140.897   3
   2   0  -5 2026.24 299.541   2
  -2   0   4 75843.9 957.911   4
   2   0  -4 81811.1 1721.02   2
   2   0  -3 6272.15 438.335   2
  -2   0   2 25577.1 751.235   5
   2   0  -2 24599.0 768.263   2
  -2   0   2 23643.1 713.438   2
  -2   0   1 2190.43 228.566   5
   2   0  -1 1837.94 188.701   2
  -2   0   1 1835.23 180.188   2
   2   0   0 175970. 1666.28   2
  -2   0   0 173548. 1609.71   2
  -2   0  -1 27379.3 461.946   2
  -2   0  -1 26774.7 534.761   1
   2   0   1 27086.7 478.791   2
   2   0   1 27305.2 550.550   1
  -2   0  -2 982485. 2752.79   2
   2   0   2 971179. 2897.37   2
   2   0   3 302.559 55.5365   2
   2   0   3 302.235 76.1538   1
  -2   0  -3 277.589 56.6694   2
   2   0   4 2788.86 194.472   2
  -2   0  -4 2606.37 202.682   2
   2   0   4 2652.94 245.026   1
   2   0   4 2597.35 246.770   6
  -2   0  -5 2730.89 238.763   2
   2   0   5 2248.79 240.325   6
   2   0   5 2636.13 214.115   2
  -2   0  -6 13196.5 575.527   2
   2   0   6 11379.8 522.472   6
  -2   0  -7 4449.54 378.777   2
  -2   0  -8 7937.51 572.514   2
   2   0   9 93.8444 51.2144   6
  -2   0  -9 37.3189 21.3477   2
  -2   0 -10-19.6554 22.8388   3
  -2   0 -10 28.7431 47.1353   2
  -2   0 -11 201.084 126.605   2
  -2   0 -12 1327.03 330.353   2
  -2   0 -13 768.851 266.027   2
   2   1 -11 1086.75 331.818   2
   2   1 -10 131.853 117.092   2
   2   1  -9 97.1495 86.0997   2
   2   1  -8 2507.02 415.454   2
   2   1  -7-10.4496 18.2223   6
   2   1  -7 59.5539 67.2069   2
  -2  -1   6 737.223 110.954   3
  -2  -1   6 791.005 128.514   1
   2   1  -6 879.042 212.180   2
  -2  -1   5 1695.77 167.700   1
  -2  -1   5 1661.16 105.571   4
  -2  -1   5 1501.55 158.246   3
   2   1  -5 1557.16 267.705   2
   2   1  -4 4018.81 399.276   2
  -2  -1   4 3749.25 211.888   1
   2   1  -3 41055.9 1236.42   2
  -2  -1   3 37330.4 547.328   1
   2   1  -2 174.676 77.0993   2
   2   1  -1 2812.83 272.355   2
  -2  -1   0 6540.95 299.144   2
  -2  -1  -1 122164. 1213.21   2
  -2  -1  -2 83.4870 34.1354   2
  -2  -1  -3 5.38165 12.4020   2
  -2  -1  -4 142.910 49.5691   2
   2   1   5 13272.8 504.617   2
  -2  -1  -5 13701.4 550.720   2
   2   1   6 2366.21 268.578   6
  -2  -1  -6 2421.76 262.344   2
   2   1   7 62592.5 1297.30   6
  -2  -1  -7 64177.9 1455.92   2
   2   1   8 126.413 56.7007   6
  -2  -1  -8 42.8189 30.6934   2
  -2  -1  -9 6241.32 543.009   2
  -2  -1 -10-67.8808 62.7187   2
  -2  -1 -11 3583.85 497.790   2
  -2  -1 -12 791.914 240.272   2
  -2  -1 -13 1188.65 339.739   2
   2   2 -11 3387.53 631.166   2
   2   2 -10 3958.55 633.046   2
   2   2  -9 11.2209 83.7117   2
   2   2  -8 16517.7 1147.02   2
   2   2  -7 1443.21 191.947   6
  -2  -2   7 1770.42 205.395   3
   2   2  -7 1844.51 353.807   2
  -2  -2   6 91446.7 1461.23   3
   2   2  -6 96759.8 2468.82   2
  -2  -2   5 772.136 130.581   3
   2   2  -5 746.875 198.200   2
  -2  -2   4 2445.23 225.430   3
   2   2  -4 2893.84 360.756   2
   2   2  -3 2600.56 326.140   2
   2   2  -3 2445.08 164.599   1
   2   2  -2 3532.76 359.274   2
   2   2  -1-1.50858 35.5991   2
  -2  -2   0 45960.0 907.919   2
  -2  -2  -1 4070.72 257.023   2
  -2  -2  -2 8133.66 357.709   2
  -2  -2  -3 2267.52 193.931   2
  -2  -2  -4 7512.83 382.434   2
  -2  -2  -5 215.616 67.9745   2
  -2  -2  -6 15273.6 667.728   2
  -2  -2  -7 33.5440 40.7560   2
   2   2   7 30.2568 20.7724   6
   2   2   8 129.141 57.7455   6
  -2  -2  -8 238.122 99.3118   2
   2   2   9 2051.90 235.713   6
  -2  -2  -9 1905.12 295.763   2
  -2  -2 -10 1157.39 244.795   2
   2   2  10 1497.42 231.781   6
  -2  -2 -11 356.166 151.296   2
  -2  -2 -12 1783.74 380.451   2
  -2  -2 -13 1118.34 320.695   2
   2   3 -11 579.707 250.218   2
   2   3 -10 110.753 103.682   2
   2   3  -9 135.312 109.041   2
   2   3  -8 1706.41 367.003   2
   2   3  -7 64986.3 2132.40   2
   2   3  -6 3301.59 464.732   2
  -2  -3   5 1299.68 84.4747   4
   2   3  -5 1613.10 306.122   2
   2   3  -4 1686.94 180.329   1
   2   3  -4 1811.67 321.543   2
  -2  -3   4 1584.74 121.386   5
   2   3  -3 38636.9 845.361   1
   2   3  -3 41991.3 1418.23   2
   2   3  -2 3258.92 373.644   2
  -2  -3   1 105887. 1597.22   2
  -2  -3   0 147.709 56.1589   2
  -2  -3  -1 49142.0 996.292   2
  -2  -3  -2 1782.27 187.888   2
  -2  -3  -3 65561.0 1152.06   2
  -2  -3  -4 16673.0 610.574   2
  -2  -3  -5 7487.43 452.425   2
  -2  -3  -6 19.2852 38.8188   2
  -2  -3  -7 497.730 136.271   2
  -2  -3  -8 148.505 75.2631   2
   2   3   9 1723.96 223.004   6
  -2  -3  -9 1243.62 246.462   2
  -2  -3 -10 2007.92 333.040   2
  -2  -3 -11 767.832 216.254   2
  -2  -3 -12-28.8006 46.3031   2
   2   4 -10 1123.37 374.962   2
   2   4  -9 105.384 104.325   2
   2   4  -8 4415.14 666.105   2
   2   4  -7 185.732 138.513   2
   2   4  -6 425.893 111.032   1
   2   4  -6 659.508 225.319   2
  -2  -4   5 1076.10 106.736   4
   2   4  -5 1021.62 257.265   2
  -2  -4   4 9440.71 488.478   5
   2   4  -4 7452.97 656.328   2
   2   4  -3 3043.91 408.425   2
  -2  -4   2 8476.03 507.557   2
  -2  -4   1 126.851 57.1157   2
  -2  -4   0 54.7762 31.9776   2
  -2  -4  -1 451.363 104.430   2
  -2  -4  -2 2795.31 260.726   2
  -2  -4  -3 549.194 112.708   2
  -2  -4  -4 51778.7 1159.14   2
  -2  -4  -5 425.587 109.498   2
  -2  -4  -6 5902.03 448.193   2
  -2  -4  -7 3612.79 376.066   2
  -2  -4  -8 60752.2 1675.19   2
  -2  -4  -9 15060.4 892.938   2
  -2  -4 -10 26130.7 1264.82   2
  -2  -4 -11 35.6830 48.3013   2
  -2  -4 -12 336.242 149.084   2
   2   5 -10 442.591 224.636   2
   2   5  -9 1850.33 439.550   2
   2   5  -8 733.364 272.064   2
   2   5  -7 825.451 260.757   2
   2   5  -6-6.11061 56.5482   1
   2   5  -6 7.00891 63.2345   2
   2   5  -5 656.760 157.273   1
   2   5  -5 672.123 220.976   2
  -2  -5   5 755.721 153.356   5
  -2  -5   4 2333.27 300.349   2
  -2  -5   4 2487.87 216.861   4
   2   5  -4 2476.47 299.606   1
  -2  -5   3 4818.77 424.743   2
  -2  -5   2 163.328 79.8646   2
  -2  -5   1 1010.64 178.558   2
  -2  -5   0 5453.41 403.216   2
  -2  -5  -1 3952.68 335.179   2
  -2  -5  -2 61.5752 43.4466   2
  -2  -5  -3 1861.87 228.388   2
  -2  -5  -4 692.319 141.325   2
  -2  -5  -5 3707.70 346.078   2
  -2  -5  -6-0.67550 47.8847   2
  -2  -5  -7 737.583 175.623   2
  -2  -5  -8 579.704 166.441   2
  -2  -5  -9 16450.9 973.902   2
  -2  -5 -10 1010.76 258.312   2
  -2  -5 -11 760.431 234.276   2
   2   6  -9-98.5867 104.188   2
   2   6  -8 46.2388 68.4296   2
   2   6  -7 141.246 114.614   2
   2   6  -7 63.3807 37.1705   1
  -2  -6   6 2043.15 323.194   2
   2   6  -6 2407.86 329.422   1
  -2  -6   5 808.626 194.360   2
   2   6  -5 1045.35 211.715   1
  -2  -6   4 46103.1 1569.62   5
  -2  -6   4 29772.8 1160.88   2
  -2  -6   3 1241.61 227.584   2
  -2  -6   2 1249.45 215.783   2
  -2  -6   1 1831.54 255.515   2
  -2  -6   0 44588.8 1231.93   2
  -2  -6  -1 15985.1 717.596   2
  -2  -6  -2 22623.4 841.010   2
  -2  -6  -3 185.122 78.2975   2
  -2  -6  -4 334.898 95.6109   2
  -2  -6  -5 1747.65 251.487   2
  -2  -6  -6 94.0647 71.6289   2
  -2  -6  -7 965.174 208.749   2
  -2  -6  -8 1162.73 246.747   2
  -2  -6  -9 264.488 124.257   2
  -2  -6 -10 631.516 209.064   2
  -2  -6 -11 99.7116 89.1217   2
  -2  -7   8 68.7335 67.5633   2
  -2  -7   7 18.5328 72.5379   2
   2   7  -7-36.0959 46.3185   1
  -2  -7   6 135.421 87.4459   2
   2   7  -6 234.125 117.536   1
  -2  -7   5 273.281 117.946   2
   2   7  -5 131.398 71.2515   1
  -2  -7   4 520.428 188.544   5
  -2  -7   4 398.379 130.692   2
  -2  -7   3-143.337 97.5223   5
  -2  -7   3 54.7921 48.5390   2
  -2  -7   2 242.117 99.2847   2
  -2  -7   1 11000.5 656.268   2
  -2  -7   0 1689.06 251.416   2
  -2  -7  -1 71960.9 1627.78   2
  -2  -7  -2 810.256 168.880   2
  -2  -7  -3 1809.23 254.657   2
  -2  -7  -4 1459.12 233.740   2
  -2  -7  -5 9965.75 638.057   2
  -2  -7  -6 3416.99 398.879   2
  -2  -7  -7 4270.01 463.638   2
  -2  -7  -8 62.2359 66.7868   2
  -2  -7  -9 327.794 146.132   2
  -2  -7 -10 2648.07 445.598   2
  -2  -8   7 114.091 84.8645   2
  -2  -8   6 1829.11 332.800   2
   2   8  -6 1855.19 341.987   1
  -2  -8   5 191.416 93.6225   2
   2   8  -5 375.683 154.401   1
  -2  -8   4 299.646 121.637   2
  -2  -8   3 12.9680 36.5526   5
  -2  -8   3 41.2536 43.8241   2
  -2  -8   2 2593.01 484.304   5
  -2  -8   2 1447.39 260.950   2
  -2  -8   1 537.135 152.859   2
  -2  -8   0 675.299 170.905   2
  -2  -8  -1 820.982 177.308   2
  -2  -8  -2 209.951 85.2756   2
  -2  -8  -3 927.917 192.431   2
  -2  -8  -4 54.5224 48.1095   2
  -2  -8  -5 49.0576 19.3604   2
  -2  -8  -6 2592.65 365.345   2
  -2  -8  -7 106.589 77.4181   2
  -2  -8  -8 1639.37 318.041   2
  -2  -8  -9 168.827 107.678   2
   2   9  -5 84.7499 101.202   1
  -2  -9   3 1658.23 294.432   2
  -2  -9   2 363.216 193.315   5
  -2  -9   2 154.249 88.3552   2
  -2  -9   1 1863.10 457.903   5
  -2  -9   1 1779.31 288.246   2
  -2  -9   0 175.914 87.5166   2
  -2  -9  -1 74.0389 56.1456   2
  -2  -9  -2 1083.92 216.950   2
  -2  -9  -3-133.332 77.1462   2
  -2  -9  -4 55.8646 58.3840   2
  -2  -9  -5 571.720 177.647   2
  -2  -9  -6 608.131 182.875   2
  -2  -9  -7 67.0270 81.6343   2
  -2  -9  -8 97.0939 79.8523   2
  -2 -10   1 666.901 285.463   5
  -2 -10   0 323.578 208.357   5
  -2 -10  -1 527.328 154.482   2
  -2 -10  -2 5990.92 538.682   2
  -2 -10  -3 651.556 170.907   2
  -2 -10  -4 5104.51 518.910   2
  -2 -10  -5 121.143 64.3899   2
  -2 -10  -6 180.365 104.106   2
   3  -8  -4 736.445 320.097   5
   3  -8  -3 134.063 137.759   5
  -3   8   2 341.628 152.078   3
   3  -8  -2 384.944 231.196   5
   3  -8  -1 238.502 186.705   5
  -3   8   1 29.3306 43.6292   3
   3  -8   0-140.959 141.608   5
  -3   8   0-22.5248 39.7905   3
   3  -8   1 524.623 280.735   5
  -3   8  -1 349.115 162.221   3
  -3   8  -2 493.311 192.921   3
   3  -8   2 411.267 245.467   5
  -3   8  -3 57.3765 91.3587   3
   3  -7  -8 439.291 260.734   5
   3  -7  -7 208.225 177.682   5
   3  -7  -6 1126.56 403.473   5
   3  -7  -5 1082.33 394.869   5
   3  -7  -4-117.066 125.090   5
   3  -7  -3 409.818 223.145   5
  -3   7   3 209.275 104.277   3
  -3   7   2 93.4049 73.3371   3
   3  -7  -2 14.1980 104.662   5
  -3   7   1 1390.53 289.847   3
   3  -7  -1 1746.72 456.611   5
   3  -7   0 297.309 186.521   5
  -3   7   0 171.409 102.621   3
   3  -7   1 2077.70 532.025   5
  -3   7  -1 1518.49 316.415   3
   3  -7   2 508.688 245.743   5
  -3   7  -2 277.606 126.335   3
  -3   7  -3 4567.45 570.021   3
  -3   7  -4 1935.04 378.187   3
  -3   7  -4 2022.36 404.509   1
  -3   7  -5-52.3346 64.9500   3
  -3   7  -5-0.49627 15.4848   1
  -3   7  -6 82.2543 82.3734   1
  -3   7  -6 71.9064 78.0297   3
   3  -6  -9 250.638 187.573   5
   3  -6  -9 193.095 125.814   2
   3  -6  -8 724.108 234.803   2
   3  -6  -8 732.449 297.954   5
   3  -6  -7 109.723 92.7526   5
   3  -6  -7 89.7810 76.0887   2
   3  -6  -6 6413.90 908.993   5
   3  -6  -6 5604.84 554.646   2
   3  -6  -5 1331.35 401.535   5
   3  -6  -5 1140.08 226.383   2
   3  -6  -4 370.188 193.773   5
  -3   6   4 401.288 126.681   3
   3  -6  -4 395.203 123.386   2
   3  -6  -3 31.7299 69.8085   5
  -3   6   3-11.1322 22.6386   3
   3  -6  -3 12.6913 19.9615   2
   3  -6  -2 93.3133 130.262   5
  -3   6   2 96.5378 66.2556   3
   3  -6  -1-21.3873 119.780   5
  -3   6   1-77.9852 61.0100   3
  -3   6   0 1125.00 236.371   3
   3  -6   0 1040.38 331.612   5
   3  -6   1 207.867 140.021   5
  -3   6  -1 133.854 82.8130   3
   3  -6   2 4348.99 711.131   5
  -3   6  -2 3264.21 427.294   3
  -3   6  -3 55.7122 67.8239   3
  -3   6  -4 940.852 249.364   1
  -3   6  -4 1047.66 248.541   3
  -3   6  -5 73.9732 96.1682   3
  -3   6  -5 6.54026 61.3689   1
  -3   6  -6-20.2432 39.3062   1
  -3   6  -6-86.3098 78.0245   3
  -3   6  -7 172.131 102.031   3
  -3   6  -7 243.306 147.830   1
  -3   6  -8 866.966 269.002   3
  -3   6  -8 728.978 240.441   1
   3  -5 -10 73.5817 83.3102   2
   3  -5  -9 322.646 151.373   5
   3  -5  -9-18.4941 40.3088   2
   3  -5  -8 1454.45 425.674   5
   3  -5  -8 705.921 230.202   2
   3  -5  -7 553.073 261.775   5
   3  -5  -7 299.475 130.033   2
   3  -5  -6 33.4784 89.2595   5
   3  -5  -6 40.2489 47.4260   2
   3  -5  -5 11097.3 722.756   2
   3  -5  -5 13124.9 1191.88   5
   3  -5  -4 928.676 311.807   5
  -3   5   4 866.285 169.616   3
   3  -5  -4 857.320 187.243   2
   3  -5  -3 76.4892 87.2606   5
  -3   5   3 162.273 75.0316   3
   3  -5  -3 195.539 77.5644   2
   3  -5  -2 126.452 115.202   5
  -3   5   2 40.8855 49.4335   3
  -3   5   2 5.37519 18.2119   2
   3  -5  -2 33.2717 20.0782   2
  -3   5   1 15783.7 795.029   3
   3  -5  -1 17636.1 1268.52   5
  -3   5   1 15341.0 420.592   2
  -3   5   1 14981.6 800.299   4
   3  -5  -1 15695.3 499.848   2
   3  -5   0 774.161 260.323   5
  -3   5   0 500.967 146.071   4
  -3   5   0 657.783 166.605   3
  -3   5  -1 3569.07 387.299   4
  -3   5  -1 3606.25 407.213   3
  -3   5  -2 184.027 82.5566   4
  -3   5  -2 80.6022 61.3113   3
   3  -5   2 247.723 155.732   5
  -3   5  -3 1225.75 251.649   3
  -3   5  -3 1204.30 219.505   4
  -3   5  -4 229.255 96.7556   4
  -3   5  -4 297.265 135.662   1
  -3   5  -4 283.819 120.600   3
  -3   5  -5 540.484 146.111   4
  -3   5  -5 573.793 188.437   3
  -3   5  -5 444.352 164.432   1
  -3   5  -6-11.4230 21.4782   4
  -3   5  -6 71.8328 77.2946   1
  -3   5  -6 119.566 84.3732   3
  -3   5  -7 5592.16 623.778   1
  -3   5  -7 5330.65 577.693   3
  -3   5  -7 5467.74 446.147   4
  -3   5  -8 235.190 124.801   3
  -3   5  -8 90.9457 100.381   1
  -3   5  -9 973.144 268.487   3
  -3   5 -10 128.140 99.9861   3
   3  -4 -10-156.112 120.726   2
   3  -4  -9 1123.25 325.874   5
   3  -4  -9 672.708 236.029   2
   3  -4  -8 329.829 158.714   5
   3  -4  -8 296.655 143.343   2
   3  -4  -7 530.455 227.627   5
   3  -4  -7 361.270 149.674   2
   3  -4  -6 181.640 142.055   5
   3  -4  -6 186.944 105.646   2
   3  -4  -5 152.897 114.736   5
  -3   4   5 11.8530 13.6416   3
   3  -4  -5 61.5209 79.2160   2
   3  -4  -4 2092.18 428.931   5
   3  -4  -4 1482.32 239.456   2
   3  -4  -3 280.750 147.840   5
  -3   4   3 258.979 68.8627   2
  -3   4   3 240.730 94.3588   4
   3  -4  -3 224.798 83.6078   2
   3  -4  -2 8258.34 805.666   5
  -3   4   2 7632.16 540.351   4
  -3   4   2 6177.46 395.779   3
  -3   4   2 7168.06 318.602   2
   3  -4  -2 7759.66 429.400   2
   3  -4  -1 296.280 159.882   5
  -3   4   1 187.160 73.0940   3
  -3   4   1 141.622 36.1589   2
   3  -4  -1 184.404 54.5015   2
  -3   4   1 149.286 71.4036   4
  -3   4   0 11311.1 645.916   4
  -3   4   0 11322.2 620.580   3
   3  -4   1 2683.62 487.059   5
  -3   4  -1 2231.97 282.626   4
  -3   4  -1 1741.05 255.977   3
  -3   4  -2 2586.88 299.884   4
  -3   4  -2 2740.26 331.923   3
  -3   4  -3 676.132 151.801   4
  -3   4  -3 458.864 139.471   3
  -3   4  -4 503.536 132.263   4
  -3   4  -4 598.259 163.545   3
  -3   4  -4 499.673 158.192   1
  -3   4  -5 1096.77 192.752   4
   3  -4   5 949.634 95.8902   2
  -3   4  -5 769.301 181.515   3
  -3   4  -5 1042.11 231.764   1
  -3   4  -6 123.216 84.1868   3
  -3   4  -6 132.983 99.7417   1
  -3   4  -6 169.711 82.7358   4
  -3   4  -7-2.78345 36.2357   4
  -3   4  -7-85.0283 68.4386   3
  -3   4  -7-8.90253 27.0729   1
  -3   4  -8 20.7298 15.2825   1
  -3   4  -8 84.5753 69.9838   3
  -3   4  -9 102.801 73.2500   3
  -3   4 -10 84.9071 74.4371   3
  -3   4 -11 204.274 121.342   3
   3  -3 -10 384.297 189.354   2
   3  -3  -9 8534.67 844.611   2
   3  -3  -8 90.8865 83.0052   5
   3  -3  -8-92.6702 81.1420   2
   3  -3  -7 9470.96 853.409   5
   3  -3  -7 6969.15 661.600   2
  -3   3   6 3789.58 196.092   3
   3  -3  -6 4300.62 482.605   2
   3  -3  -5 173.586 120.729   5
  -3   3   5 152.651 46.7170   3
   3  -3  -5 201.837 96.2200   2
   3  -3  -4 3480.60 482.066   5
  -3   3   4 3031.79 319.553   4
  -3   3   4 3350.34 249.429   3
   3  -3  -4 3396.59 359.889   2
  -3   3   3 96.7102 46.3555   2
  -3   3   3 64.3124 31.4633   4
   3  -3  -3 164.798 136.398   5
   3  -3  -3 123.828 60.6271   2
  -3   3   3 66.7994 41.6231   6
  -3   3   2 459.451 122.560   6
   3  -3  -2 115.689 83.9435   5
   3  -3  -2 346.714 90.6938   2
  -3   3   2 442.884 80.9651   2
   3  -3  -1 11819.7 454.064   2
   3  -3  -1 10835.0 576.307   6
  -3   3   1 11056.0 337.487   2
   3  -3   0 22.3613 30.0240   6
   3  -3   0 12.1446 10.7872   2
  -3   3   0 3.46459 3.35826   2
   3  -3   1 288.230 101.369   6
  -3   3  -1 359.348 104.058   4
  -3   3  -2 1573.84 213.240   4
   3  -3   2 1597.51 246.657   6
  -3   3  -3 22044.6 800.871   4
  -3   3  -3 22506.4 946.912   1
   3  -3   3 20980.4 916.543   6
   3  -3   4 1153.58 74.4568   2
   3  -3   4 1060.85 215.430   6
  -3   3  -4 1357.63 196.258   4
  -3   3  -4 698.231 88.5879   2
  -3   3  -4 1358.33 238.806   1
   3  -3   5 495.903 69.4485   2
   3  -3   5 444.192 140.987   6
  -3   3  -5 494.905 119.053   4
  -3   3  -5 549.755 154.857   1
  -3   3  -5 564.860 102.957   2
   3  -3   6 228.062 56.9087   2
  -3   3  -6 322.645 129.824   1
  -3   3  -6 266.826 103.682   3
  -3   3  -6 171.959 73.5027   2
  -3   3  -6 347.586 97.3849   4
  -3   3  -7 4240.12 343.199   4
  -3   3  -7 3707.81 412.383   3
  -3   3  -7 3854.08 453.118   1
  -3   3  -7 3869.42 362.777   2
  -3   3  -8 16.9324 29.6630   4
  -3   3  -8 13.9902 23.5829   2
  -3   3  -8-7.57953 38.2681   3
  -3   3  -9-1.68363 10.4467   3
  -3   3 -10 1788.31 327.566   3
  -3   3 -11 1955.24 344.349   3
   3  -2 -11 42.4422 68.0713   2
   3  -2 -10-40.8994 63.6584   2
   3  -2  -9 12.2763 82.3670   2
   3  -2  -8 1238.50 312.984   2
   3  -2  -8 1809.40 323.608   5
   3  -2  -7 105.569 68.9369   2
   3  -2  -6 66.9391 63.9739   2
   3  -2  -5 652.188 174.498   2
  -3   2   5 580.962 127.771   4
  -3   2   4 11516.2 572.026   4
   3  -2  -4 12451.2 710.179   2
   3  -2  -3 2343.55 276.176   2
  -3   2   3 2277.09 225.138   2
   3  -2  -2 19259.8 717.103   2
  -3   2   2 17442.7 547.838   2
   3  -2  -1 971.887 190.737   6
   3  -2  -1 686.004 118.278   2
  -3   2   1 495.289 77.8187   2
  -3   2   1 754.089 139.890   6
  -3   2   0 21.8930 27.3691   6
   3  -2   0 18.2278 27.4613   6
   3  -2   0-4.70771 8.81658   2
  -3   2   0 6.22443 6.89631   2
   3  -2   1 9.44573 30.0865   6
  -3   2  -2 20329.8 784.631   1
   3  -2   3 1545.03 81.3309   2
  -3   2  -3 1477.15 94.6254   2
  -3   2  -3 1878.04 247.118   1
   3  -2   4 3045.81 157.417   2
  -3   2  -4 3112.08 330.447   1
  -3   2  -4 3086.09 197.600   2
   3  -2   5 41.0474 22.5839   2
  -3   2  -5 38.6471 31.9203   1
  -3   2  -5 60.7361 33.3422   2
   3  -2   5 39.6687 66.9482   6
   3  -2   6 918.663 122.777   2
  -3   2  -6 806.143 185.706   1
  -3   2  -6 994.545 162.866   2
   3  -2   6 1185.30 232.053   6
   3  -2   7 251.014 106.370   6
  -3   2  -7 257.637 94.3531   2
  -3   2  -8 1784.50 282.754   3
   3  -2   8 1670.83 287.768   6
  -3   2  -8 1928.50 280.828   2
  -3   2  -9 1045.37 214.080   3
  -3   2  -9 1355.45 252.435   2
  -3   2 -10 467.154 148.007   3
  -3   2 -10 707.269 201.114   2
  -3   2 -11-81.6839 66.0959   3
  -3   2 -11 37.8893 50.6541   2
   3  -1 -11 354.610 179.711   2
   3  -1 -10-237.553 151.829   2
   3  -1  -9 909.650 292.023   2
   3  -1  -8 3.65481 43.5293   2
   3  -1  -7 380.724 129.384   5
   3  -1  -7 224.037 120.465   2
   3  -1  -6 911.113 205.384   5
   3  -1  -6 606.002 184.661   2
   3  -1  -5 21189.7 1023.19   2
   3  -1  -5 24535.0 1066.81   5
   3  -1  -4 2919.14 368.266   5
  -3   1   4 2558.93 241.742   4
   3  -1  -4 2581.70 332.110   2
   3  -1  -4 2887.20 196.932   6
   3  -1  -3 11491.1 728.773   5
  -3   1   3 10059.4 469.295   4
   3  -1  -3 10688.9 599.798   2
  -3   1   3 10791.0 534.394   2
   3  -1  -2 219.801 66.3950   6
  -3   1   2 255.261 107.807   5
   3  -1  -2 182.091 79.6483   2
  -3   1   2 228.960 72.3942   2
  -3   1   1 675.285 175.406   5
   3  -1  -1 428.923 97.2865   6
   3  -1  -1 403.555 95.6423   2
  -3   1   1 330.551 76.5152   2
  -3   1   0 5222.23 473.595   5
   3  -1   0 4405.29 284.958   2
  -3   1   0 3875.25 242.817   2
   3  -1   0 4386.79 326.992   6
  -3   1  -1 908.806 211.383   5
  -3   1  -1 634.826 69.7487   2
  -3   1  -1 587.279 84.2310   2
  -3   1  -1 550.274 104.128   1
  -3   1  -2 765.466 68.0736   2
   3  -1   2 665.219 70.7413   2
  -3   1  -2 746.985 130.742   1
   3  -1   3 4048.94 192.151   2
  -3   1  -3 4217.06 333.571   1
  -3   1  -3 4301.21 193.881   2
   3  -1   4 636.504 85.2413   2
  -3   1  -4 599.580 134.022   1
  -3   1  -4 607.368 90.4159   2
   3  -1   5 49.2641 48.0677   6
   3  -1   5 114.586 38.9520   2
  -3   1  -5 137.673 53.4333   2
   3  -1   6 19.7865 42.3546   6
   3  -1   6 72.0280 36.0908   2
  -3   1  -6 59.8316 38.4889   2
  -3   1  -7 13336.1 652.355   2
   3  -1   7 32722.7 2212.32   6
   3  -1   8 28.6984 26.9380   6
  -3   1  -8-3.52983 11.9960   2
  -3   1  -9 2995.42 384.843   2
   3  -1   9 3736.22 418.188   6
   3  -1  10 194.125 100.049   6
  -3   1 -10 344.026 123.600   3
  -3   1 -10 154.273 85.7968   2
  -3   1 -11 10.0233 20.9345   3
  -3   1 -11 48.1468 40.0511   2
  -3   1 -12 75.0063 75.4596   2
  -3   1 -13 29.4760 51.5357   2
   3   0 -11 1161.90 360.472   2
   3   0 -10 4747.43 676.924   2
   3   0  -9 189.314 125.089   2
   3   0  -8 101.016 85.8873   2
   3   0  -7 2771.78 427.287   2
  -3   0   6 390.554 83.1990   4
  -3   0   6 323.395 63.5181   3
  -3   0   5 1337.33 155.988   4
   3   0  -5 1066.29 230.977   2
  -3   0   4 3.12379 9.55036   4
   3   0  -4-1.57711 51.2162   2
  -3   0   3 11029.6 573.733   5
   3   0  -3 12664.5 711.766   2
   3   0  -2 3741.38 346.625   2
  -3   0   2 4192.68 344.775   2
  -3   0   2 4328.18 369.950   5
  -3   0   1 37.7497 45.3673   5
   3   0  -1-9.55469 25.3105   2
  -3   0   1 16.6885 22.3905   2
  -3   0   0 19587.5 521.240   2
  -3   0   0 18446.5 437.390   1
  -3   0   0 20728.8 672.728   2
  -3   0  -1 12525.2 389.881   2
  -3   0  -1 12691.6 421.629   1
  -3   0  -1 13270.4 533.979   2
  -3   0  -2 40550.9 664.074   2
   3   0   2 39203.5 702.682   2
   3   0   2 41993.2 877.343   1
  -3   0  -3 765.061 95.0112   2
   3   0   3 670.101 94.0582   2
   3   0   3 782.494 130.992   1
   3   0   4 1190.19 132.712   2
  -3   0  -4 1284.84 139.009   2
  -3   0  -5 11.2292 20.0046   2
   3   0   5 61.5900 31.8099   2
  -3   0  -6 3779.45 305.965   2
   3   0   6 3834.39 369.000   6
   3   0   7 564.970 134.659   6
  -3   0  -7 492.062 117.322   2
  -3   0  -8 3565.55 352.691   2
   3   0   8 3687.81 407.244   6
   3   0   9 85.5947 214.220   6
  -3   0  -9 239.567 102.137   2
  -3   0 -10 1102.06 241.908   2
   3   0  10 1337.56 247.208   6
   3   0  11 64.8493 59.6805   6
  -3   0 -11 95.5573 40.4856   3
  -3   0 -11 103.083 81.3430   2
  -3   0 -12 2417.41 436.883   2
  -3   0 -13 80.0905 84.0637   2
   3   1 -11 2438.32 544.797   2
   3   1 -10 95.2747 91.5355   2
   3   1  -9 1051.73 318.942   2
   3   1  -8 175.003 95.1734   2
   3   1  -7 2929.89 469.648   2
  -3  -1   6 5025.78 247.049   4
  -3  -1   6 4285.78 294.247   3
   3   1  -6 5137.95 585.274   2
  -3  -1   6 5121.53 299.640   1
  -3  -1   5 958.602 114.317   4
   3   1  -5 1235.19 268.725   2
  -3  -1   5 1023.74 114.468   1
   3   1  -4 652.907 177.591   2
  -3  -1   3 4429.98 311.652   5
   3   1  -3 4470.19 440.546   2
   3   1  -2 8196.45 591.656   2
  -3  -1   2 7040.51 478.957   2
   3   1  -1 60255.0 1433.89   2
  -3  -1   1 59718.1 1382.94   2
  -3  -1   0 294.910 95.6234   2
  -3  -1   0 248.882 68.0132   2
   3   1   0 225.592 39.4669   1
  -3  -1  -1 33710.6 747.271   2
   3   1   1 32085.7 603.383   1
   3   1   1 33274.3 738.596   2
  -3  -1  -2 8055.01 352.288   2
   3   1   2 7872.37 360.725   2
   3   1   2 7409.88 331.465   1
   3   1   3 4184.55 267.712   2
  -3  -1  -3 4581.42 263.763   2
  -3  -1  -4 269.156 67.9664   2
   3   1   4 225.724 64.3505   2
  -3  -1  -5 57.6967 35.0697   2
   3   1   5 103.259 47.0738   2
  -3  -1  -6 56.6293 30.6367   2
   3   1   7 271.891 94.7259   6
  -3  -1  -7 510.183 130.590   2
  -3  -1  -8 122.808 61.2236   2
   3   1   8 59.4592 32.9541   6
   3   1   9 623.652 143.622   6
  -3  -1  -9 689.195 170.721   2
   3   1  10 264.410 118.809   6
  -3  -1 -10 160.831 91.6088   2
  -3  -1 -11 1175.64 273.486   2
  -3  -1 -12 557.098 202.032   2
  -3  -1 -13 523.113 210.500   2
   3   2 -10 244.993 162.030   2
   3   2  -9 58.3790 75.0923   2
   3   2  -8 25.9555 22.3141   2
   3   2  -7 271.008 146.702   2
   3   2  -6 22006.2 1217.01   2
  -3  -2   6 19733.9 386.257   4
   3   2  -5 204.724 123.862   2
  -3  -2   5 94.8004 53.1329   3
  -3  -2   4 9953.19 293.522   5
   3   2  -4 10308.5 763.136   2
   3   2  -3 2048.68 332.892   2
   3   2  -2 5734.61 504.755   2
  -3  -2   1 1387.13 182.481   2
   3   2  -1 1524.33 249.248   2
  -3  -2   0 15339.6 589.516   2
  -3  -2  -1 737.764 120.170   2
  -3  -2  -2 2002.31 203.795   2
  -3  -2  -3 10147.7 440.864   2
   3   2   4 113.730 54.5439   2
  -3  -2  -4 21220.9 659.057   2
  -3  -2  -5 108.936 46.4219   2
  -3  -2  -6 33783.9 983.863   2
  -3  -2  -7 165.645 74.1632   2
   3   2   8 7380.40 520.668   6
  -3  -2  -8 6793.80 529.201   2
  -3  -2  -9 52.9597 55.6103   2
   3   2   9-66.0061 50.1209   6
   3   2  10-40.2514 38.5272   6
  -3  -2 -10 60.4490 54.8791   2
  -3  -2 -11-37.4861 46.8241   2
  -3  -2 -12 531.578 193.069   2
  -3  -2 -13 99.1952 91.4521   2
   3   3 -10 87.1294 99.7887   2
   3   3  -9 2419.89 513.050   2
   3   3  -8 79.5209 86.3735   2
   3   3  -7 871.712 262.886   2
   3   3  -6 9198.96 869.500   2
   3   3  -5 752.451 236.895   2
   3   3  -4 614.377 193.583   2
   3   3  -3 13354.7 398.029   1
   3   3  -3 16840.8 967.908   2
   3   3  -2 749.108 204.865   2
  -3  -3   1 13847.3 636.698   2
  -3  -3   0 252.765 88.5133   2
  -3  -3  -1 37647.1 971.155   2
  -3  -3  -2 3934.18 308.271   2
  -3  -3  -3 1538.83 191.153   2
  -3  -3  -4 1770.46 205.392   2
  -3  -3  -5 25.6137 21.7238   2
  -3  -3  -6 538.258 130.430   2
  -3  -3  -7 70.3379 41.1875   2
  -3  -3  -8-9.41242 22.0499   2
  -3  -3  -9 1049.37 230.454   2
   3   3   9 630.787 174.002   6
  -3  -3 -10 1949.85 329.870   2
   3   3  10 1629.17 250.700   6
  -3  -3 -11 676.296 200.290   2
  -3  -3 -12 59.7142 35.0307   2
   3   4 -10 4915.06 816.682   2
   3   4  -9 568.718 258.769   2
   3   4  -8 1451.17 404.184   2
   3   4  -7 383.719 188.744   2
   3   4  -6 276.458 149.643   2
   3   4  -5 472.739 194.837   2
   3   4  -5 461.553 101.212   1
   3   4  -4 53.5078 26.5319   1
   3   4  -4 43.3599 31.5364   2
   3   4  -3 121.504 29.1747   2
  -3  -4   2 21624.5 884.472   2
  -3  -4   1 2505.95 289.209   2
  -3  -4   0 4977.95 391.395   2
  -3  -4  -1 908.145 160.119   2
  -3  -4  -2 5415.11 392.841   2
  -3  -4  -3 79.4180 54.2362   2
  -3  -4  -4 2501.42 266.133   2
  -3  -4  -5 3910.34 346.711   2
  -3  -4  -6 6699.00 477.796   2
  -3  -4  -7 660.288 158.967   2
  -3  -4  -8 76.9806 62.2222   2
  -3  -4  -9 1187.42 248.648   2
  -3  -4 -10 3824.74 481.177   2
   3   4  10 5412.11 453.043   6
  -3  -4 -11 30.1050 43.8463   2
  -3  -4 -12 451.761 178.773   2
   3   5  -9 445.469 227.588   2
   3   5  -8 287.096 172.007   2
   3   5  -7 682.468 256.678   2
   3   5  -6 10.6844 19.1797   1
   3   5  -6-73.6930 80.4879   2
   3   5  -5 4655.15 371.686   1
   3   5  -5 4850.26 635.149   2
  -3  -5   4 16.8957 28.6242   2
  -3  -5   3 1960.01 294.770   2
  -3  -5   2 2502.23 318.302   2
  -3  -5   1 57.6013 48.8116   2
  -3  -5   0 62.4266 42.5251   2
  -3  -5  -1 7503.67 502.038   2
  -3  -5  -2 186.630 81.0984   2
  -3  -5  -3 5460.88 416.188   2
  -3  -5  -4 24.1489 38.2948   2
  -3  -5  -5 10035.0 588.345   2
  -3  -5  -6 3870.85 381.599   2
  -3  -5  -7 75.1055 48.7441   2
  -3  -5  -8 174.739 86.7730   2
  -3  -5  -9 214.286 111.967   2
  -3  -5 -10 848.565 233.583   2
  -3  -5 -11 415.417 172.460   2
   3   6  -8 154.262 132.082   2
   3   6  -7 201.112 144.603   2
  -3  -6   7-62.2037 61.6745   2
  -3  -6   6 3891.30 472.786   2
   3   6  -5 23.1162 9.91363   1
  -3  -6   5-38.2870 47.1505   2
  -3  -6   4 213.067 96.1461   2
   3   6  -4 266.064 100.164   1
  -3  -6   3 1333.97 254.342   2
  -3  -6   2 541.146 149.888   2
  -3  -6   1 54.9710 32.6460   2
  -3  -6   0 3430.58 365.416   2
  -3  -6  -1 68.4948 57.3849   2
  -3  -6  -2 1121.00 203.026   2
  -3  -6  -3 1247.49 208.386   2
  -3  -6  -4 559.596 141.601   2
  -3  -6  -5 307.713 105.967   2
  -3  -6  -6 3535.24 385.114   2
  -3  -6  -7 16.6558 20.7674   2
  -3  -6  -8 1887.05 313.848   2
  -3  -6  -9 381.714 145.497   2
  -3  -6 -10 268.113 132.808   2
  -3  -6 -11 863.539 252.568   2
  -3  -7   7 1142.24 286.670   2
  -3  -7   6 39.1113 29.0000   2
  -3  -7   5-13.0210 27.8312   2
   3   7  -5-135.348 79.7626   1
  -3  -7   4 731.974 202.120   2
  -3  -7   3 16.8226 30.7856   2
  -3  -7   2 337.781 120.906   2
  -3  -7   1 511.934 152.721   2
  -3  -7   0 79.7040 31.2607   2
  -3  -7  -1 715.190 167.969   2
  -3  -7  -2 5023.29 451.524   2
  -3  -7  -3 170.367 80.2674   2
  -3  -7  -4 518.016 144.636   2
  -3  -7  -5 2699.49 340.892   2
  -3  -7  -6 8.61746 25.1996   2
  -3  -7  -7 555.468 169.242   2
  -3  -7  -8 71.5888 50.9497   2
  -3  -7  -9 2651.19 411.412   2
  -3  -7 -10 91.5348 73.0918   2
  -3  -8   6 117.988 67.6710   2
  -3  -8   5-69.1190 65.7900   2
  -3  -8   4 63.3358 37.7207   2
  -3  -8   3 1261.76 266.362   2
  -3  -8   2 5801.81 554.105   2
  -3  -8   1 653.791 183.437   2
  -3  -8   0 1739.71 292.687   2
  -3  -8  -1 132.046 77.1707   2
  -3  -8  -2-57.6616 50.9818   2
  -3  -8  -3 2290.09 321.387   2
  -3  -8  -4 26.0323 35.6609   2
  -3  -8  -5 47.2890 55.3089   2
  -3  -8  -6 354.816 126.562   2
  -3  -8  -7 703.518 194.226   2
  -3  -8  -8 59.7995 60.2412   2
  -3  -8  -9 1100.37 276.856   2
  -3  -9   5 1402.38 305.488   2
  -3  -9   4 190.934 113.535   2
  -3  -9   3 575.918 185.441   2
  -3  -9   2 165.668 74.6953   2
  -3  -9   1 127.408 81.8994   2
  -3  -9   0-11.0455 24.5998   2
  -3  -9  -1-50.4351 49.9312   2
  -3  -9  -2 274.309 121.110   2
  -3  -9  -3 1761.57 296.694   2
  -3  -9  -4 1836.15 309.014   2
  -3  -9  -5 3033.41 399.930   2
  -3  -9  -6 493.355 170.430   2
  -3  -9  -7 536.203 182.057   2
  -3 -10   2-5.11416 21.5925   2
  -3 -10   1-2.11363 14.3707   2
  -3 -10   0 1531.82 289.534   2
  -3 -10  -1 545.864 169.510   2
  -3 -10  -2 1294.29 263.036   2
  -3 -10  -3 171.929 95.5919   2
  -3 -10  -4 23.8341 36.2994   2
  -3 -10  -5 52.1326 23.3341   2
  -4   8   3-30.5947 44.1016   3
  -4   8   2 214.611 109.255   3
  -4   8   1-43.2418 56.6397   3
  -4   8   0 484.126 191.953   3
  -4   8  -1 1.00056 15.6122   3
   4  -7  -6 494.536 264.048   5
   4  -7  -5 2201.27 552.167   5
   4  -7  -4 341.882 214.840   5
   4  -7  -3 125.356 89.3234   5
  -4   7   3 116.238 71.3560   3
   4  -7  -2-66.4209 156.565   5
  -4   7   2 42.6027 45.0237   3
   4  -7  -1 12909.9 1389.20   5
  -4   7   1 8018.10 711.743   3
   4  -7   0 110.223 116.548   5
  -4   7   0 13.4135 30.4628   3
  -4   7  -1 2133.37 378.148   3
  -4   7  -2 341.407 154.848   3
  -4   7  -3 8203.82 774.463   3
  -4   7  -4 1126.39 294.769   3
  -4   7  -4 920.381 276.092   1
   4  -6  -8-74.3818 98.4493   5
   4  -6  -7 107.148 100.662   5
   4  -6  -6 314.937 215.772   5
   4  -6  -5-38.3648 70.4397   5
   4  -6  -4 376.338 210.489   5
  -4   6   4 651.501 171.663   3
   4  -6  -3 287.372 183.481   5
  -4   6   3 185.319 91.8149   3
   4  -6  -2 3110.44 622.459   5
  -4   6   2 2617.39 359.846   3
   4  -6  -1 48.6933 98.3765   5
  -4   6   1 48.5835 44.6666   3
  -4   6   0 687.463 194.345   4
  -4   6   0 756.482 204.557   3
   4  -6   0 1125.85 379.196   5
  -4   6  -1-33.9248 56.0459   4
  -4   6  -1 46.1494 64.3236   3
  -4   6  -2 1468.58 277.839   4
  -4   6  -2 1363.09 293.062   3
  -4   6  -3 1053.01 236.948   4
  -4   6  -3 704.718 217.261   3
  -4   6  -4 29396.6 1240.41   4
  -4   6  -4 29040.3 1415.06   3
  -4   6  -4 31625.8 1513.72   1
  -4   6  -5 171.667 93.2811   4
  -4   6  -5 25.2185 24.4436   3
  -4   6  -5 130.971 99.3309   1
  -4   6  -6 621.383 184.808   4
  -4   6  -6 733.021 233.454   1
  -4   6  -6 881.961 258.476   3
  -4   6  -7 256.304 140.299   3
   4  -5  -9 10173.1 974.035   2
   4  -5  -8 636.814 265.180   5
   4  -5  -8 320.946 160.849   2
   4  -5  -7 1310.87 379.084   5
   4  -5  -7 1412.43 321.634   2
   4  -5  -6 880.127 314.792   5
   4  -5  -6 1227.32 274.206   2
   4  -5  -5 6500.50 831.461   5
   4  -5  -5 6465.56 579.262   2
   4  -5  -4-1.89519 113.320   5
  -4   5   4-12.1869 21.0744   3
   4  -5  -4 31.6682 37.2348   2
  -4   5   3 5361.38 468.045   3
   4  -5  -3 6105.34 805.812   5
   4  -5  -3 5870.58 452.120   2
  -4   5   2-5.17571 17.7406   4
  -4   5   2-116.713 69.7054   3
  -4   5   1 45.3110 42.5159   4
  -4   5   1-3.46237 40.9329   3
   4  -5   0 54.2249 83.0981   5
  -4   5   0-7.64988 11.1138   4
  -4   5   0 37.5210 43.8573   3
  -4   5  -1 27.2149 41.8493   4
  -4   5  -1 26.8974 43.6130   3
  -4   5  -2-49.5647 48.9804   4
  -4   5  -2-16.9859 21.4807   3
  -4   5  -3 39.9240 51.0490   4
  -4   5  -3 47.3539 47.5966   3
  -4   5  -3-31.3040 85.7359   1
  -4   5  -4 46.2204 46.7661   4
  -4   5  -4 27.8592 56.0674   3
  -4   5  -4 11.8966 24.7173   1
  -4   5  -5 460.762 168.339   1
  -4   5  -5 425.891 139.097   4
  -4   5  -5 333.444 138.413   3
  -4   5  -6 182.924 91.9403   4
  -4   5  -6 193.513 112.038   3
  -4   5  -6 219.149 128.758   1
  -4   5  -7 348.684 162.511   1
  -4   5  -7 277.109 110.891   4
  -4   5  -7 410.816 168.756   3
  -4   5  -8 221.499 126.688   3
  -4   5  -8 28.6417 106.938   1
  -4   5  -9 1336.87 315.981   3
   4  -4 -10 5522.26 772.037   2
   4  -4  -9 715.797 252.260   2
   4  -4  -8 135.303 100.037   5
   4  -4  -8 277.917 148.930   2
   4  -4  -7-227.019 145.295   5
   4  -4  -7 235.963 127.787   2
   4  -4  -6 4007.23 601.623   5
   4  -4  -6 3690.37 476.149   2
   4  -4  -5 205.704 136.147   5
   4  -4  -5-82.5208 65.9510   2
   4  -4  -4 113039. 3231.86   5
   4  -4  -4 106662. 2190.88   2
   4  -4  -3 811.350 294.886   5
  -4   4   3 370.383 129.804   4
  -4   4   3 382.017 109.638   3
   4  -4  -3 522.213 135.354   2
   4  -4  -2 64.0045 70.3384   5
  -4   4   2 7.13314 13.1929   2
  -4   4   2 74.2742 48.8028   4
  -4   4   2 106.715 59.3518   3
   4  -4  -2-1.45274 37.6875   2
   4  -4  -1 20.0592 107.639   5
  -4   4   1 31.9376 23.7585   4
   4  -4  -1 13.5927 13.9320   2
  -4   4   1-7.77734 12.6962   2
  -4   4   0 12048.0 716.473   4
   4  -4   1 562.504 164.578   6
  -4   4  -1 407.204 132.039   4
  -4   4  -2 8514.23 591.881   4
   4  -4   2 7844.52 637.461   6
   4  -4   3 47.0781 45.4850   6
  -4   4  -3 24.5774 42.7173   4
  -4   4  -3 3.78142 26.6927   1
  -4   4  -4 2119.55 291.803   4
  -4   4  -4 2090.96 338.237   1
  -4   4  -5 30.7176 34.9408   4
  -4   4  -5-10.5926 25.4455   1
  -4   4  -5 39.8010 22.2955   3
  -4   4  -6 3323.89 458.393   1
  -4   4  -6 3335.50 364.462   4
  -4   4  -6 3267.98 427.096   3
  -4   4  -7 538.152 146.535   4
  -4   4  -7 245.417 108.605   3
  -4   4  -7 437.122 169.118   1
  -4   4  -8 416.482 128.459   4
  -4   4  -8 505.908 179.337   3
  -4   4  -9 202.521 117.639   3
  -4   4 -10 208.676 114.380   3
   4  -3 -10 356.985 190.944   2
   4  -3  -9 1649.98 400.129   2
   4  -3  -8 216.497 134.371   5
   4  -3  -8 140.209 106.656   2
   4  -3  -7 112.655 100.864   5
   4  -3  -7-65.5484 69.0454   2
   4  -3  -6 1182.82 310.960   5
   4  -3  -6 780.112 220.292   2
   4  -3  -5 3660.62 553.673   5
  -4   3   5 3339.03 369.854   4
  -4   3   5 2728.16 239.808   3
   4  -3  -5 3340.07 427.475   2
   4  -3  -4 932.781 290.633   5
  -4   3   4 583.272 155.752   4
   4  -3  -4 497.891 149.846   2
   4  -3  -3-7.36147 41.5012   6
   4  -3  -3 43.6803 60.9715   5
  -4   3   3 51.7386 18.9717   4
   4  -3  -3 1.72679 50.6127   2
  -4   3   2 57.8652 34.7584   2
   4  -3  -2 12.5133 44.3118   5
  -4   3   2-1.85276 7.28873   4
   4  -3  -2 28.8224 17.2303   6
   4  -3  -2-44.1672 37.0517   2
   4  -3  -1 60.2736 48.1889   6
  -4   3   1 58.0086 26.3239   2
  -4   3   1-3.08096 17.9899   4
   4  -3  -1 6.25215 14.4363   2
   4  -3   0 601.521 154.610   6
  -4   3   0 487.347 59.8938   2
  -4   3   0 547.809 141.059   4
  -4   3   0 468.259 52.1458   2
  -4   3  -1 40872.4 1220.15   4
   4  -3   1 49314.0 1594.89   6
   4  -3   2 517.352 156.682   6
  -4   3  -2 434.103 122.674   4
  -4   3  -2 545.179 150.830   1
   4  -3   3 1685.94 295.447   6
  -4   3  -3 1756.43 279.374   1
   4  -3   4 210.576 105.851   6
  -4   3  -4 148.834 76.0288   1
  -4   3  -5 3647.17 427.457   1
   4  -3   5 2848.34 394.866   6
   4  -3   6 491.959 167.244   6
  -4   3  -6 698.595 192.118   1
  -4   3  -7 8911.28 730.479   1
   4  -3   7 9159.18 745.176   6
  -4   3  -8 182.028 79.5505   4
  -4   3  -8 44.9871 55.3321   3
  -4   3  -9 278.045 114.100   3
  -4   3 -10 1548.29 310.333   3
  -4   3 -11 8963.04 784.667   3
   4  -2 -10-96.6131 98.6777   2
   4  -2  -9 404.401 185.876   2
   4  -2  -8 2658.72 462.227   2
   4  -2  -7 318.780 143.758   2
   4  -2  -6 5132.65 598.772   5
  -4   2   6 4069.77 379.150   4
   4  -2  -6 3644.61 475.545   2
   4  -2  -5 327.492 152.214   5
   4  -2  -5 355.525 81.5343   6
  -4   2   5 285.574 99.9890   4
   4  -2  -5 303.913 136.552   2
  -4   2   4-59.5391 45.1775   4
   4  -2  -4 20.9324 31.2379   2
   4  -2  -4-27.8182 31.0075   6
  -4   2   3 2185.56 269.738   4
   4  -2  -3 2170.81 298.552   2
   4  -2  -2 411.419 116.466   6
  -4   2   2 287.777 95.3797   4
   4  -2  -2 333.639 104.628   2
  -4   2   2 259.538 69.3985   2
   4  -2  -1 68.4161 60.6856   6
   4  -2  -1-44.4846 36.5711   2
  -4   2   1 12.2218 15.7804   2
  -4   2   0 13449.3 394.729   2
  -4   2   0 12038.5 380.295   2
   4  -2   0 13217.6 679.804   6
   4  -2   1 234.794 90.1972   6
  -4   2  -1 275.880 41.4109   2
  -4   2  -1 161.008 37.4480   2
  -4   2  -2 2659.01 297.736   1
   4  -2   2 2973.40 358.282   6
  -4   2  -3 1961.80 264.435   1
   4  -2   3 2410.55 342.689   6
  -4   2  -4 5727.25 477.345   1
   4  -2   4 5097.64 196.116   2
  -4   2  -4 5332.99 221.230   2
   4  -2   5 190.806 166.997   6
  -4   2  -5 72.2702 31.6807   2
   4  -2   5 75.7832 29.6262   2
  -4   2  -5 127.213 63.4468   1
   4  -2   6 2990.90 212.489   2
  -4   2  -6 3651.68 288.803   2
   4  -2   7 485.640 157.307   6
  -4   2  -7 752.211 151.546   2
  -4   2  -8-12.7391 21.9709   2
   4  -2   8 18.7813 28.9796   6
   4  -2   9 1355.34 288.002   6
  -4   2 -10 5439.63 564.358   3
  -4   2 -11 1685.78 293.073   3
   4  -1 -10 333.503 192.557   2
   4  -1  -9 1149.93 330.757   2
   4  -1  -8 104.001 92.3564   2
   4  -1  -7 12658.6 961.185   2
  -4   1   6 374.854 105.644   4
   4  -1  -6 353.961 154.726   2
  -4   1   5 13199.1 625.267   4
   4  -1  -5 13540.8 896.664   2
   4  -1  -5 15174.4 485.212   6
   4  -1  -4 20.4782 32.9059   6
  -4   1   4-11.1921 27.1631   4
   4  -1  -3 17540.9 883.958   2
   4  -1  -3 17395.2 669.634   6
   4  -1  -2 6345.76 489.805   2
  -4   1   2 6113.10 413.634   2
   4  -1  -2 6470.33 419.694   6
  -4   1   1 34662.6 926.319   2
   4  -1  -1 36578.3 1041.35   6
   4  -1   0 43.7681 27.4808   6
  -4   1   0 112.100 45.2552   2
  -4   1   0 84.0581 46.6299   2
  -4   1   0 52.8052 27.0729   1
  -4   1  -1 823.301 99.1034   2
  -4   1  -1 914.826 130.536   2
  -4   1  -1 840.377 139.770   1
   4  -1   1 1000.27 186.100   6
  -4   1  -2 350.424 56.2746   2
  -4   1  -2 420.598 92.0420   2
  -4   1  -2 366.927 98.5851   1
  -4   1  -3 24242.9 858.547   1
  -4   1  -3 23115.8 470.960   2
   4  -1   4 4959.26 257.790   2
  -4   1  -4 5429.20 427.397   1
  -4   1  -4 5956.23 273.877   2
   4  -1   5 966.516 124.366   2
  -4   1  -5 1047.64 134.528   2
   4  -1   5 799.805 174.878   6
   4  -1   6 209.459 91.8461   6
   4  -1   6 194.928 58.0007   2
  -4   1  -6 218.879 69.9370   2
  -4   1  -7 1726.40 219.322   2
   4  -1   7 1887.72 336.539   6
   4  -1   8 325.661 263.513   6
  -4   1  -8 521.517 134.867   2
   4  -1   9 110.063 106.127   6
  -4   1  -9 100.627 65.3922   2
   4  -1  10-114.456 82.5934   6
  -4   1 -10-33.0862 42.3516   2
   4  -1  11 651.564 201.698   6
  -4   1 -11 569.795 174.113   3
  -4   1 -11 519.597 183.117   2
   4   0 -10 682.336 291.155   2
   4   0  -9 247.405 161.329   2
   4   0  -8 163.528 133.114   2
   4   0  -7 212.198 106.876   2
   4   0  -6 4804.41 588.354   2
   4   0  -6 5546.57 303.392   6
   4   0  -5 319.266 140.236   2
   4   0  -5 337.873 78.9635   6
   4   0  -4 3718.80 449.751   2
  -4   0   3 58.6537 66.4416   5
   4   0  -3 204.208 99.4942   2
  -4   0   2 47190.8 1450.74   5
   4   0  -2 47782.3 1487.88   2
  -4   0   1 1180.42 109.099   1
  -4   0   1 1535.54 282.522   5
   4   0  -1 1262.02 214.410   2
  -4   0   1 1467.94 214.245   2
  -4   0   0 9130.00 357.242   1
  -4   0   0 9394.31 433.117   2
  -4   0   0 10660.2 566.925   2
  -4   0  -1 1558.52 162.060   2
  -4   0  -1 1422.71 155.564   1
  -4   0  -1 1869.60 238.748   2
   4   0   1 1587.95 222.748   6
  -4   0  -2 140447. 1444.01   2
  -4   0  -2 149714. 2062.72   2
   4   0   3 23649.4 635.142   2
  -4   0  -3 25135.2 592.336   2
   4   0   4 169500. 1751.25   2
  -4   0  -4 175172. 1664.68   2
   4   0   5 13.2362 18.6554   6
  -4   0  -5 0.11455 19.8203   2
   4   0   5-1.10454 7.89051   2
  -4   0  -6 4521.62 334.700   2
   4   0   6 4728.88 487.067   6
   4   0   7 1402.45 255.389   6
  -4   0  -7 1207.20 189.275   2
  -4   0  -8 5836.94 447.001   2
   4   0   8 5463.74 480.366   6
  -4   0  -9 1844.34 266.430   2
   4   0   9 2100.57 360.214   6
   4   0  10 56.2225 292.793   6
  -4   0 -10 764.565 196.220   2
   4   0  11-108.016 80.6297   6
  -4   0 -11 96.5605 76.2504   2
  -4   0 -12 164.748 108.555   2
  -4   0 -13 557.974 213.867   2
   4   1 -10 1172.26 380.262   2
   4   1  -9 333.248 185.221   2
   4   1  -8 38.2148 59.2642   2
   4   1  -7-96.7176 89.4047   2
  -4  -1   6 1720.67 184.888   4
   4   1  -6 1723.27 356.646   2
   4   1  -5 60.2804 73.8094   2
  -4  -1   4 1538.63 213.348   5
   4   1  -4 854.985 231.593   2
  -4  -1   3 732.159 157.132   5
   4   1  -3 808.612 221.174   2
  -4  -1   2 2434.53 313.075   5
   4   1  -2 2046.76 315.928   2
   4   1  -1 27698.4 1114.15   2
  -4  -1   0 10.7102 19.1207   2
  -4  -1   0 8.21059 26.8603   2
  -4  -1  -1 211.697 66.3513   2
  -4  -1  -1 355.102 115.156   2
   4   1   1 209.742 52.9101   1
   4   1   2 669.580 109.484   1
  -4  -1  -2 694.218 116.044   2
   4   1   2 569.539 110.221   2
  -4  -1  -3 47931.3 945.983   2
   4   1   3 46420.7 1030.02   1
   4   1   3 47246.5 1002.33   2
  -4  -1  -4 387.658 85.9523   2
   4   1   4 377.921 89.7398   2
   4   1   5 884.504 183.577   6
  -4  -1  -5 1043.64 151.184   2
  -4  -1  -6 178.106 66.8900   2
   4   1   6 267.718 105.682   6
  -4  -1  -7 5965.17 436.677   2
   4   1   7 5733.79 535.318   6
  -4  -1  -8 1804.12 260.061   2
   4   1   8 1505.37 273.772   6
  -4  -1  -9 14026.8 775.434   2
   4   1   9 12836.3 785.033   6
   4   1  10 14.9739 27.9915   6
  -4  -1 -10-24.4902 39.0452   2
  -4  -1 -11 2230.34 359.246   2
   4   1  11 4717.60 650.155   6
  -4  -1 -12 241.293 127.526   2
  -4  -1 -13 3054.81 498.604   2
   4   2  -9 2218.99 495.215   2
   4   2  -8 2136.54 469.090   2
   4   2  -7 153.186 115.860   2
  -4  -2   6 39983.2 789.942   4
   4   2  -6 40399.9 1821.92   2
   4   2  -5 7882.38 806.071   2
  -4  -2   4 56666.6 1177.95   5
   4   2  -4 47683.2 1843.75   2
   4   2  -3 1504.61 308.175   2
   4   2  -2 3656.62 442.137   2
  -4  -2   1 2303.81 260.791   2
  -4  -2   0 7417.90 455.233   2
   4   2   0 6772.48 239.847   1
  -4  -2  -1 1845.94 214.731   2
  -4  -2  -2 9054.18 465.769   2
  -4  -2  -3 3371.31 280.295   2
  -4  -2  -4 5649.65 361.083   2
  -4  -2  -5 15.6178 29.4334   2
  -4  -2  -6 7704.38 475.776   2
  -4  -2  -7 411.070 116.152   2
   4   2   7 375.789 122.928   6
  -4  -2  -8 139.508 76.6097   2
   4   2   8 211.569 87.3656   6
   4   2   9 118.173 78.8543   6
  -4  -2  -9 169.322 90.4507   2
  -4  -2 -10-117.256 77.7749   2
   4   2  10-51.3988 50.4793   6
   4   2  11 394.736 127.271   6
  -4  -2 -11 794.182 214.485   2
  -4  -2 -12 1723.69 341.658   2
  -4  -2 -13 401.136 177.871   2
   4   3  -9 1151.72 399.849   2
   4   3  -8 252.991 170.487   2
   4   3  -7 2418.64 510.192   2
   4   3  -6 200.514 108.484   2
   4   3  -5 85566.7 2615.71   2
  -4  -3   4 1992.95 205.412   5
   4   3  -4 1844.51 359.031   2
   4   3  -3 429.738 171.282   2
   4   3  -2 466.255 45.9981   1
  -4  -3   2 638.712 149.746   2
  -4  -3   1 34659.3 1102.08   2
  -4  -3   0 7253.35 482.708   2
  -4  -3  -1 25355.7 866.112   2
  -4  -3  -2 809.484 155.381   2
  -4  -3  -3 19913.8 745.573   2
  -4  -3  -4 4435.42 350.563   2
  -4  -3  -5 30588.8 933.361   2
  -4  -3  -6 4255.52 366.431   2
  -4  -3  -7 349.940 119.606   2
  -4  -3  -8 35.1164 27.9965   2
  -4  -3  -9 20.3939 31.6712   2
   4   3   9 2.50671 13.4016   6
   4   3  10 945.679 240.347   6
  -4  -3 -10 899.757 222.452   2
  -4  -3 -11 388.033 152.641   2
  -4  -3 -12 293.985 139.167   2
   4   4  -9 206.725 159.549   2
   4   4  -8 2379.69 519.230   2
   4   4  -7 907.666 317.808   2
   4   4  -6 2244.98 456.409   2
   4   4  -5 158.895 101.617   2
   4   4  -4 704.787 236.523   2
  -4  -4   3 871.473 191.573   2
   4   4  -3 869.618 106.104   1
  -4  -4   2 5712.61 490.824   2
  -4  -4   1 1193.25 213.766   2
  -4  -4   0 16480.2 767.713   2
  -4  -4  -1 98.1080 44.8181   2
  -4  -4  -2 1423.38 219.562   2
  -4  -4  -3 3.44233 25.8720   2
  -4  -4  -4 13457.0 654.161   2
  -4  -4  -5 1986.29 254.425   2
  -4  -4  -6 14618.9 718.794   2
  -4  -4  -7 137.821 83.9636   2
  -4  -4  -8 345.470 124.968   2
  -4  -4  -9 6676.18 586.086   2
   4   4  10 36623.4 1324.55   6
  -4  -4 -10 38943.2 1531.88   2
  -4  -4 -11 9179.17 792.242   2
  -4  -4 -12 3206.28 487.846   2
   4   5  -8 212.253 156.470   2
   4   5  -7 884.248 310.146   2
   4   5  -6 1712.86 411.209   2
   4   5  -5 789.343 271.706   2
  -4  -5   5 566.130 175.921   2
   4   5  -4 695.862 119.659   1
  -4  -5   4 624.487 184.711   2
  -4  -5   3 107.310 76.6413   2
  -4  -5   2 590.287 165.634   2
  -4  -5   1 2864.01 347.792   2
  -4  -5   0 884.694 188.236   2
  -4  -5  -1 766.782 169.798   2
  -4  -5  -2 970.231 193.900   2
  -4  -5  -3 2657.20 309.669   2
  -4  -5  -4 3.65321 19.1092   2
  -4  -5  -5 17.3184 23.0161   2
  -4  -5  -6 36.3992 14.9868   2
  -4  -5  -7 822.124 190.206   2
  -4  -5  -8 104.277 56.5627   2
  -4  -5  -9 2957.95 404.020   2
  -4  -5 -10 2174.39 371.818   2
  -4  -5 -11 6204.28 671.417   2
  -4  -6   7 29.5329 45.8337   2
  -4  -6   6 409.779 166.031   2
  -4  -6   5 65.4794 45.8361   2
  -4  -6   4 9602.59 750.624   2
  -4  -6   3 1390.91 276.524   2
  -4  -6   2 21418.9 1036.09   2
  -4  -6   1 338.326 123.300   2
  -4  -6   0 34.9872 39.6270   2
  -4  -6  -1 5287.39 476.849   2
  -4  -6  -2 43757.0 1348.88   2
  -4  -6  -3 10618.5 660.849   2
  -4  -6  -4 4160.21 409.444   2
  -4  -6  -5 137.025 74.9299   2
  -4  -6  -6 63.0294 53.5712   2
  -4  -6  -7 54.5853 49.3532   2
  -4  -6  -8 732.117 199.392   2
  -4  -6  -9 400.037 161.136   2
  -4  -6 -10 235.302 116.547   2
  -4  -6 -11 126.502 97.4043   2
  -4  -7   6 57.8415 65.3110   2
  -4  -7   5 205.039 116.247   2
  -4  -7   4 50.0020 24.6512   2
  -4  -7   3 50.7944 53.6622   2
  -4  -7   2 443.351 155.716   2
  -4  -7   1-10.9428 24.4674   2
  -4  -7   0-88.5290 66.2568   2
  -4  -7  -1 25595.2 1113.19   2
  -4  -7  -2 4630.18 462.735   2
  -4  -7  -3 36206.6 1285.16   2
  -4  -7  -4 1001.82 212.307   2
  -4  -7  -5 3306.92 390.532   2
  -4  -7  -6 1495.48 276.488   2
  -4  -7  -7 7831.53 647.920   2
  -4  -7  -8 2616.93 399.250   2
  -4  -7  -9 853.157 234.173   2
  -4  -7 -10 83.5394 55.5779   2
  -4  -8   5 125.660 92.8332   2
  -4  -8   4 1044.08 263.585   2
  -4  -8   3 224.235 119.816   2
  -4  -8   2 59.4880 59.1775   2
  -4  -8   1 28.1415 13.8216   2
  -4  -8   0 1902.12 330.521   2
  -4  -8  -1 360.972 129.066   2
  -4  -8  -2 106.575 72.6899   2
  -4  -8  -3 657.702 179.169   2
  -4  -8  -4 156.542 85.1197   2
  -4  -8  -5 567.918 165.720   2
  -4  -8  -6 10.8719 19.0817   2
  -4  -8  -7 305.210 121.252   2
  -4  -8  -8 2053.34 367.351   2
  -4  -9   3 1424.43 308.015   2
  -4  -9   2 28.3499 23.1289   2
  -4  -9   1 1584.18 315.138   2
  -4  -9   0 327.797 138.223   2
  -4  -9  -1 768.375 213.389   2
  -4  -9  -2 456.347 166.284   2
  -4  -9  -3-86.8976 68.4626   2
  -4  -9  -4 854.011 218.457   2
  -4  -9  -5-21.5360 75.2682   2
  -4  -9  -6 82.4918 69.6725   2
  -4  -9  -7 135.264 92.7850   2
  -4 -10   0 2356.49 385.944   2
  -4 -10  -1 383.740 150.907   2
  -4 -10  -2 330.573 135.420   2
  -4 -10  -3 2136.13 357.833   2
  -5   7   2 83.1408 72.8823   3
  -5   7   1 86.7719 78.6618   3
  -5   7   0 195.161 115.110   3
  -5   7  -1 1129.94 282.546   3
  -5   7  -2-26.7822 45.2595   3
   5  -6  -7-325.955 227.441   5
   5  -6  -6-154.516 157.322   5
   5  -6  -5-104.762 126.476   5
   5  -6  -4 2096.91 560.796   5
   5  -6  -3 896.844 361.743   5
  -5   6   3 509.944 165.139   3
  -5   6   2-39.8807 47.3153   3
  -5   6   1-80.4228 70.8983   4
  -5   6   1 14.3928 30.5952   3
  -5   6   0 1029.82 257.038   4
  -5   6   0 803.963 224.249   3
  -5   6  -1-96.8145 77.4863   4
  -5   6  -1 21.4727 36.8342   3
  -5   6  -2 62.6428 61.9743   4
  -5   6  -2 6.96079 65.3009   3
  -5   6  -3 290.352 133.998   4
  -5   6  -3 227.224 112.168   3
  -5   6  -3 392.099 170.692   1
  -5   6  -4 443.546 162.679   4
  -5   6  -4 574.443 210.861   3
  -5   6  -4 569.506 194.638   1
  -5   6  -5-83.9491 71.2451   4
  -5   6  -5-17.6269 61.3241   3
  -5   6  -6 403.474 149.015   4
   5  -5  -7 670.665 300.594   5
   5  -5  -6 427.924 238.291   5
   5  -5  -5 85.0840 114.464   5
   5  -5  -4-212.018 167.801   5
  -5   5   3 5862.82 587.765   4
  -5   5   3 5589.32 500.987   3
  -5   5   2 280.651 114.129   4
  -5   5   2 204.904 89.3699   3
  -5   5   1 87.9110 70.3873   4
  -5   5   1-24.5395 33.9047   3
  -5   5   0-45.3907 50.6803   4
  -5   5   0 4.37646 35.5582   3
  -5   5  -1 4457.48 499.493   4
  -5   5  -1 3601.86 444.328   3
  -5   5  -2 249.422 115.589   4
  -5   5  -2 20.3847 17.7802   3
  -5   5  -3 3970.70 466.456   4
  -5   5  -3 3436.07 459.057   3
  -5   5  -3 3678.60 490.413   1
  -5   5  -4 85.7192 69.3601   4
  -5   5  -4-8.93775 69.4597   3
  -5   5  -4 115.689 118.323   1
  -5   5  -5 329.537 133.653   4
  -5   5  -5 230.619 127.215   1
  -5   5  -5 312.506 132.424   3
  -5   5  -6 45.9324 60.0607   4
  -5   5  -6 108.758 81.1683   3
  -5   5  -6-94.2826 84.7306   1
  -5   5  -7 156.265 90.9384   4
  -5   5  -7 101.988 70.7493   3
  -5   5  -7 189.117 122.674   1
   5  -4  -9 1083.23 319.296   2
   5  -4  -8 28.7421 51.3839   2
   5  -4  -7-33.1586 52.0444   2
   5  -4  -6 1024.92 266.029   2
  -5   4   5 394.973 139.402   4
   5  -4  -5 442.782 156.227   2
  -5   4   4 1421.33 276.686   4
  -5   4   4 1309.03 211.976   3
   5  -4  -4 1512.96 284.510   2
  -5   4   3 41.4662 48.5684   4
   5  -4  -3 79.8858 50.9372   2
  -5   4   2 5.94019 11.0134   4
   5  -4  -1 14.5469 27.4919   6
  -5   4   1-18.5681 46.3498   4
  -5   4   0 1670.53 288.690   4
   5  -4   0 2145.45 336.662   6
   5  -4   1 63.2810 55.7506   6
  -5   4  -1 214.726 100.120   4
  -5   4  -2 3510.16 409.425   4
  -5   4  -2 4217.38 479.009   1
   5  -4   2 3494.27 449.658   6
   5  -4   3 296.447 137.542   6
  -5   4  -3 292.663 121.700   4
  -5   4  -3 279.220 111.238   1
  -5   4  -4 2621.89 354.896   4
   5  -4   4 2396.29 394.531   6
  -5   4  -4 2684.91 397.614   1
   5  -4   5 232.026 118.884   6
  -5   4  -5 181.167 86.9688   4
  -5   4  -5 177.663 104.649   1
  -5   4  -6 1299.77 251.050   4
  -5   4  -6 1209.85 285.195   1
  -5   4  -7 257.105 115.088   4
  -5   4  -7 322.392 145.714   3
  -5   4  -7 249.919 124.686   1
  -5   4  -8 226.305 109.784   4
  -5   4  -8 461.872 164.240   3
  -5   4  -9 19.5733 37.8592   3
   5  -3  -9 299.225 172.824   2
   5  -3  -8 2.20259 40.9660   2
   5  -3  -7 3681.41 542.285   2
  -5   3   6 4.97763 22.9419   4
   5  -3  -6-90.5371 80.5221   2
  -5   3   5 9233.21 664.318   4
   5  -3  -5 10662.5 834.480   2
  -5   3   4 3667.50 418.763   4
   5  -3  -4 3922.57 468.529   2
   5  -3  -4 4043.68 374.804   6
   5  -3  -3 135.245 69.6523   6
  -5   3   3 173.705 88.8725   4
   5  -3  -3 167.406 82.4902   2
   5  -3  -2 428.154 140.902   6
  -5   3   2 424.144 138.774   4
   5  -3  -2 379.564 129.056   2
   5  -3  -1 643.948 198.113   6
  -5   3   1 370.664 128.523   4
   5  -3  -1 373.754 100.561   2
   5  -3   0 49.5046 62.6598   6
  -5   3   0-46.5873 20.4422   2
  -5   3   0 5.14786 28.5508   4
  -5   3  -1 1724.70 269.608   4
   5  -3   1 3972.32 661.122   6
   5  -3   2 201.564 165.910   6
  -5   3  -2 88.7858 65.2725   1
   5  -3   3 0.57302 35.1776   6
  -5   3  -3-5.39161 19.5305   1
   5  -3   4 31.9623 45.6087   6
  -5   3  -4 125.239 86.8175   1
  -5   3  -5 3549.23 448.580   1
   5  -3   5 3691.31 493.330   6
   5  -3   6 400.951 160.869   6
  -5   3  -6 628.246 192.153   1
   5  -3   7 725.304 223.906   6
   5  -3   8 0.44288 52.6046   6
  -5   3  -9 1862.75 354.385   3
  -5   3 -10 247.685 126.550   3
   5  -2  -9 286.930 174.439   2
   5  -2  -8 74.4096 63.3891   2
   5  -2  -7 49.3365 63.9105   2
  -5   2   6 2208.26 308.115   4
   5  -2  -6 2019.53 391.275   2
   5  -2  -5 53.9358 38.5862   6
  -5   2   5 42.8732 40.9635   4
   5  -2  -5 28.4041 21.4206   2
   5  -2  -4 320.172 169.842   6
  -5   2   4 408.322 124.357   4
   5  -2  -4 502.901 176.641   2
  -5   2   3 375.437 120.494   4
   5  -2  -3 713.825 187.327   2
   5  -2  -3 879.632 193.744   6
  -5   2   2 6206.69 500.162   4
   5  -2  -2 7411.18 585.790   2
   5  -2  -1 432.263 124.515   6
   5  -2  -1 659.306 150.395   2
  -5   2   1 600.281 111.105   2
  -5   2   0 18922.9 544.424   2
   5  -2   0 17156.9 808.231   6
   5  -2   1 103.017 64.0159   6
  -5   2  -1 100.772 45.9932   1
  -5   2  -1 130.757 40.0166   2
  -5   2  -1 96.7482 30.8810   2
  -5   2  -2 2917.74 125.169   2
   5  -2   2 2991.49 365.491   6
  -5   2  -2 3132.08 337.245   1
  -5   2  -3 4.61355 4.37231   2
  -5   2  -3-4.30241 15.1353   1
  -5   2  -4 1819.63 283.578   1
  -5   2  -4 1337.46 93.0900   2
   5  -2   4 1846.09 336.723   6
   5  -2   5 536.136 202.092   6
  -5   2  -5 382.388 66.0464   2
  -5   2  -5 380.727 138.190   1
   5  -2   6 676.904 325.976   6
   5  -2   7-219.188 173.343   6
   5  -2   8 429.539 166.420   6
   5  -2   9-44.4596 31.7591   6
   5  -2  10 782.557 239.413   6
  -5   2 -11 1110.98 278.326   3
   5  -1  -9 490.165 240.953   2
   5  -1  -8-97.8676 100.415   2
  -5   1   7 1054.49 197.022   4
   5  -1  -7 1166.42 320.908   2
  -5   1   6 154.423 73.4315   4
   5  -1  -6 169.811 129.376   2
  -5   1   5 2816.88 323.430   4
   5  -1  -5 2997.61 446.574   2
   5  -1  -5 3541.20 278.608   6
   5  -1  -4-21.0476 25.3592   6
  -5   1   4 1.07095 46.4488   4
   5  -1  -4-61.1543 60.4097   2
   5  -1  -3 2714.55 304.265   6
   5  -1  -3 3097.93 423.288   2
   5  -1  -2 548.151 138.506   6
   5  -1  -2 383.002 136.405   2
   5  -1  -1 5212.97 461.777   2
  -5   1   1 4914.84 384.786   2
  -5   1   1 5275.34 339.979   1
   5  -1  -1 5124.61 437.331   6
  -5   1   0 192.006 66.3430   1
   5  -1   0 324.462 113.121   6
  -5   1   0 158.791 55.2313   2
  -5   1   0 201.728 71.3245   2
  -5   1  -1 1657.97 209.887   1
  -5   1  -1 1642.24 165.128   2
  -5   1  -1 1588.63 190.896   2
   5  -1   1 1595.16 260.234   6
   5  -1   2 552.193 161.081   6
  -5   1  -2 644.110 91.7183   2
  -5   1  -2 656.909 140.073   1
  -5   1  -2 504.914 107.619   2
  -5   1  -3 2784.98 179.100   2
  -5   1  -3 2609.46 296.952   1
   5  -1   3 2958.91 381.451   6
  -5   1  -3 2748.38 259.899   2
  -5   1  -4 115.861 38.6443   2
   5  -1   4 22.2436 40.6605   6
   5  -1   4 71.4288 30.1585   2
   5  -1   5 108.402 71.4539   6
  -5   1  -5 121.669 48.8377   2
   5  -1   5 58.5717 33.3652   2
  -5   1  -6 103.360 42.4269   2
   5  -1   6 55.9112 59.9478   6
  -5   1  -7 1139.55 170.410   2
   5  -1   7 1388.31 309.420   6
   5  -1   8 36.5720 33.8265   6
  -5   1  -8 155.812 66.0784   2
   5  -1   9 317.600 377.039   6
   5  -1  10-134.550 105.479   6
   5  -1  11 634.447 216.782   6
   5  -1  12 142.549 102.153   6
   5   0  -9 1166.34 369.022   2
   5   0  -8 7584.04 866.982   2
   5   0  -7 377.982 181.218   2
  -5   0   6 1768.40 240.461   4
   5   0  -6 1498.96 344.121   2
  -5   0   5 884.546 168.467   4
   5   0  -5 1038.28 273.737   2
   5   0  -5 1271.24 188.166   6
   5   0  -4 128.737 95.5123   2
   5   0  -4 78.0158 54.1715   6
  -5   0   3 434.613 47.6687   1
   5   0  -3 665.068 204.403   2
   5   0  -3 487.134 124.737   6
  -5   0   2 67.6047 26.0313   1
   5   0  -2 143.327 85.3691   2
   5   0  -2 58.0174 12.7672   6
  -5   0   1 2867.85 188.696   1
   5   0  -1 2809.30 365.218   2
   5   0  -1 2754.05 311.146   6
  -5   0   0 1318.93 182.414   2
  -5   0   0 1567.12 231.365   2
   5   0   0 1469.57 235.692   6
  -5   0  -1 67.1685 32.8311   2
  -5   0  -1 112.080 56.8975   2
   5   0   1 43.5942 50.4152   6
  -5   0  -2 2400.20 214.695   2
  -5   0  -2 2432.55 293.830   2
   5   0   2 2389.03 324.122   6
  -5   0  -3 3110.66 228.922   2
  -5   0  -3 3210.27 341.829   2
   5   0   3 3184.50 380.592   6
  -5   0  -4 17174.6 553.737   2
   5   0   4 18346.3 1025.83   6
   5   0   5 1284.63 260.958   6
  -5   0  -5 1502.94 179.455   2
   5   0   6 1196.13 252.924   6
  -5   0  -6 1183.92 170.673   2
   5   0   7-12.1880 58.3433   6
  -5   0  -7 73.9598 38.5780   2
   5   0   8 690.766 194.567   6
  -5   0  -8 1199.09 204.224   2
   5   0   9 203.969 109.468   6
  -5   0  -9 283.755 103.519   2
   5   0  10 857.592 286.314   6
  -5   0 -10 448.573 138.369   2
   5   0  11-116.660 130.722   6
  -5   0 -11-7.88400 22.1355   2
   5   0  12 362.221 153.846   6
   5   1  -9 594.827 246.793   2
   5   1  -8 377.948 196.974   2
   5   1  -7-73.7816 84.3040   2
  -5  -1   6 94.6829 49.9143   4
   5   1  -6 97.1686 94.9555   2
   5   1  -5 1085.15 311.170   2
   5   1  -4 3388.53 505.739   2
  -5  -1   3 1027.77 222.012   5
   5   1  -3 1076.56 263.713   2
   5   1  -2 839.036 215.610   2
  -5  -1   1 13814.2 656.827   2
  -5  -1   0 4110.18 345.128   2
  -5  -1  -1 1428.31 190.945   2
  -5  -1  -2 1516.24 190.104   2
   5   1   2 1235.55 167.802   1
  -5  -1  -3 7903.05 424.289   2
  -5  -1  -4 2153.78 217.174   2
  -5  -1  -5 255.939 80.4131   2
   5   1   5 217.964 113.504   6
   5   1   6 224.292 108.551   6
  -5  -1  -6 138.409 61.7806   2
   5   1   7 332.517 142.915   6
  -5  -1  -7 327.220 99.6268   2
   5   1   8 324.578 134.722   6
  -5  -1  -8 261.116 97.1865   2
  -5  -1  -9 559.253 154.555   2
   5   1   9 633.527 188.582   6
   5   1  10 120.889 82.7840   6
  -5  -1 -10-14.4391 26.1600   2
   5   1  11 667.724 242.787   6
  -5  -1 -11 581.147 175.431   2
  -5  -1 -12 401.455 159.471   2
   5   2  -9 533.705 273.375   2
   5   2  -8 54.9045 53.5138   2
   5   2  -7-38.2143 65.4724   2
   5   2  -6 2509.29 508.687   2
   5   2  -5 201.044 129.567   2
   5   2  -4 12702.7 998.631   2
  -5  -2   3-85.5924 63.6575   5
   5   2  -3-77.2426 72.7523   2
   5   2  -2 5478.91 600.201   2
  -5  -2   1 295.720 102.429   2
  -5  -2   0 2544.83 290.480   2
   5   2   1 329.237 69.8943   1
  -5  -2  -1 385.541 107.300   2
  -5  -2  -2 6450.45 429.046   2
   5   2   2 6014.54 348.113   1
  -5  -2  -3 57.2605 44.8546   2
  -5  -2  -4 841.303 147.773   2
  -5  -2  -5 3488.16 310.245   2
  -5  -2  -6 1017.70 174.744   2
  -5  -2  -7 745.787 162.343   2
   5   2   7 749.035 196.042   6
   5   2   8 6862.05 604.323   6
  -5  -2  -8 6879.08 518.020   2
   5   2   9 9.57608 63.2325   6
  -5  -2  -9-56.4949 51.2825   2
  -5  -2 -10 2284.40 343.716   2
   5   2  10 2959.59 430.387   6
   5   2  11-12.4966 52.6740   6
  -5  -2 -11-192.513 104.615   2
  -5  -2 -12 16.9141 33.4554   2
  -5  -2 -13-138.283 102.222   2
   5   3  -8 26.6300 58.1049   2
   5   3  -7 809.402 312.561   2
   5   3  -6 311.892 180.950   2
   5   3  -5 392.711 186.889   2
   5   3  -4 7410.65 779.130   2
   5   3  -3 320.617 166.446   2
  -5  -3   2 66.2969 54.2677   2
  -5  -3   1 6445.35 511.421   2
  -5  -3   0 430.515 126.113   2
  -5  -3  -1 3617.13 355.051   2
  -5  -3  -2 2.78171 11.6643   2
  -5  -3  -3 20434.0 805.458   2
  -5  -3  -4 1603.34 224.585   2
  -5  -3  -5 1147.48 191.259   2
  -5  -3  -6 156.586 72.1013   2
  -5  -3  -7 49.2939 28.5344   2
  -5  -3  -8 98.7835 64.1433   2
  -5  -3  -9 351.415 125.792   2
   5   3   9 253.793 126.722   6
   5   3  10-28.4799 43.4105   6
  -5  -3 -10 92.9626 80.1955   2
   5   3  11 1120.93 266.581   6
  -5  -3 -11 1332.21 291.825   2
  -5  -3 -12 429.421 165.256   2
   5   4  -8 3135.94 645.509   2
   5   4  -7 274.702 175.415   2
   5   4  -6 3227.12 593.038   2
   5   4  -5 749.871 270.848   2
   5   4  -4 211.346 119.114   2
  -5  -4   4 164.365 84.4859   2
  -5  -4   3 1126.64 238.966   2
  -5  -4   2 1444.09 264.920   2
  -5  -4   1 273.137 108.503   2
  -5  -4   0 7738.72 565.308   2
  -5  -4  -1 3290.05 357.754   2
  -5  -4  -2 1842.83 264.644   2
  -5  -4  -3 233.540 85.9410   2
  -5  -4  -4 1862.73 259.211   2
  -5  -4  -5 17.3673 34.5566   2
  -5  -4  -6 882.212 187.474   2
  -5  -4  -7 430.563 131.127   2
  -5  -4  -8 1951.99 305.332   2
  -5  -4  -9 788.641 200.092   2
  -5  -4 -10 1030.99 244.603   2
   5   4  10 606.617 187.729   6
   5   4  11 75.8781 93.1849   6
  -5  -4 -11 225.294 108.081   2
  -5  -4 -12 1043.94 281.803   2
   5   5  -7 32.6503 99.5877   2
   5   5  -6 284.709 180.013   2
  -5  -5   6 3.64647 60.1860   2
  -5  -5   5 699.909 212.520   2
  -5  -5   4 75.0335 63.0872   2
  -5  -5   3 5543.16 565.664   2
  -5  -5   2-124.900 80.8954   2
  -5  -5   1 4206.98 451.624   2
  -5  -5   0 1069.37 223.270   2
  -5  -5  -1 1577.41 266.561   2
  -5  -5  -2 182.752 84.8113   2
  -5  -5  -3 1497.98 251.683   2
  -5  -5  -4 13.0722 12.4388   2
  -5  -5  -5 833.990 183.491   2
  -5  -5  -6 278.941 111.115   2
  -5  -5  -7 5134.52 485.995   2
  -5  -5  -8 455.004 145.680   2
  -5  -5  -9 492.568 165.690   2
  -5  -5 -10 133.570 77.5646   2
  -5  -5 -11 319.075 138.064   2
  -5  -6   6 867.801 255.110   2
  -5  -6   5 310.543 147.833   2
  -5  -6   4 2037.09 369.857   2
  -5  -6   3 56.4872 61.2723   2
  -5  -6   2 635.926 193.325   2
  -5  -6   1 291.015 116.577   2
  -5  -6   0 294.372 125.684   2
  -5  -6  -1-37.6111 48.5226   2
  -5  -6  -2 4262.65 449.415   2
  -5  -6  -3-38.0248 42.6188   2
  -5  -6  -4 56.3656 52.5369   2
  -5  -6  -5 756.450 184.622   2
  -5  -6  -6 90.4670 64.9888   2
  -5  -6  -7 383.288 140.406   2
  -5  -6  -8 214.251 113.764   2
  -5  -6  -9-72.2567 65.5966   2
  -5  -6 -10 546.579 194.423   2
  -5  -7   5 536.454 210.421   2
  -5  -7   4 142.988 99.2171   2
  -5  -7   3-161.053 101.461   2
  -5  -7   2 1.47348 55.6437   2
  -5  -7   1-14.4883 29.2649   2
  -5  -7   0-3.04309 15.5316   2
  -5  -7  -1 720.442 201.148   2
  -5  -7  -2 155.682 92.5656   2
  -5  -7  -3 287.905 119.017   2
  -5  -7  -4 1159.00 241.076   2
  -5  -7  -5 549.259 168.174   2
  -5  -7  -6 327.752 128.861   2
  -5  -7  -7 1406.35 281.631   2
  -5  -7  -8 64.5825 72.4107   2
  -5  -7  -9-108.154 84.4047   2
  -5  -8   3 217.367 121.515   2
  -5  -8   2 1358.31 305.851   2
  -5  -8   1 1146.46 270.684   2
  -5  -8   0 1421.99 294.412   2
  -5  -8  -1 580.907 184.613   2
  -5  -8  -2 1895.26 329.832   2
  -5  -8  -3 67.0244 60.4596   2
  -5  -8  -4-78.0821 65.9904   2
  -5  -8  -5 1189.21 259.416   2
  -5  -8  -6 281.805 121.714   2
  -5  -8  -7 87.4690 96.0397   2
  -5  -8  -8 30.9680 17.7226   2
  -5  -9   1 289.046 127.332   2
  -5  -9   0 226.956 121.253   2
  -5  -9  -1 109.052 82.9315   2
  -5  -9  -2 8.30634 23.5320   2
  -5  -9  -3 112.415 81.3562   2
  -5  -9  -4 391.090 151.219   2
  -5  -9  -5 473.746 173.939   2
  -6   7   1 878.862 248.792   3
  -6   6   2 678.980 213.326   3
  -6   6   1 96.5199 78.2783   3
  -6   6   0 1305.43 302.687   4
  -6   6   0 1008.80 260.400   3
  -6   6  -1 138.616 98.2564   4
  -6   6  -1 26.8571 43.5044   3
  -6   6  -2 163.099 106.336   4
  -6   6  -2 203.916 118.796   3
  -6   6  -2 114.976 101.203   1
  -6   6  -3 94.2625 76.6173   4
  -6   6  -3 229.590 136.448   1
  -6   6  -4 1795.91 350.075   4
  -6   5   4 481.705 186.033   4
  -6   5   3 7762.28 728.628   4
  -6   5   3 6672.71 535.734   3
  -6   5   2 159.447 94.3577   4
  -6   5   2 150.796 79.0691   3
  -6   5   1 760.126 226.846   4
  -6   5   1 625.320 180.434   3
  -6   5   0-82.1057 73.0843   4
  -6   5   0-56.5477 58.2863   3
  -6   5  -1 60.5358 72.3958   4
  -6   5  -1-1.13708 56.1343   3
  -6   5  -1-121.844 90.8222   1
  -6   5  -2 80.4596 71.1723   4
  -6   5  -2 0.79356 12.2365   3
  -6   5  -2-20.3085 71.5043   1
  -6   5  -3-34.9701 46.9133   4
  -6   5  -3 34.5428 49.4750   3
  -6   5  -3 22.5927 41.2409   1
  -6   5  -4 124.378 87.6251   4
  -6   5  -4 12.6911 30.1309   3
  -6   5  -5 267.112 126.299   4
  -6   5  -5 396.624 185.552   3
  -6   5  -5 223.861 137.948   1
  -6   5  -6 8.05447 23.0720   4
  -6   5  -7 207.396 113.495   4
  -6   4   5 21.1121 37.7280   4
  -6   4   4 9197.31 754.163   4
  -6   4   3 770.779 218.496   4
  -6   4   2 45458.1 1649.44   4
   6  -4  -2 46952.9 1610.94   6
   6  -4  -1 72.3312 61.6368   6
  -6   4   1 153.399 91.6616   4
   6  -4   0 627.514 198.073   6
  -6   4   0 722.148 201.146   4
   6  -4   1 66.2765 79.3789   6
  -6   4  -1 0.68347 34.3421   4
  -6   4  -1 55.6793 43.5208   1
  -6   4  -2 5721.75 563.119   4
  -6   4  -2 6137.57 599.659   1
   6  -4   2 5965.34 622.398   6
   6  -4   3 795.413 243.466   6
  -6   4  -3 478.987 168.189   1
  -6   4  -3 567.146 177.076   4
   6  -4   4 848.088 249.509   6
  -6   4  -4 807.341 211.906   4
  -6   4  -4 491.878 167.144   1
  -6   4  -5 171.511 107.779   1
   6  -4   5 79.9621 96.1962   6
  -6   4  -5 123.418 68.7623   4
   6  -4   6 83.8126 81.7836   6
  -6   4  -6 91.8899 76.6519   1
  -6   4  -6 35.6779 34.2332   4
  -6   4  -7 324.316 157.960   1
  -6   4  -7 129.641 84.6746   4
  -6   4  -8 987.857 236.108   4
   6  -3  -8 64.0217 80.2964   2
   6  -3  -7 575.063 233.679   2
  -6   3   6-8.20022 23.2697   4
   6  -3  -6 273.795 144.760   2
  -6   3   5 42.1285 48.6877   4
   6  -3  -5 76.9609 73.5942   2
  -6   3   4 330.922 135.320   4
   6  -3  -4 227.927 134.125   2
  -6   3   3 5674.08 560.027   4
   6  -3  -3 6170.24 542.618   6
   6  -3  -2-18.2001 38.4635   6
  -6   3   2 40.0386 13.3824   4
   6  -3  -1 118.105 125.348   6
  -6   3   1 26.7487 33.3994   4
   6  -3   0 88.3402 38.7058   6
  -6   3   0 120.974 78.2833   4
  -6   3   0 55.1639 69.7731   1
   6  -3   1 178.054 210.267   6
  -6   3  -1 49.1468 28.3584   4
  -6   3  -1 193.020 96.3509   1
   6  -3   2 1164.16 415.940   6
  -6   3  -2 657.468 174.489   1
  -6   3  -3 14217.9 854.884   1
   6  -3   3 30335.4 2064.08   6
  -6   3  -4-65.4542 61.5036   1
   6  -3   4-90.7403 102.884   6
  -6   3  -5 1015.19 247.361   1
   6  -3   5 1544.31 368.406   6
   6  -3   6 592.577 215.468   6
  -6   3  -6 502.860 177.666   1
   6  -3   7 4045.21 561.652   6
   6  -3   8 540.758 204.383   6
   6  -3   9 1290.30 336.639   6
   6  -2  -8 939.952 303.946   2
  -6   2   7 303.128 125.891   4
   6  -2  -7 445.923 194.178   2
  -6   2   6 2550.52 360.677   4
   6  -2  -6 3383.55 540.508   2
  -6   2   5 265.090 121.014   4
   6  -2  -5 55.2742 65.5807   2
   6  -2  -4 40.3326 59.7534   6
  -6   2   4 570.662 165.430   4
   6  -2  -4 579.564 202.848   2
  -6   2   3 447.842 144.046   4
   6  -2  -3 824.648 218.703   2
   6  -2  -3 965.132 228.193   6
   6  -2  -2 119.181 75.1957   6
  -6   2   2 132.632 80.9168   4
   6  -2  -2 243.420 117.336   2
   6  -2  -1 130.902 76.1924   6
  -6   2   1 119.351 56.0879   2
  -6   2   1 121.281 55.1538   1
   6  -2   0 596.227 162.648   6
  -6   2   0 685.844 114.095   2
  -6   2   0 641.380 149.669   1
  -6   2  -1 57.5813 51.6285   1
  -6   2  -1 20.3766 21.2175   2
   6  -2   2 314.659 125.717   6
  -6   2  -2 340.808 116.614   1
   6  -2   3 53.0151 44.7640   6
  -6   2  -3 57.4281 61.8972   1
   6  -2   4 574.301 200.453   6
  -6   2  -4 762.126 189.401   1
   6  -2   5 616.949 227.358   6
   6  -2   6 5946.26 835.020   6
   6  -2   7 28.3538 179.336   6
   6  -2   8 207.358 176.810   6
   6  -2   9 236.758 140.955   6
   6  -2  10-30.0085 22.4118   6
   6  -1  -8 82.4798 94.0398   2
   6  -1  -7 2025.21 444.695   2
  -6   1   6 102.109 70.3174   4
   6  -1  -6-118.408 102.560   2
  -6   1   5 7131.58 561.880   4
   6  -1  -5 8045.91 854.919   2
   6  -1  -4-95.3375 63.6767   6
  -6   1   4-8.37446 28.9726   4
   6  -1  -4 16.2385 37.0148   2
   6  -1  -3 7060.02 676.941   2
   6  -1  -3 7806.18 569.890   6
  -6   1   2 195.300 61.7181   1
   6  -1  -2 137.660 74.3950   6
   6  -1  -2 217.283 81.0701   2
  -6   1   1 17112.5 622.014   1
  -6   1   1 16730.0 719.806   2
   6  -1  -1 17218.2 900.786   6
  -6   1   0 2120.21 237.721   1
  -6   1   0 2215.23 237.959   2
   6  -1   0 2095.90 323.222   6
  -6   1  -1 6071.03 354.337   2
  -6   1  -1 6142.93 435.091   1
  -6   1  -1 5704.82 410.410   2
   6  -1   1 6106.80 566.362   6
   6  -1   2 140.574 92.5729   6
  -6   1  -2 129.195 46.4313   2
  -6   1  -2 180.955 77.0189   1
  -6   1  -3 504.223 85.2399   2
   6  -1   3 551.239 173.163   6
   6  -1   4 344.583 138.026   6
  -6   1  -4 474.094 85.0365   2
  -6   1  -5 6488.31 333.665   2
   6  -1   5 6074.84 592.850   6
   6  -1   6 871.236 213.348   6
   6  -1   7 573.871 201.161   6
   6  -1   8 56.4284 57.3080   6
   6  -1   9 388.086 230.715   6
   6  -1  10 422.376 250.241   6
   6  -1  11 14.0478 37.1675   6
   6   0  -8 1469.03 424.994   2
   6   0  -7 103.328 113.672   2
  -6   0   6 2710.22 327.853   4
   6   0  -6 2898.30 556.844   2
  -6   0   5 19.7194 29.3628   4
   6   0  -5-261.227 153.654   2
   6   0  -4 1450.34 334.947   2
   6   0  -4 1504.07 245.180   6
   6   0  -3 62.2066 53.1635   6
   6   0  -3 20.2121 43.3975   2
   6   0  -2 7599.44 697.053   2
   6   0  -2 8025.06 588.939   6
   6   0  -1 69.2913 62.0153   6
  -6   0   1 157.186 72.3979   2
  -6   0   0 11583.0 594.870   2
   6   0   0 11602.9 738.556   6
   6   0   1 47.4292 40.1000   6
  -6   0  -1 26.8849 27.4745   2
  -6   0  -2 1204.52 170.446   2
   6   0   2 1235.17 251.197   6
  -6   0  -3 2639.15 235.344   2
   6   0   3 2808.44 415.131   6
  -6   0  -4 68643.9 1176.51   2
   6   0   4 70148.9 2038.27   6
   6   0   5 11588.2 821.986   6
  -6   0  -5 11535.2 505.234   2
   6   0   6 26287.9 1300.30   6
  -6   0  -6 26904.0 821.478   2
   6   0   7 83.7339 62.0692   6
  -6   0  -7 155.599 66.7478   2
  -6   0  -8 2108.77 268.069   2
   6   0   8 3460.07 465.881   6
   6   0   9 979.225 248.625   6
   6   0  10 2151.65 425.277   6
   6   0  11 118.148 145.679   6
   6   0  12 71.5331 82.5919   6
   6   1  -8 464.211 262.239   2
   6   1  -7 26.1023 33.4911   2
   6   1  -6 25.9454 52.0355   2
   6   1  -5 15.4677 56.9275   2
   6   1  -4 73.4918 20.5150   2
   6   1  -3-26.0020 43.7110   2
  -6  -1   2 118.768 64.3231   2
  -6  -1   1-1.38389 9.99841   2
  -6  -1   0 102.030 60.6454   2
  -6  -1  -1 4307.78 365.323   2
  -6  -1  -2-0.68667 6.24848   2
  -6  -1  -3 821.230 146.883   2
  -6  -1  -4 353.592 92.4134   2
   6   1   4 320.152 133.065   6
  -6  -1  -5 13283.4 590.067   2
   6   1   5 12855.5 859.117   6
   6   1   6 197.718 108.331   6
  -6  -1  -6 186.558 72.8940   2
   6   1   7 302.680 143.044   6
  -6  -1  -7 321.310 100.804   2
   6   1   8 362.545 163.972   6
  -6  -1  -8 337.808 108.770   2
  -6  -1  -9 3478.83 388.941   2
   6   1   9 2637.95 423.277   6
   6   1  10 873.529 252.653   6
  -6  -1 -10 1285.23 247.370   2
   6   1  11 1626.90 354.740   6
   6   1  12 40.4462 88.8171   6
   6   2  -7 313.391 189.067   2
   6   2  -6 54.1767 65.7317   2
   6   2  -5-73.6818 83.6672   2
   6   2  -4 45238.3 2002.39   2
   6   2  -3 7681.49 805.181   2
  -6  -2   2 8304.53 617.301   2
  -6  -2   1 1195.01 224.459   2
  -6  -2   0 1933.20 272.950   2
  -6  -2  -1 236.867 93.2968   2
  -6  -2  -2 4397.24 382.781   2
   6   2   2 3934.46 301.747   1
  -6  -2  -3 894.168 169.815   2
  -6  -2  -4 519.809 125.954   2
  -6  -2  -5 890.212 165.228   2
  -6  -2  -6 1370.59 211.265   2
  -6  -2  -7 10.3541 30.8643   2
   6   2   7 8.76935 22.1451   6
   6   2   8 1897.42 353.192   6
  -6  -2  -8 1861.02 275.735   2
   6   2   9 75.7403 84.0111   6
  -6  -2  -9 16.4984 32.2363   2
   6   2  10 111.191 114.488   6
  -6  -2 -10 347.290 135.040   2
  -6  -2 -11-8.29450 21.8918   2
   6   2  11 40.6617 80.0718   6
   6   2  12 73.1372 69.0925   6
  -6  -2 -12 40.3547 50.0135   2
   6   3  -7 3.69610 59.9408   2
   6   3  -6 315.768 171.604   2
   6   3  -5 8510.51 932.463   2
   6   3  -4 454.216 213.220   2
  -6  -3   3 43424.4 1518.94   2
  -6  -3   2 696.003 190.927   2
  -6  -3   1 2136.27 314.785   2
  -6  -3   0 196.108 95.4777   2
  -6  -3  -1 18288.3 859.190   2
   6   3   1 18075.2 535.236   1
  -6  -3  -2 4604.74 422.279   2
   6   3   2 4836.38 324.302   1
  -6  -3  -3 2271.18 294.782   2
  -6  -3  -4 1300.90 212.827   2
  -6  -3  -5 1560.13 235.491   2
  -6  -3  -6 3802.29 374.724   2
  -6  -3  -7 7435.56 544.114   2
  -6  -3  -8 542.259 159.283   2
   6   3   9 122.980 88.4619   6
  -6  -3  -9-22.5632 39.1435   2
   6   3  10-134.090 103.354   6
  -6  -3 -10 26.6285 38.5725   2
   6   3  11 241.050 122.268   6
  -6  -3 -11 362.154 151.113   2
  -6  -3 -12 798.697 231.453   2
   6   4  -6 2363.04 549.746   2
  -6  -4   5 720.359 221.851   2
  -6  -4   4 250.709 124.480   2
  -6  -4   3 330.065 155.542   2
  -6  -4   2 54.5577 54.3430   2
  -6  -4   1 486.192 155.984   2
  -6  -4   0 1297.48 248.127   2
  -6  -4  -1 14.1514 10.7093   2
  -6  -4  -2 9964.86 656.693   2
  -6  -4  -3 109.057 70.7077   2
  -6  -4  -4 763.612 174.483   2
  -6  -4  -5 521.204 137.871   2
  -6  -4  -6 10640.0 659.272   2
  -6  -4  -7 1207.60 232.744   2
  -6  -4  -8 2671.26 366.617   2
  -6  -4  -9 35.2669 42.8200   2
  -6  -4 -10 61.9216 60.1699   2
   6   4  10 158.391 85.8222   6
  -6  -4 -11 6989.46 695.278   2
   6   4  11 7734.07 759.713   6
  -6  -5   6-85.2637 81.0311   2
  -6  -5   5 154.595 112.008   2
  -6  -5   4 1772.79 347.750   2
  -6  -5   3 241.705 125.553   2
  -6  -5   2 1812.21 334.710   2
  -6  -5   1 56.7703 77.7946   2
  -6  -5   0 21.4147 47.6080   2
  -6  -5  -1 436.930 150.754   2
  -6  -5  -2 773.527 192.170   2
  -6  -5  -3 50.0255 54.7202   2
  -6  -5  -4-10.0723 21.9494   2
  -6  -5  -5 1751.77 282.429   2
  -6  -5  -6 46.4452 48.5011   2
  -6  -5  -7 32.9761 23.0663   2
  -6  -5  -8-14.0365 26.9733   2
  -6  -5  -9 8.51030 54.7773   2
  -6  -5 -10 671.839 209.764   2
   6   5  11 3916.47 524.114   6
  -6  -5 -11 3396.11 493.356   2
  -6  -6   5 123.824 89.8843   2
  -6  -6   4 500.512 190.614   2
  -6  -6   3 1026.26 265.859   2
  -6  -6   2 13313.3 925.934   2
  -6  -6   1 1235.85 276.108   2
  -6  -6   0 9620.81 753.989   2
  -6  -6  -1-45.4086 50.3963   2
  -6  -6  -2 1852.51 319.217   2
  -6  -6  -3 9724.78 710.514   2
  -6  -6  -4 22343.9 1067.87   2
  -6  -6  -5 3057.94 396.216   2
  -6  -6  -6 455.557 155.316   2
  -6  -6  -7 95.4736 58.0915   2
  -6  -6  -8 20.1595 34.4303   2
  -6  -6  -9 235.651 121.251   2
  -6  -6 -10 544.749 190.358   2
  -6  -7   3 918.881 256.348   2
  -6  -7   2 245.103 128.466   2
  -6  -7   1 143.191 92.6049   2
  -6  -7   0 213.543 106.885   2
  -6  -7  -1 121.942 86.4717   2
  -6  -7  -2 529.218 178.496   2
  -6  -7  -3 27853.3 1273.78   2
  -6  -7  -4 5436.33 554.182   2
  -6  -7  -5 9644.12 737.114   2
  -6  -7  -6 745.175 211.695   2
  -6  -7  -7 2480.44 383.865   2
  -6  -7  -8 1686.06 333.005   2
  -6  -8   1-37.4916 50.8589   2
  -6  -8   0 9.96176 86.7371   2
  -6  -8  -1 238.884 123.377   2
  -6  -8  -2 404.514 165.127   2
  -6  -8  -3 66.1887 63.0362   2
  -6  -8  -4 4.42052 16.8032   2
  -6  -8  -5 388.645 155.318   2
  -6  -8  -6-35.2081 46.5350   2
  -7   5   2-30.8795 43.5284   3
  -7   5   1 1636.76 324.097   3
  -7   5   0 153.786 101.059   3
  -7   5   0 84.6329 65.7949   1
  -7   5  -1 91.5906 82.8923   1
  -7   5  -2-5.67308 20.1659   1
  -7   5  -3 282.235 121.461   1
  -7   5  -4-87.4531 83.3703   1
  -7   4   4 717.812 223.718   4
  -7   4   3 124.982 38.0948   4
  -7   4   2 1979.41 372.091   4
   7  -4  -2 1628.91 319.125   6
   7  -4  -1-13.7872 31.0714   6
  -7   4   1-12.8255 55.7696   4
   7  -4   0 29.2601 44.7937   6
  -7   4   0-53.0404 39.0117   4
  -7   4   0 6.68363 29.2237   1
  -7   4  -1-58.9249 59.1308   1
   7  -4   1 0.43300 66.6089   6
  -7   4  -1-66.1419 65.7830   4
   7  -4   2 471.331 187.133   6
  -7   4  -2 380.093 159.043   4
  -7   4  -2 481.565 170.465   1
   7  -4   3 86.0334 81.1217   6
  -7   4  -3 41.3409 51.3788   4
  -7   4  -3-1.18956 12.1545   1
   7  -4   4 885.080 269.298   6
  -7   4  -4 877.999 246.167   1
  -7   4  -4 988.273 253.183   4
  -7   4  -5-11.7695 30.9073   1
  -7   4  -5-9.48058 26.8924   4
  -7   4  -6 857.204 233.714   4
  -7   4  -6 782.048 237.814   1
  -7   4  -7 58.7819 23.7856   4
  -7   3   6 109.685 104.825   4
  -7   3   5 99.6927 70.2667   4
  -7   3   4-78.0501 70.3117   4
  -7   3   3 5407.97 588.787   4
  -7   3   2 1757.11 332.172   4
   7  -3  -2 2020.97 359.778   6
   7  -3  -1-17.2785 67.5347   6
  -7   3   1 31.1356 29.4582   4
  -7   3   0 19.7779 30.6875   1
  -7   3   0-19.8696 61.4229   4
   7  -3   1 881.828 439.305   6
  -7   3  -1 921.545 234.580   4
  -7   3  -1 935.344 214.049   1
   7  -3   2 41.6443 97.2597   6
  -7   3  -2 221.072 106.855   1
   7  -3   3 51.3074 93.9524   6
  -7   3  -3 21.3331 50.0536   1
   7  -3   4 72.9210 99.8930   6
  -7   3  -4 134.198 69.6256   1
   7  -3   5 98.0222 98.4617   6
  -7   3  -5 84.0293 35.5925   1
   7  -3   6 5.66564 32.5099   6
   7  -2  -7 41.6213 140.779   2
  -7   2   6 104.062 77.7981   4
   7  -2  -6 109.408 103.982   2
  -7   2   5 84.0656 69.6108   4
   7  -2  -5 18.0178 39.7939   2
  -7   2   4 1468.59 293.805   4
   7  -2  -3-9.83619 27.7327   6
  -7   2   3 118.369 89.3305   4
   7  -2  -2 171.176 70.7908   6
  -7   2   2 85.6809 60.4805   4
   7  -2  -1 655.578 204.540   6
  -7   2   0 1312.03 220.585   1
   7  -2   0 1311.62 284.408   6
   7  -2   1 1.13513 61.0125   6
  -7   2  -1-7.55106 35.8374   1
  -7   2  -2 6344.42 538.431   1
   7  -2   2 5757.85 617.785   6
  -7   2  -3 1.17225 44.5168   1
   7  -2   3 77.1175 82.3618   6
   7  -2   4 2359.73 429.498   6
   7  -2   5-25.4570 61.7262   6
   7  -2   6 108.949 89.2791   6
   7  -2   7 141.462 116.684   6
   7  -2   8 28.4832 77.6301   6
   7  -1  -7-130.449 122.792   2
  -7   1   6 38.5411 45.5245   4
   7  -1  -6 219.678 149.713   2
  -7   1   5 598.435 183.613   4
   7  -1  -5 778.801 270.689   2
  -7   1   4 300.167 128.574   4
   7  -1  -4 416.627 189.310   2
  -7   1   3 3428.78 424.832   4
   7  -1  -3 3782.80 531.618   2
   7  -1  -3 3878.30 432.322   6
   7  -1  -2 128.384 81.1822   6
  -7   1   2 79.7061 55.6745   2
   7  -1  -1 151.760 83.9300   6
  -7   1   1 58.1686 44.4227   2
   7  -1   0 48.7416 19.6789   6
  -7   1   0 105.155 54.1666   2
   7  -1   1 1141.30 264.321   6
   7  -1   2 124.592 80.2165   6
   7  -1   3 1183.07 279.128   6
   7  -1   4 130.019 103.806   6
   7  -1   5 2605.24 406.685   6
   7  -1   6 15.1363 32.4243   6
   7  -1   7 46.7771 60.1531   6
   7  -1   8 70.0388 70.7870   6
   7  -1   9 1649.86 479.622   6
   7   0  -7-23.8808 56.5535   2
   7   0  -6 3325.25 593.313   2
  -7   0   5 522.593 158.452   4
   7   0  -5 930.356 296.493   2
   7   0  -4 1935.03 413.467   2
   7   0  -4 1916.39 302.956   6
   7   0  -3 46.6307 43.4203   6
   7   0  -3-137.273 104.896   2
   7   0  -2 273.662 123.985   6
  -7   0   2 185.898 95.3572   2
   7   0  -1 95.0903 74.1494   6
  -7   0   1 24.5026 25.9994   2
   7   0   0 754.521 219.874   6
  -7   0   0 407.564 118.470   2
   7   0   1 233.150 131.647   6
  -7   0  -1 174.334 74.0758   2
   7   0   2 726.707 229.436   6
  -7   0  -2 748.482 141.298   2
   7   0   3 504.066 183.501   6
  -7   0  -3 545.109 115.002   2
   7   0   4 100.063 78.3808   6
  -7   0  -4 19.5773 26.8058   2
   7   0   5 258.757 130.300   6
   7   0   6 4363.73 566.951   6
   7   0   7 2970.94 472.379   6
   7   0   8 179.962 105.128   6
   7   0   9-185.058 114.814   6
   7   0  10 477.020 223.179   6
   7   1  -7-190.298 153.279   2
   7   1  -6-50.4957 75.2644   2
   7   1  -5 164.394 154.528   2
   7   1  -4 147.987 144.277   2
   7   1  -4 108.396 68.0915   6
  -7  -1   3-88.3987 66.4364   2
  -7  -1   2 582.870 167.691   2
  -7  -1   1 10.8955 45.3491   2
  -7  -1   0 82.3353 43.3019   2
  -7  -1  -1 8937.04 567.628   2
   7   1   1 8415.46 690.473   6
  -7  -1  -2 594.138 136.413   2
   7   1   2 670.641 200.030   6
  -7  -1  -3 1224.97 194.962   2
   7   1   3 929.803 236.075   6
   7   1   4 797.297 228.771   6
  -7  -1  -4 1024.35 171.116   2
   7   1   5 741.605 221.539   6
  -7  -1  -5 1022.89 168.864   2
   7   1   6 240.871 141.534   6
  -7  -1  -6 268.178 88.5016   2
   7   1   7-17.3093 37.0826   6
  -7  -1  -7 195.553 80.3459   2
   7   1   8-138.308 103.141   6
   7   1   9 121.350 116.626   6
   7   1  10 25.3691 37.5046   6
   7   1  11 198.571 125.732   6
   7   2  -6 23.4546 51.6539   2
   7   2  -5-224.505 156.963   2
  -7  -2   4 2797.24 407.091   2
   7   2  -4 3485.11 608.730   2
  -7  -2   3 302.051 143.288   2
  -7  -2   2 1964.93 324.770   2
  -7  -2   1 275.787 114.240   2
  -7  -2   0 735.922 181.067   2
  -7  -2  -1-25.0799 32.0892   2
  -7  -2  -2 36.1183 20.8854   2
  -7  -2  -3 228.877 86.4704   2
  -7  -2  -4 1661.94 239.460   2
  -7  -2  -5 12.3825 28.4609   2
  -7  -2  -6 384.903 115.756   2
   7   2   6 352.071 141.059   6
   7   2   7 709.827 223.126   6
  -7  -2  -7 773.712 172.727   2
   7   2   8 44.6725 24.1488   6
  -7  -2  -8 124.613 71.4890   2
   7   2   9 494.284 193.109   6
  -7  -2  -9 638.273 177.381   2
   7   2  10 445.150 197.369   6
  -7  -2 -10 806.748 211.544   2
   7   2  11 170.542 117.296   6
   7   3  -6-174.583 24.4592   2
  -7  -3   5 1399.48 314.878   2
  -7  -3   4 186.191 110.443   2
  -7  -3   3 78.0255 86.4874   2
  -7  -3   2 2465.21 376.979   2
  -7  -3   1 373.156 138.186   2
  -7  -3   0 31.4425 38.6800   2
  -7  -3  -1 1600.92 273.300   2
  -7  -3  -2 6.60744 43.5575   2
  -7  -3  -3 279.766 107.723   2
  -7  -3  -4 34.6373 42.7805   2
  -7  -3  -5 4859.42 434.529   2
  -7  -3  -6 135.689 63.9526   2
  -7  -3  -7 1392.45 238.444   2
  -7  -3  -8 27.5951 30.3217   2
   7   3   8-110.538 89.9462   6
   7   3   9-3.75817 51.0336   6
  -7  -3  -9-43.9641 47.1855   2
   7   3  10-169.874 128.123   6
  -7  -3 -10-100.300 75.4777   2
   7   3  11 22.7700 55.7169   6
  -7  -3 -11 23.4081 60.3627   2
  -7  -4   5 250.561 130.770   2
  -7  -4   4 3987.49 533.722   2
  -7  -4   3 862.260 242.115   2
  -7  -4   2 13.9591 37.9775   2
  -7  -4   1 1149.38 255.274   2
  -7  -4   0 2278.14 350.618   2
  -7  -4  -1 561.896 170.678   2
  -7  -4  -2 943.188 215.315   2
  -7  -4  -3 1723.61 283.720   2
  -7  -4  -4 202.925 86.7993   2
  -7  -4  -5 698.528 175.735   2
  -7  -4  -6 202.753 94.5128   2
  -7  -4  -7 28.4080 39.4452   2
  -7  -4  -8 281.300 118.804   2
  -7  -4  -9 79.8826 77.2845   2
   7   4   9 185.821 125.627   6
  -7  -4 -10 306.719 128.831   2
   7   4  10 108.509 117.291   6
   7   4  11 248.456 149.731   6
  -7  -4 -11 266.173 134.103   2
  -7  -5   4 95.5494 99.5544   2
  -7  -5   3 484.292 181.152   2
  -7  -5   2 804.774 221.600   2
  -7  -5   1 2564.37 401.297   2
  -7  -5   0 119.892 61.7861   2
  -7  -5  -1 2179.17 350.231   2
  -7  -5  -2 257.679 118.002   2
  -7  -5  -3 1470.68 276.901   2
  -7  -5  -4 159.672 88.7662   2
  -7  -5  -5 126.226 77.5584   2
  -7  -5  -6 144.393 93.1883   2
  -7  -5  -7-129.100 81.8239   2
  -7  -5  -8 617.844 175.607   2
  -7  -5  -9 1388.32 293.954   2
  -7  -5 -10-62.9119 64.5455   2
   7   5  11 135.131 106.839   6
  -7  -6   3 978.909 264.780   2
  -7  -6   2 223.378 127.358   2
  -7  -6   1 241.685 126.159   2
  -7  -6   0 278.157 132.318   2
  -7  -6  -1-1.49531 27.3034   2
  -7  -6  -2 144.437 92.2199   2
  -7  -6  -3-113.050 80.4903   2
  -7  -6  -4 3625.61 448.972   2
  -7  -6  -5 26.0885 39.1427   2
  -7  -6  -6 171.275 96.3659   2
  -7  -6  -7 100.427 75.2856   2
  -7  -6  -8 281.301 135.367   2
  -7  -6  -9 177.353 109.183   2
  -7  -7   1 365.212 161.719   2
  -7  -7   0 150.096 109.249   2
  -7  -7  -1-42.7340 53.6804   2
  -7  -7  -2 235.774 136.013   2
  -7  -7  -3 109.986 66.4408   2
  -7  -7  -4 137.585 84.8748   2
  -7  -7  -5 46.5006 23.7917   2
  -7  -7  -6 6.69249 17.7618   2
  -7  -7  -7 408.282 163.800   2
   8  -4  -1 878.808 263.318   6
   8  -4   0 10788.8 911.881   6
   8  -4   1-26.9251 47.5157   6
  -8   4  -3 80.6513 76.4777   1
  -8   4  -4 2240.27 406.356   1
   8  -3  -1 5219.96 675.729   6
   8  -3   0-195.917 156.716   6
  -8   3   0 64.0094 82.6714   4
   8  -3   1 97.2027 92.0179   6
  -8   3  -1 49.2742 41.6241   4
   8  -3   2 161.121 166.825   6
  -8   3  -2 43.0629 54.0045   4
   8  -3   3 574.683 236.256   6
  -8   3  -3 514.560 173.669   1
  -8   2   5 324.271 147.922   4
  -8   2   4 1550.21 326.178   4
  -8   2   3 340.113 145.483   4
   8  -2  -2 144.247 113.483   6
  -8   2   2-44.0999 87.7439   4
   8  -2  -1 472.532 214.880   6
  -8   2   1 511.613 180.640   4
   8  -2   0 221.192 138.027   6
   8  -2   1 93.6023 86.3499   6
   8  -2   2 305.316 180.156   6
   8  -2   3-100.909 94.0258   6
   8  -2   4 62.7923 80.1904   6
   8  -2   5-215.678 155.265   6
  -8   1   5 2214.66 369.249   4
  -8   1   4 359.688 150.463   4
  -8   1   3 1879.16 342.386   4
   8  -1  -2 109.778 78.8893   6
   8  -1  -1 1252.48 285.248   6
   8  -1   0 469.526 178.029   6
   8  -1   1 7733.96 737.239   6
   8  -1   2 462.791 181.298   6
   8  -1   3 640.391 217.912   6
   8  -1   4 59.6988 34.7600   6
   8  -1   5 1105.53 273.625   6
   8  -1   6 917.528 259.952   6
   8   0  -6 528.087 237.246   2
   8   0  -5-94.6964 101.404   2
  -8   0   4 3176.02 423.317   4
  -8   0   4 3421.25 445.510   2
   8   0  -3 60.5128 50.8548   6
  -8   0   3-2.02802 11.1607   2
   8   0  -2 305.556 135.609   6
  -8   0   2 284.027 119.486   2
   8   0  -1-31.9094 45.2307   6
  -8   0   1-60.9005 51.3974   2
   8   0   0 5110.19 600.051   6
   8   0   1 337.442 153.051   6
   8   0   2 2429.05 417.376   6
   8   0   3-176.438 112.874   6
   8   0   4 12.7593 32.1858   6
   8   0   5 3629.12 546.575   6
   8   0   6 23967.3 1397.43   6
   8   0   7 3118.13 513.450   6
  -8  -1   5 159.101 102.402   2
  -8  -1   4 129.012 90.3518   2
   8   1  -3 307.641 127.147   6
  -8  -1   3 270.061 120.895   2
   8   1  -2 50.0436 55.3413   6
  -8  -1   2 116.731 75.1547   2
  -8  -1   1 72.6642 61.6726   2
   8   1  -1-65.5511 65.1640   6
  -8  -1   0-70.6161 55.3121   2
   8   1   0-6.01972 52.8008   6
   8   1   1 162.087 103.719   6
  -8  -1  -1 146.880 76.3547   2
   8   1   2 63.2643 66.0392   6
  -8  -1  -2-38.4695 37.7573   2
   8   1   3-12.2666 30.9493   6
  -8  -1  -3 318.792 98.9536   2
   8   1   4 111.199 92.5407   6
   8   1   5 2382.60 475.118   6
   8   1   6 945.470 279.965   6
   8   1   7 3178.11 523.931   6
   8   1   8-5.99971 25.4257   6
  -8  -2   5 79.8363 76.3269   2
  -8  -2   4 803.801 231.903   2
  -8  -2   3 985.353 257.344   2
  -8  -2   2 25467.0 1240.97   2
  -8  -2   1 2543.69 368.238   2
  -8  -2   0 498.668 156.092   2
  -8  -2  -1 514.582 156.003   2
  -8  -2  -2 1133.13 224.990   2
  -8  -2  -3-12.3625 22.7335   2
  -8  -2  -4 834.549 178.822   2
   8   2   4 858.784 253.920   6
  -8  -2  -5 109.006 69.6250   2
   8   2   5 69.9810 86.6154   6
   8   2   6 24.2120 48.3159   6
  -8  -2  -6 33.5538 35.8601   2
   8   2   7 28.0618 51.7932   6
   8   2   8 274.187 170.078   6
   8   2   9 48.7576 65.3954   6
  -8  -3   4 69.8304 75.8514   2
  -8  -3   3 11427.7 893.424   2
  -8  -3   2 1391.58 298.576   2
  -8  -3   1 13298.2 890.990   2
  -8  -3   0 316.152 129.299   2
  -8  -3  -1 1563.11 286.568   2
  -8  -3  -2 387.360 137.421   2
  -8  -3  -3 6997.09 573.091   2
  -8  -3  -4 1516.90 258.613   2
  -8  -3  -5-49.1543 46.1177   2
  -8  -3  -6 445.126 134.404   2
  -8  -3  -7-28.9185 36.7162   2
   8   3   7 47.1814 29.8570   6
   8   3   8 1583.46 399.920   6
  -8  -3  -8 2254.23 341.851   2
   8   3   9 1918.71 416.687   6
  -8  -3  -9 1295.72 262.608   2
  -8  -4   3 169.336 109.305   2
  -8  -4   2 61.7166 84.3352   2
  -8  -4   1 160.141 103.643   2
  -8  -4   0 91.5260 17.1154   2
  -8  -4  -1 191.857 96.3808   2
  -8  -4  -2-10.9013 25.5211   2
  -8  -4  -3 597.949 175.082   2
  -8  -4  -4 2936.54 383.884   2
  -8  -4  -5 14.9272 27.3656   2
  -8  -4  -6 69.0067 52.3450   2
  -8  -4  -7 1266.83 251.388   2
  -8  -4  -8 4204.45 477.387   2
  -8  -4  -9 481.145 176.426   2
  -8  -4 -10 403.671 166.099   2
  -8  -5   2 923.764 267.428   2
  -8  -5   1 37.8927 66.5130   2
  -8  -5   0 1737.85 342.689   2
  -8  -5  -1-2.30250 30.4358   2
  -8  -5  -2-1.49185 37.5179   2
  -8  -5  -3 8.49846 24.0329   2
  -8  -5  -4 132.037 82.5494   2
  -8  -5  -5-79.9159 66.0842   2
  -8  -5  -6-4.95259 34.5809   2
  -8  -5  -7 541.453 171.183   2
  -8  -5  -8 38.5028 47.2339   2
  -8  -5  -9 70.5531 68.2011   2
  -8  -6   0 10176.2 853.917   2
  -8  -6  -1 400.137 156.916   2
  -8  -6  -2 1811.11 351.121   2
  -8  -6  -3 138.438 83.7414   2
  -8  -6  -4 3223.49 445.532   2
  -8  -6  -5 8655.64 729.550   2
  -8  -6  -6 6757.11 636.434   2
  -8  -6  -7 343.069 144.203   2
   9  -2  -1 242.167 178.130   6
   9  -2   0 245.628 168.191   6
   9  -1  -1 1336.55 286.007   6
   9  -1   0-174.258 108.726   6
   9  -1   1 535.229 191.882   6
   9  -1   2 58.5232 65.3328   6
   9   0  -1 362.196 165.633   6
   9   0   0 211.924 128.720   6
   9   0   1 9.07107 27.5927   6
   9   0   2-153.010 113.339   6
   9   0   3 1.60189 15.3603   6
   9   0   4 308.315 170.114   6
   9   1  -2 19.8344 44.5895   6
   9   1  -1 280.894 153.613   6
   9   1   0 288.398 154.139   6
   9   1   1-138.175 108.676   6
   9   1   2-26.3159 50.3783   6
   9   1   3 2301.76 479.417   6
   9   1   4 32.3578 56.1364   6
  -9  -2   3 161.852 106.728   2
  -9  -2   2 2590.13 404.672   2
   9   2  -2 3193.75 477.290   6
  -9  -2   1 377.893 146.510   2
   9   2  -1 307.452 153.637   6
  -9  -2   0 123.477 82.1344   2
   9   2   0-56.8288 65.8280   6
  -9  -2  -1 157.109 89.0091   2
   9   2   1 69.7253 73.0752   6
   9   2   2 44.6471 60.0623   6
   9   2   3-33.5258 52.3874   6
   9   2   4 275.627 142.086   6
   9   2   5 91.8836 91.0470   6
  -9  -3   2-182.769 112.177   2
  -9  -3   1 39.0507 50.1648   2
  -9  -3   0 537.135 157.759   2
  -9  -3  -1 59.9590 59.0578   2
  -9  -3  -2 88.5241 69.2331   2
  -9  -3  -3 586.130 167.664   2
  -9  -3  -4 36.4996 45.6145   2
  -9  -3  -5 42.3581 44.2017   2
   9   3   5 87.8294 87.3528   6
  -9  -4   1 487.412 174.419   2
  -9  -4   0-58.7301 62.5785   2
  -9  -4  -1 367.949 146.615   2
  -9  -4  -2 1381.12 294.813   2
  -9  -4  -3 206.349 105.647   2
  -9  -4  -4 30.3124 41.6058   2
  -9  -4  -5 417.603 147.752   2
  -9  -4  -6 37.3716 44.1759   2
  -9  -4  -7 316.383 127.335   2
  -9  -5  -1 463.790 193.753   2
  -9  -5  -2 141.011 95.9729   2
  -9  -5  -3 429.103 166.146   2
  -9  -5  -4-84.1067 71.1728   2
  -9  -5  -5 365.766 146.174   2
  -9  -5  -6 337.266 144.841   2
  -9  -5  -7 95.5793 75.6349   2
   0   0   0    0.00    0.00   0
;
_shelx_hkl_checksum              49748
loop_
_space_group_symop_operation_xyz
'x, y, z'
'-x, -y, -z'
loop_
_atom_site_label
_atom_site_type_symbol
_atom_site_fract_x
_atom_site_fract_y
_atom_site_fract_z
_atom_site_U_iso_or_equiv
_atom_site_adp_type
_atom_site_occupancy
_atom_site_site_symmetry_order
_atom_site_calc_flag
_atom_site_refinement_flags_posn
_atom_site_refinement_flags_adp
F1 F 0.36845(15) 0.47000(14) 0.90509(11) 0.0246(3) Uani 1 1 d . .
F2 F 0.56183(17) 0.42849(15) 0.65872(12) 0.0330(4) Uani 1 1 d . .
F3 F 0.68878(16) 0.70347(16) 0.50051(11) 0.0331(4) Uani 1 1 d . .
F4 F 0.62390(16) 1.01789(15) 0.58990(11) 0.0287(4) Uani 1 1 d . .
F5 F 0.43524(16) 1.06243(14) 0.83338(11) 0.0270(3) Uani 1 1 d . .
N1 N 0.2895(2) 0.7741(2) 1.00774(15) 0.0194(4) Uani 1 1 d . .
N2 N 0.1947(2) 0.9195(2) 1.02693(16) 0.0224(4) Uani 1 1 d . .
O1 O 0.0391(2) 0.79022(18) 1.22630(15) 0.0381(5) Uani 1 1 d . .
C1 C 0.0997(3) 1.2387(2) 1.12972(19) 0.0180(5) Uani 1 1 d . .
H1 H 0.162297 1.230114 1.042942 0.022 Uiso 1 1 calc R U
C2 C 0.0570(3) 1.3973(3) 1.1801(2) 0.0201(5) Uani 1 1 d . .
H2 H 0.091959 1.495776 1.126999 0.024 Uiso 1 1 calc R U
C3 C -0.0370(3) 1.4105(3) 1.3083(2) 0.0221(5) Uani 1 1 d . .
H3 H -0.065600 1.517869 1.341091 0.027 Uiso 1 1 calc R U
C4 C -0.0893(3) 1.2639(2) 1.3892(2) 0.0216(5) Uani 1 1 d . .
H4 H -0.151630 1.272817 1.475983 0.026 Uiso 1 1 calc R U
C5 C -0.0482(3) 1.1059(2) 1.33996(19) 0.0196(5) Uani 1 1 d . .
H5 H -0.084591 1.008115 1.393178 0.024 Uiso 1 1 calc R U
C6 C 0.0475(3) 1.0917(2) 1.21085(18) 0.0163(5) Uani 1 1 d . .
C7 C 0.0893(3) 0.9189(3) 1.1642(2) 0.0233(5) Uani 1 1 d . .
C8 C 0.3902(3) 0.7670(2) 0.87651(18) 0.0182(5) Uani 1 1 d . .
C9 C 0.4308(3) 0.6066(3) 0.8284(2) 0.0198(5) Uani 1 1 d . .
C10 C 0.5296(3) 0.5834(3) 0.7033(2) 0.0226(5) Uani 1 1 d . .
C11 C 0.5928(3) 0.7237(3) 0.62203(19) 0.0240(5) Uani 1 1 d . .
C12 C 0.5579(3) 0.8830(3) 0.6680(2) 0.0220(5) Uani 1 1 d . .
C13 C 0.4566(3) 0.9059(3) 0.7924(2) 0.0202(5) Uani 1 1 d . .
loop_
_atom_site_aniso_label
_atom_site_aniso_U_11
_atom_site_aniso_U_22
_atom_site_aniso_U_33
_atom_site_aniso_U_23
_atom_site_aniso_U_13
_atom_site_aniso_U_12
F1 0.0255(7) 0.0185(6) 0.0276(7) -0.0025(5) 0.0006(5) -0.0037(5)
F2 0.0359(8) 0.0302(7) 0.0323(8) -0.0168(6) 0.0021(6) -0.0017(6)
F3 0.0283(7) 0.0504(8) 0.0177(7) -0.0109(6) 0.0069(5) -0.0050(6)
F4 0.0257(7) 0.0364(8) 0.0212(7) 0.0042(5) 0.0024(5) -0.0112(6)
F5 0.0318(7) 0.0202(7) 0.0282(8) -0.0050(5) 0.0034(6) -0.0092(5)
N1 0.0196(9) 0.0206(9) 0.0174(10) -0.0054(7) 0.0012(7) -0.0042(7)
N2 0.0262(10) 0.0191(9) 0.0208(10) -0.0051(7) 0.0028(8) -0.0059(7)
O1 0.0609(11) 0.0195(8) 0.0292(9) -0.0074(7) 0.0171(8) -0.0154(8)
C1 0.0164(10) 0.0189(11) 0.0175(11) -0.0005(8) 0.0008(9) -0.0048(8)
C2 0.0195(10) 0.0181(10) 0.0219(11) -0.0001(8) -0.0016(9) -0.0050(8)
C3 0.0201(10) 0.0189(11) 0.0278(13) -0.0072(9) -0.0028(9) -0.0024(9)
C4 0.0203(11) 0.0237(12) 0.0191(11) -0.0065(9) 0.0020(9) -0.0024(9)
C5 0.0212(10) 0.0191(11) 0.0179(12) -0.0002(8) -0.0007(9) -0.0056(8)
C6 0.0154(10) 0.0179(10) 0.0153(11) -0.0011(8) -0.0021(8) -0.0032(8)
C7 0.0279(11) 0.0214(11) 0.0200(12) -0.0041(9) 0.0002(9) -0.0059(9)
C8 0.0146(10) 0.0221(11) 0.0164(11) -0.0024(8) -0.0015(9) -0.0014(8)
C9 0.0156(10) 0.0210(11) 0.0220(12) -0.0005(9) -0.0032(9) -0.0030(8)
C10 0.0175(10) 0.0246(12) 0.0254(12) -0.0104(9) -0.0025(9) 0.0012(9)
C11 0.0148(10) 0.0372(13) 0.0184(12) -0.0075(9) 0.0010(9) -0.0016(9)
C12 0.0167(10) 0.0302(12) 0.0191(12) -0.0004(9) -0.0029(9) -0.0065(9)
C13 0.0172(10) 0.0212(11) 0.0228(12) -0.0060(9) -0.0036(9) -0.0020(8)
loop_
_atom_type_symbol
_atom_type_description
_atom_type_scat_dispersion_real
_atom_type_scat_dispersion_imag
_atom_type_scat_source
C C 0.0033 0.0016 'International Tables Vol C Tables 4.2.6.8 and 6.1.1.4'
N N 0.0061 0.0033 'International Tables Vol C Tables 4.2.6.8 and 6.1.1.4'
F F 0.0171 0.0103 'International Tables Vol C Tables 4.2.6.8 and 6.1.1.4'
O O 0.0106 0.0060 'International Tables Vol C Tables 4.2.6.8 and 6.1.1.4'
H H 0.0000 0.0000 'International Tables Vol C Tables 4.2.6.8 and 6.1.1.4'
loop_
_geom_angle_atom_site_label_1
_geom_angle_atom_site_label_2
_geom_angle_atom_site_label_3
_geom_angle
N2 N1 C8 113.73(16)
N1 N2 C7 111.55(16)
C2 C1 C6 119.14(19)
C2 C1 H1 120.4
C6 C1 H1 120.4
C1 C2 C3 120.52(19)
C1 C2 H2 119.7
C3 C2 H2 119.7
C2 C3 C4 120.3(2)
C2 C3 H3 119.8
C4 C3 H3 119.8
C5 C4 C3 119.6(2)
C5 C4 H4 120.2
C3 C4 H4 120.2
C4 C5 C6 120.27(19)
C4 C5 H5 119.9
C6 C5 H5 119.9
C5 C6 C1 120.12(19)
C5 C6 C7 117.79(18)
C1 C6 C7 122.09(19)
O1 C7 N2 122.03(19)
O1 C7 C6 125.15(19)
N2 C7 C6 112.77(17)
C9 C8 C13 117.06(19)
C9 C8 N1 117.00(17)
C13 C8 N1 125.92(18)
F1 C9 C10 118.62(19)
F1 C9 C8 119.15(18)
C10 C9 C8 122.21(19)
F2 C10 C9 120.69(19)
F2 C10 C11 119.93(19)
C9 C10 C11 119.4(2)
F3 C11 C12 120.22(19)
F3 C11 C10 120.12(19)
C12 C11 C10 119.7(2)
F4 C12 C11 119.41(19)
F4 C12 C13 119.94(19)
C11 C12 C13 120.65(19)
F5 C13 C12 117.49(19)
F5 C13 C8 121.32(19)
C12 C13 C8 121.0(2)
loop_
_geom_bond_atom_site_label_1
_geom_bond_atom_site_label_2
_geom_bond_distance
F1 C9 1.340(2)
F2 C10 1.333(2)
F3 C11 1.331(2)
F4 C12 1.347(2)
F5 C13 1.337(2)
N1 N2 1.238(2)
N1 C8 1.416(2)
N2 C7 1.477(3)
O1 C7 1.199(2)
C1 C2 1.384(3)
C1 C6 1.396(3)
C1 H1 0.9300
C2 C3 1.378(3)
C2 H2 0.9300
C3 C4 1.393(3)
C3 H3 0.9300
C4 C5 1.374(3)
C4 H4 0.9300
C5 C6 1.391(3)
C5 H5 0.9300
C6 C7 1.471(3)
C8 C9 1.386(3)
C8 C13 1.398(3)
C9 C10 1.373(3)
C10 C11 1.385(3)
C11 C12 1.370(3)
C12 C13 1.372(3)
