#------------------------------------------------------------------------------
#$Date: 2017-09-12 06:54:41 +0300 (Tue, 12 Sep 2017) $
#$Revision: 200706 $
#$URL: file:///home/coder/svn-repositories/cod/cif/4/03/26/4032646.cif $
#------------------------------------------------------------------------------
#
# This file is available in the Crystallography Open Database (COD),
# http://www.crystallography.net/
#
# All data on this site have been placed in the public domain by the
# contributors.
#
data_4032646
loop_
_publ_author_name
'Cheng, Bin'
'Zu, Bing'
'Bao, Bian'
'Li, Yun'
'Wang, Renqi'
'Zhai, Hongbin'
_publ_section_title
;
 Synthesis of Spiro[indazole-3,3'-indolin]-2'-ones via [3 + 2] Dipolar
 Cycloaddition of Arynes with 3-Diazoindolin-2-ones and
 Indazolo[2,3-c]quinazolin-6(5H)-ones by Subsequent Thermal Isomerization.
;
_journal_issue                   15
_journal_name_full               'The Journal of organic chemistry'
_journal_page_first              8228
_journal_page_last               8233
_journal_paper_doi               10.1021/acs.joc.7b00990
_journal_volume                  82
_journal_year                    2017
_chemical_formula_moiety         'C21 H15 N3 O'
_chemical_formula_sum            'C21 H15 N3 O'
_chemical_formula_weight         325.36
_space_group_crystal_system      triclinic
_space_group_IT_number           2
_space_group_name_Hall           '-P 1'
_space_group_name_H-M_alt        'P -1'
_symmetry_space_group_name_Hall  '-P 1'
_symmetry_space_group_name_H-M   'P -1'
_atom_sites_solution_hydrogens   geom
_atom_sites_solution_primary     direct
_audit_creation_date             2017-03-31
_audit_creation_method
;
Olex2 1.2
(compiled 2017.03.28 svn.r3405 for OlexSys, GUI svn.r5335)
;
_cell_angle_alpha                65.64(3)
_cell_angle_beta                 71.71(3)
_cell_angle_gamma                85.02(2)
_cell_formula_units_Z            2
_cell_length_a                   8.624(3)
_cell_length_b                   10.522(3)
_cell_length_c                   10.648(3)
_cell_measurement_reflns_used    1216
_cell_measurement_temperature    298.84(10)
_cell_measurement_theta_max      25.3280
_cell_measurement_theta_min      3.7950
_cell_volume                     834.7(5)
_computing_cell_refinement
;
CrysAlisPro, Agilent Technologies,
Version 1.171.37.33 (release 27-03-2014 CrysAlis171 .NET)
(compiled Mar 27 2014,17:12:48)
;
_computing_data_collection
;
CrysAlisPro, Agilent Technologies,
Version 1.171.37.33 (release 27-03-2014 CrysAlis171 .NET)
(compiled Mar 27 2014,17:12:48)
;
_computing_data_reduction
;
CrysAlisPro, Agilent Technologies,
Version 1.171.37.33 (release 27-03-2014 CrysAlis171 .NET)
(compiled Mar 27 2014,17:12:48)
;
_computing_molecular_graphics    'Olex2 (Dolomanov et al., 2009)'
_computing_publication_material  'Olex2 (Dolomanov et al., 2009)'
_computing_structure_refinement  'ShelXL (Sheldrick, 2015)'
_computing_structure_solution    'ShelXS (Sheldrick, 2008)'
_diffrn_ambient_environment      air
_diffrn_ambient_temperature      298.84(10)
_diffrn_detector                 'CCD plate'
_diffrn_detector_area_resol_mean 16.0733
_diffrn_detector_type            Eos
_diffrn_measured_fraction_theta_full 0.998
_diffrn_measured_fraction_theta_max 0.998
_diffrn_measurement_details
;
#__ type_ start__ end____ width___ exp.time_
  1 omega   -9.00   18.30   1.9500    2.5000
omega____ theta____ kappa____ phi______ frames
    -      -24.3545  -99.0000  -30.0000 14

#__ type_ start__ end____ width___ exp.time_
  2 omega  -47.00   50.50   1.9500    2.5000
omega____ theta____ kappa____ phi______ frames
    -       27.0108  -57.0000  120.0000 50

#__ type_ start__ end____ width___ exp.time_
  3 omega   15.00   87.15   1.9500    2.5000
omega____ theta____ kappa____ phi______ frames
    -       27.0108   57.0000    0.0000 37

#__ type_ start__ end____ width___ exp.time_
  4 omega   27.00   95.25   1.9500    2.5000
omega____ theta____ kappa____ phi______ frames
    -       27.0108   57.0000  -90.0000 35

#__ type_ start__ end____ width___ exp.time_
  5 omega   37.00   93.55   1.9500    2.5000
omega____ theta____ kappa____ phi______ frames
    -       27.0108   57.0000 -150.0000 29

#__ type_ start__ end____ width___ exp.time_
  6 omega  -89.00   14.35   1.9500    2.5000
omega____ theta____ kappa____ phi______ frames
    -      -24.3545  -77.0000   60.0000 53

#__ type_ start__ end____ width___ exp.time_
  7 omega -110.00  -72.95   1.9500    2.5000
omega____ theta____ kappa____ phi______ frames
    -      -24.3545 -178.0000  150.0000 19
;
_diffrn_measurement_device       'four-circle diffractometer'
_diffrn_measurement_device_type  'SuperNova, Dual, Cu at zero, Eos'
_diffrn_measurement_method       '\w scans'
_diffrn_orient_matrix_UB_11      0.0368672000
_diffrn_orient_matrix_UB_12      0.0680927000
_diffrn_orient_matrix_UB_13      -0.0440400000
_diffrn_orient_matrix_UB_21      -0.0751612000
_diffrn_orient_matrix_UB_22      0.0292013000
_diffrn_orient_matrix_UB_23      0.0232043000
_diffrn_orient_matrix_UB_31      0.0226719000
_diffrn_orient_matrix_UB_32      0.0000547000
_diffrn_orient_matrix_UB_33      0.0585102000
_diffrn_radiation_monochromator  mirror
_diffrn_radiation_probe          x-ray
_diffrn_radiation_type           MoK\a
_diffrn_radiation_wavelength     0.71073
_diffrn_reflns_av_R_equivalents  0.0328
_diffrn_reflns_av_unetI/netI     0.0554
_diffrn_reflns_Laue_measured_fraction_full 0.998
_diffrn_reflns_Laue_measured_fraction_max 0.998
_diffrn_reflns_limit_h_max       10
_diffrn_reflns_limit_h_min       -10
_diffrn_reflns_limit_k_max       12
_diffrn_reflns_limit_k_min       -12
_diffrn_reflns_limit_l_max       12
_diffrn_reflns_limit_l_min       -13
_diffrn_reflns_number            5485
_diffrn_reflns_point_group_measured_fraction_full 0.998
_diffrn_reflns_point_group_measured_fraction_max 0.998
_diffrn_reflns_theta_full        25.242
_diffrn_reflns_theta_max         26.018
_diffrn_reflns_theta_min         3.355
_diffrn_source                   'SuperNova (Mo) X-ray Source'
_exptl_absorpt_coefficient_mu    0.082
_exptl_absorpt_correction_T_max  1.00000
_exptl_absorpt_correction_T_min  0.84255
_exptl_absorpt_correction_type   multi-scan
_exptl_absorpt_process_details
;
CrysAlisPro, Agilent Technologies,
Version 1.171.37.33 (release 27-03-2014 CrysAlis171 .NET)
(compiled Mar 27 2014,17:12:48)
Empirical absorption correction using spherical harmonics,
 implemented in SCALE3 ABSPACK scaling algorithm.
;
_exptl_crystal_colour            'clear light colourless'
_exptl_crystal_colour_lustre     clear
_exptl_crystal_colour_modifier   light
_exptl_crystal_colour_primary    colourless
_exptl_crystal_density_diffrn    1.295
_exptl_crystal_description       block
_exptl_crystal_F_000             340
_exptl_crystal_size_max          0.31
_exptl_crystal_size_mid          0.25
_exptl_crystal_size_min          0.24
_refine_diff_density_max         0.203
_refine_diff_density_min         -0.310
_refine_diff_density_rms         0.072
_refine_ls_extinction_method     none
_refine_ls_goodness_of_fit_ref   1.016
_refine_ls_hydrogen_treatment    constr
_refine_ls_matrix_type           full
_refine_ls_number_parameters     226
_refine_ls_number_reflns         3270
_refine_ls_number_restraints     0
_refine_ls_restrained_S_all      1.016
_refine_ls_R_factor_all          0.0973
_refine_ls_R_factor_gt           0.0614
_refine_ls_shift/su_max          0.000
_refine_ls_shift/su_mean         0.000
_refine_ls_structure_factor_coef Fsqd
_refine_ls_weighting_details
'w=1/[\s^2^(Fo^2^)+(0.1000P)^2^] where P=(Fo^2^+2Fc^2^)/3'
_refine_ls_weighting_scheme      calc
_refine_ls_wR_factor_gt          0.1507
_refine_ls_wR_factor_ref         0.1898
_reflns_Friedel_coverage         0.000
_reflns_number_gt                2087
_reflns_number_total             3270
_reflns_threshold_expression     'I > 2\s(I)'
_cod_data_source_file            jo7b00990_si_002.cif
_cod_data_source_block           chenb_0708
_cod_depositor_comments
'Adding full bibliography for 4032646--4032647.cif.'
_cod_original_cell_volume        834.6(5)
_cod_database_code               4032646
_shelx_shelxl_version_number     2016/6
_shelx_space_group_comment
;
The symmetry employed for this shelxl refinement is uniquely defined
by the following loop, which should always be used as a source of
symmetry information in preference to the above space-group names.
They are only intended as comments.
;
_reflns_odcompleteness_completeness 99.77
_reflns_odcompleteness_iscentric 1
_reflns_odcompleteness_theta     26.32
_olex2_refinement_description
;
1. Fixed Uiso
 At 1.2 times of:
  All C(H) groups, All C(H,H) groups
2.a Secondary CH2 refined with riding coordinates:
 C15(H15A,H15B)
2.b Aromatic/amide H refined with riding coordinates:
 C2(H2), C3(H3), C4(H4), C5(H5), C11(H11), C12(H12), C13(H13), C14(H14),
 C17(H17), C18(H18), C19(H19), C20(H20), C21(H21)
;
_shelx_res_file
;
TITL chenb_0708 in P-1 #2
    chenb_0708.res
    created by SHELXL-2016/6 at 22:51:07 on 31-Mar-2017
REM reset to P-1 #2
CELL 0.71073 8.623705 10.5219 10.647504 65.6399 71.71 85.0205
ZERR 2 0.002633 0.002705 0.003009 0.0269 0.0273 0.0229
LATT 1
SFAC C H N O
UNIT 42 30 6 2

L.S. 4
PLAN  20
BOND
MORE -1
BOND $H
HTAB
CONF
fmap 2
ACTA
SHEL 999 0.81
REM <olex2.extras>
REM <HklSrc "%.\\chenb_0708.hkl">
REM </olex2.extras>

WGHT    0.100000
FVAR      12.00473
O1    4    0.339363    0.644500    0.272975    11.00000    0.04213    0.05887 =
         0.06085   -0.01740   -0.01152    0.00585
N1    3    0.067278    0.601427    0.311641    11.00000    0.04381    0.04577 =
         0.04012   -0.01759   -0.00905   -0.00151
N2    3    0.174952    0.793220    0.464475    11.00000    0.05276    0.05583 =
         0.04253   -0.01815   -0.01490   -0.00286
N3    3    0.270776    0.894377    0.428040    11.00000    0.05633    0.06012 =
         0.05771   -0.02696   -0.01468   -0.00756
C1    1   -0.081884    0.662235    0.352494    11.00000    0.04037    0.05177 =
         0.03173   -0.01410   -0.00636   -0.00388
C2    1   -0.238658    0.618187    0.375871    11.00000    0.04540    0.07028 =
         0.05182   -0.02382   -0.01048   -0.00946
AFIX  43
H2    2   -0.257792    0.539683    0.362526    11.00000   -1.20000
AFIX   0
C3    1   -0.366315    0.694806    0.419822    11.00000    0.04111    0.09521 =
         0.05944   -0.02924   -0.00925   -0.00505
AFIX  43
H3    2   -0.473014    0.667065    0.436458    11.00000   -1.20000
AFIX   0
C4    1   -0.338713    0.810810    0.439351    11.00000    0.04423    0.09044 =
         0.06320   -0.03056   -0.00896    0.01375
AFIX  43
H4    2   -0.426709    0.860167    0.469513    11.00000   -1.20000
AFIX   0
C5    1   -0.180158    0.855508    0.414467    11.00000    0.05502    0.06528 =
         0.05243   -0.02927   -0.01062    0.00851
AFIX  43
H5    2   -0.161169    0.934531    0.427003    11.00000   -1.20000
AFIX   0
C6    1   -0.052393    0.779912    0.370907    11.00000    0.04285    0.04936 =
         0.03504   -0.01324   -0.00887    0.00054
C7    1    0.128532    0.800769    0.336893    11.00000    0.04526    0.04488 =
         0.03616   -0.01356   -0.01048   -0.00263
C8    1    0.196824    0.672831    0.303721    11.00000    0.04570    0.04375 =
         0.03225   -0.00726   -0.00995   -0.00064
C9    1    0.214853    0.933685    0.217802    11.00000    0.04713    0.04047 =
         0.04044   -0.01076   -0.00498    0.00590
C10   1    0.301809    0.982300    0.279171    11.00000    0.05536    0.04417 =
         0.05667   -0.02103   -0.00415   -0.00336
C11   1    0.407253    1.100408    0.200228    11.00000    0.07650    0.05580 =
         0.08778   -0.03241    0.00627   -0.01633
AFIX  43
H11   2    0.465029    1.132007    0.243164    11.00000   -1.20000
AFIX   0
C12   1    0.421489    1.167191    0.057265    11.00000    0.10024    0.04762 =
         0.08133   -0.01806    0.01788   -0.00325
AFIX  43
H12   2    0.491658    1.246135    0.000558    11.00000   -1.20000
AFIX   0
C13   1    0.335223    1.121425   -0.005835    11.00000    0.09531    0.05686 =
         0.04637    0.00257    0.00853    0.02416
AFIX  43
H13   2    0.347431    1.171056   -0.103908    11.00000   -1.20000
AFIX   0
C14   1    0.228841    1.001733    0.073190    11.00000    0.07351    0.05631 =
         0.04364   -0.00940   -0.00871    0.01436
AFIX  43
H14   2    0.171187    0.970401    0.029967    11.00000   -1.20000
AFIX   0
C15   1    0.092174    0.493133    0.255423    11.00000    0.06309    0.03719 =
         0.04501   -0.01383   -0.00995   -0.00342
AFIX  23
H15A  2   -0.009507    0.438718    0.290669    11.00000   -1.20000
H15B  2    0.172992    0.430690    0.290869    11.00000   -1.20000
AFIX   0
C16   1    0.148964    0.555818    0.092010    11.00000    0.04995    0.03997 =
         0.04437   -0.01757   -0.01414   -0.00376
C17   1    0.282237    0.506937    0.017409    11.00000    0.06434    0.06659 =
         0.05821   -0.02965   -0.02323    0.01528
AFIX  43
H17   2    0.337275    0.434082    0.068646    11.00000   -1.20000
AFIX   0
C18   1    0.336699    0.563400   -0.132151    11.00000    0.06382    0.11000 =
         0.06078   -0.05028   -0.01108    0.00805
AFIX  43
H18   2    0.426845    0.527802   -0.180269    11.00000   -1.20000
AFIX   0
C19   1    0.259506    0.670170   -0.208839    11.00000    0.07456    0.08803 =
         0.04693   -0.02622   -0.01426   -0.01724
AFIX  43
H19   2    0.297010    0.709066   -0.309530    11.00000   -1.20000
AFIX   0
C20   1    0.126104    0.720346   -0.137201    11.00000    0.09935    0.06698 =
         0.05806   -0.01620   -0.03645    0.01120
AFIX  43
H20   2    0.072399    0.793637   -0.189501    11.00000   -1.20000
AFIX   0
C21   1    0.070017    0.663261    0.012406    11.00000    0.07066    0.06292 =
         0.05228   -0.02322   -0.02016    0.01861
AFIX  43
H21   2   -0.021934    0.697714    0.059823    11.00000   -1.20000
AFIX   0
HKLF 4




REM  chenb_0708 in P-1 #2
REM R1 =  0.0614 for    2087 Fo > 4sig(Fo)  and  0.0973 for all    3270 data
REM    226 parameters refined using      0 restraints

END

WGHT      0.0738      0.0381

REM No hydrogen bonds found for HTAB generation

REM Highest difference peak  0.203,  deepest hole -0.310,  1-sigma level  0.072
Q1    1  -0.0918  0.4380  0.4204  11.00000  0.05    0.20
Q2    1   0.3648  0.6299 -0.3760  11.00000  0.05    0.19
Q3    1   0.3623  0.8067  0.1400  11.00000  0.05    0.19
Q4    1   0.3558  0.7157  0.1359  11.00000  0.05    0.19
Q5    1  -0.0281  0.8000  0.6201  11.00000  0.05    0.18
Q6    1  -0.2332  0.3954  0.4019  11.00000  0.05    0.18
Q7    1   0.0380  0.2980  0.3612  11.00000  0.05    0.18
Q8    1   0.4722  0.8988  0.2281  11.00000  0.05    0.18
Q9    1   0.1878  0.6177  0.5015  11.00000  0.05    0.17
Q10   1   0.2342  0.8009  0.1268  11.00000  0.05    0.17
Q11   1   0.2564  0.6872  0.0851  11.00000  0.05    0.17
Q12   1   0.2905  0.6610  0.5417  11.00000  0.05    0.17
Q13   1  -0.0216  0.3964  0.4657  11.00000  0.05    0.17
Q14   1  -0.1137  0.3414  0.4178  11.00000  0.05    0.16
Q15   1  -0.1842  0.6610  0.0177  11.00000  0.05    0.16
Q16   1   0.2881  0.3457  0.3662  11.00000  0.05    0.16
Q17   1   0.1884  0.2890  0.3850  11.00000  0.05    0.16
Q18   1   0.5249  0.9020  0.2809  11.00000  0.05    0.16
Q19   1  -0.1128  0.5872  0.5291  11.00000  0.05    0.16
Q20   1   0.2953  0.5747  0.4197  11.00000  0.05    0.15
;
_shelx_res_checksum              89786
_shelx_hkl_file
;
   0   0   2 430.701 124.043   2
   0   0   3 192410. 3024.27   2
   0   0   3 193889. 2499.09   7
   0   0   4 5767.26 607.242   2
   0   0   4 6265.19 525.143   7
   0   0   5 4363.23 588.193   2
   0   0   6 3099.92 545.852   2
   0   0   7 6182.72 853.001   2
   0   0   8 331.829 186.712   2
   0   0   9 5286.07 945.393   2
   0   0  10 921.729 485.125   2
   0   0  11 1170.02 522.120   2
   0  -1  11-97.1388 252.330   2
   0  -1  10 242.681 273.219   2
   0  -1   9 224.937 278.664   2
   0  -1   8 4185.05 821.759   2
   0  -1   7 7039.25 967.371   2
   0  -1   6-169.386 116.802   7
   0  -1   6 11.7583 236.823   2
   0  -1   5 3807.22 456.009   7
   0  -1   5 3055.24 535.338   2
   0  -1   4 65.0264 100.512   2
   0  -1   4 65.1831 78.9611   7
   0  -1   3 269778. 2920.30   7
   0  -1   3 271011. 3934.55   2
   0  -1   2 999999. 6425.82   2
   0  -1   1 422274. 3358.97   3
   0  -1   1 428781. 3267.63   2
   0   1   2 538888. 3501.61   2
   0   1   3 18186.7 847.542   2
   0   1   4 23024.7 1127.67   2
   0   1   5 85596.5 2480.37   2
   0   1   6 33150.5 1736.13   2
   0   1   7-50.3303 268.382   2
   0   1   8 9650.21 1129.68   2
   0   1   9-71.8098 190.354   2
   0   1  10-195.023 212.930   2
   0   1  11-435.893 353.698   2
   0   1  12 870.143 467.459   2
   0  -2  10 36.6168 236.315   2
   0  -2   9 2209.57 677.676   2
   0  -2   8 690.376 322.475   2
   0  -2   7-438.276 298.477   2
   0  -2   6 9090.61 781.955   7
   0  -2   6 9282.51 1086.23   2
   0  -2   5 11838.2 1109.78   2
   0  -2   5 11332.2 801.865   7
   0  -2   4 238312. 3278.18   7
   0  -2   4 227164. 4410.25   2
   0  -2   3 22442.4 1238.94   2
   0  -2   2 44014.3 1512.92   2
   0  -2   1 356519. 3600.07   2
   0  -2   1 360341. 4043.41   3
   0   2   0 12262.8 558.802   5
   0  -2   0 11887.3 520.341   2
   0  -2   0 11436.0 637.560   3
   0   2   1 137560. 1828.12   5
   0   2   1 139581. 1341.85   4
   0  -2  -2 24853.7 683.144   3
   0   2   2 23882.4 683.393   2
   0   2   3 45577.3 1211.04   2
   0  -2  -3 45555.6 738.955   3
   0   2   4 95587.1 2114.90   2
   0   2   5 121.542 115.734   2
   0   2   6 35913.8 1720.42   2
   0   2   7 491.441 267.369   2
   0   2   8-78.2556 135.365   2
   0   2   9 379.615 272.067   2
   0   2  10 9230.04 1225.73   2
   0  -2 -10 9167.78 1239.45   6
   0  -2 -11 402.520 328.943   6
   0   2  11 73.6331 288.596   2
   0   2  12 789.512 452.403   2
   0  -2 -12 991.581 512.590   6
   0  -3  10 383.966 279.153   2
   0  -3   9 854.683 442.540   2
   0  -3   8 2341.51 686.822   2
   0  -3   7 448.764 206.586   2
   0  -3   6 4216.87 785.258   2
   0  -3   5 12595.6 867.674   7
   0  -3   5 10535.9 1128.64   2
   0  -3   4 1963.58 437.641   2
   0  -3   3 16857.3 1157.22   2
   0  -3   2 116718. 2728.74   2
   0   3  -1 18903.9 950.090   5
   0  -3   1 18194.7 938.750   2
   0  -3   1 19783.5 1125.95   3
   0  -3   0 361.501 155.660   3
   0   3   0 664.326 172.808   5
   0  -3   0 320.920 130.563   2
   0   3   1 45885.5 1273.76   5
   0  -3  -1 45224.2 1442.30   3
   0   3   2 258903. 2086.71   4
   0  -3  -2 248382. 3049.00   3
   0  -3  -3 34032.0 994.262   3
   0   3   3 34155.6 991.682   2
   0   3   4 15965.7 823.896   2
   0  -3  -4 16551.2 580.433   3
   0   3   5 2345.00 372.835   2
   0   3   6 2096.39 403.817   2
   0   3   7 4205.24 624.152   2
   0   3   8 744.687 283.954   2
   0  -3  -8 497.157 226.117   6
   0  -3  -9 14255.4 1434.14   6
   0   3   9 14819.6 1400.71   2
   0  -3 -10 8356.14 1178.26   6
   0   3  10 8376.83 1124.51   2
   0  -3 -11-497.595 351.195   6
   0   3  11-424.242 308.069   2
   0  -3 -12 1265.00 524.764   6
   0   3  12 590.374 348.782   2
   0   3  13-181.146 278.642   2
   0  -4   9 729.927 434.180   2
   0  -4   8 4207.03 946.347   2
   0  -4   7 767.966 391.519   2
   0  -4   6 1974.83 543.960   2
   0  -4   5 21173.8 1657.58   2
   0  -4   4 5987.40 817.935   2
   0  -4   3 219.058 162.240   2
   0   4  -2 244.762 163.009   5
   0  -4   2-38.2653 121.539   2
   0   4  -1 9861.70 765.176   5
   0  -4   1 9570.64 757.363   2
   0  -4   1 8554.07 849.480   3
   0  -4   0 43210.2 1795.21   3
   0  -4   0 41074.0 847.997   1
   0  -4   0 40483.8 1379.37   2
   0   4   1 56503.8 1625.26   5
   0  -4  -1 51701.9 1830.01   3
   0  -4  -2 11092.9 789.842   3
   0   4   2 10128.7 702.203   5
   0   4   2 10125.5 505.722   4
   0  -4  -3 68889.5 1824.87   3
   0   4   3 71652.2 1304.50   4
   0   4   4 12340.5 685.235   2
   0  -4  -4 13797.2 727.105   3
   0   4   5 2285.70 345.011   2
   0  -4  -5 2318.86 258.284   3
   0   4   6 283.168 166.274   2
   0  -4  -7 8868.29 992.563   6
   0   4   7 9092.27 890.764   2
   0  -4  -8 42232.6 2308.92   6
   0   4   8 46964.7 2203.64   2
   0  -4  -9 879.502 406.601   6
   0   4   9 579.281 257.866   2
   0  -4 -10 979.665 417.115   6
   0   4  10 741.659 310.650   2
   0  -4 -11 581.848 341.350   6
   0   4  11 415.497 258.256   2
   0   4  12 338.836 302.765   2
   0  -4 -12 685.850 413.756   6
   0   4  13 489.397 361.194   2
   0  -5   8 360.133 306.744   2
   0  -5   7 2542.23 709.916   2
   0  -5   6 2962.61 690.260   2
   0  -5   5 27061.8 1958.06   2
   0  -5   4 5810.50 862.666   2
   0   5  -4 5518.24 791.675   5
   0   5  -3 5295.07 730.016   5
   0  -5   3 4916.99 727.362   2
   0   5  -2 18016.6 1232.71   5
   0  -5   2 15928.7 1186.29   2
   0  -5   1 1916.54 382.385   2
   0   5  -1 2162.80 413.994   5
   0   5   0 75.5238 104.169   5
   0  -5   0 56.1211 159.580   3
   0  -5   0 85.9556 48.5264   1
   0  -5  -1 92452.1 2761.27   3
   0   5   1 94989.7 2405.84   5
   0   5   2 46216.7 1278.27   4
   0  -5  -2 46026.4 1851.64   3
   0   5   2 47646.6 1734.89   5
   0   5   3 8401.99 483.931   4
   0  -5  -3 7573.52 716.946   3
   0   5   4 35072.4 1078.91   4
   0  -5  -4 37698.2 1479.04   3
   0  -5  -5 54994.5 1662.97   3
   0   5   5 55299.9 1653.93   2
   0   5   6 27092.0 1303.37   2
   0   5   7 9596.26 868.984   2
   0  -5  -7 8977.88 1012.52   6
   0   5   8 28301.9 1639.38   2
   0  -5  -8 27671.8 1867.76   6
   0  -5  -9 8265.27 1109.72   6
   0   5   9 9920.05 1073.02   2
   0   5  10 7278.33 989.919   2
   0  -5 -10 5497.20 954.664   6
   0   5  11 3103.41 697.604   2
   0  -5 -11 2541.68 691.091   6
   0  -5 -12 1798.15 647.768   6
   0  -6   8 345.864 315.272   2
   0  -6   7-289.989 288.514   2
   0   6  -7-781.917 410.585   5
   0  -6   6 413.435 320.485   2
   0   6  -6 524.367 305.637   5
   0  -6   5-192.291 271.800   2
   0   6  -5 417.268 190.050   5
   0  -6   4 4098.13 753.873   2
   0   6  -4 3700.67 683.588   5
   0  -6   3 39271.9 2175.29   2
   0   6  -3 38408.6 2033.21   5
   0  -6   2 7342.15 873.221   2
   0   6  -2 6590.20 813.482   5
   0  -6   1 32647.9 1696.95   2
   0   6  -1 34433.2 1704.10   5
   0   6   0 50386.1 1999.28   5
   0  -6   0 50802.8 1046.00   1
   0   6   1 95194.9 2664.81   5
   0  -6  -1 93701.4 3147.49   3
   0   6   2 3349.50 502.398   5
   0   6   2 3379.72 397.707   4
   0  -6  -2 3178.43 552.612   3
   0   6   3 5714.92 444.235   4
   0  -6  -3 6847.90 767.820   3
   0  -6  -4 49811.3 1950.00   3
   0   6   4 47757.9 1255.03   4
   0  -6  -5 7187.74 705.399   3
   0   6   5 6756.39 569.090   2
   0   6   6 6211.38 610.448   2
   0  -6  -6 6845.48 832.319   6
   0  -6  -7 8161.94 974.601   6
   0   6   7 7751.99 762.122   2
   0   6   8 2676.57 494.813   2
   0  -6  -8 2796.72 640.169   6
   0  -6  -9 5823.01 941.008   6
   0   6   9 8246.30 944.680   2
   0  -6 -10 2471.67 664.725   6
   0  -6 -11 5775.99 1047.42   6
   0  -6 -12 528.934 368.696   6
   0  -7   7 802.588 517.493   2
   0   7  -7 1046.22 472.458   5
   0   7  -6 416.335 269.155   5
   0  -7   6-350.849 302.742   2
   0  -7   5 202.253 197.878   2
   0   7  -5 684.763 347.899   5
   0   7  -4 3842.12 726.253   5
   0  -7   4 3175.03 717.840   2
   0   7  -3 524.764 286.841   5
   0  -7   3 872.174 412.861   2
   0  -7   2 7509.52 967.821   2
   0   7  -2 7525.49 910.299   5
   0   7  -1 4035.55 642.382   5
   0   7   0 10561.8 998.677   5
   0  -7   0 9406.18 926.977   6
   0   7   1 34976.8 1763.27   5
   0  -7  -1 29677.8 1082.73   1
   0  -7  -1 33257.9 1646.75   6
   0   7   2 10884.9 991.830   5
   0  -7  -2 11243.8 903.859   6
   0  -7  -2 10269.9 1105.90   3
   0   7   2 10838.6 807.808   4
   0  -7  -3 8544.82 798.365   6
   0  -7  -3 8521.43 962.394   3
   0   7   3 7989.51 603.472   4
   0  -7  -4 22524.9 1370.30   6
   0   7   4 19335.7 862.784   4
   0  -7  -4 21036.2 1425.90   3
   0  -7  -5 11424.8 1012.94   3
   0  -7  -5 12128.9 1063.84   6
   0  -7  -6 15751.4 1297.84   6
   0   7   6 15611.6 944.211   2
   0  -7  -7 9719.59 1091.70   6
   0  -7  -8 8469.53 1094.45   6
   0  -7  -9 1345.01 519.275   6
   0  -7 -10 1252.20 548.110   6
   0  -7 -11 4189.67 909.779   6
   0  -7 -12 3236.81 865.474   6
   0   8  -6-22.8105 177.801   5
   0  -8   6 7.06360 136.022   2
   0  -8   5 71.7055 170.812   2
   0   8  -5 76.7119 175.175   5
   0  -8   4 4055.98 859.799   2
   0   8  -4 4212.47 779.787   5
   0   8  -3 10225.9 1174.41   5
   0  -8   3 9987.17 1252.75   2
   0  -8   2 515.119 301.441   2
   0   8  -2 506.811 282.306   5
   0   8  -1 3069.75 611.448   5
   0  -8   0 250.763 191.286   6
   0   8   0 374.800 295.410   5
   0   8   1 219.296 235.677   5
   0  -8  -1 258.849 203.264   6
   0  -8  -2 335.661 230.087   6
   0   8   2 266.348 268.617   5
   0   8   2 557.454 207.775   4
   0  -8  -3 871.884 281.977   6
   0   8   3 1209.84 386.494   5
   0  -8  -4 652.273 280.997   6
   0  -8  -5 1846.50 450.950   6
   0  -8  -6 136.301 164.398   6
   0  -8  -7 1157.77 395.725   6
   0  -8  -8 6282.66 976.634   6
   0  -8  -9 27294.9 2066.07   6
   0  -8 -10 889.250 457.085   6
   0  -8 -11 1358.26 611.913   6
   0  -8 -12 842.350 475.683   6
   0   9  -5 74.4513 165.220   5
   0  -9   5 456.748 363.711   2
   0  -9   4 330.126 298.230   2
   0   9  -4 538.448 318.854   5
   0   9  -3 1585.28 493.583   5
   0   9  -2 452.044 306.289   5
   0   9  -1-14.2830 167.117   5
   0   9   0 5976.09 882.890   5
   0   9   1 193.774 194.264   5
   0  -9  -1 21.1347 176.377   6
   0  -9  -2 3548.87 605.857   6
   0   9   2 3563.62 661.096   5
   0   9   3 496.119 305.996   5
   0  -9  -3 862.894 330.225   6
   0  -9  -4 136.743 163.069   6
   0  -9  -5 359.891 256.315   6
   0  -9  -6 586.264 308.167   6
   0  -9  -7 3299.40 663.888   6
   0  -9  -8 1788.02 531.586   6
   0  -9  -9 1097.20 447.466   6
   0  -9 -10 253.150 325.508   6
   0  -9 -11 4610.37 969.824   6
   0  -9 -12-104.925 211.326   6
   0  10  -3-61.1687 181.542   5
   0  10  -2-187.538 255.300   5
   0  10  -1 4146.99 801.006   5
   0  10   0 2918.74 644.656   5
   0  10   1-195.815 227.682   5
   0 -10  -1 4.96519 153.271   6
   0 -10  -2 92.7351 208.296   6
   0  10   2 724.865 369.714   5
   0  10   3 2046.85 585.360   5
   0 -10  -3 3048.16 606.617   6
   0 -10  -4 6832.65 867.045   6
   0 -10  -5 512.346 283.417   6
   0 -10  -6-242.735 262.066   6
   0 -10  -7 506.103 340.888   6
   0 -10  -8 102.339 172.223   6
   0 -10  -9-21.5946 168.176   6
   0 -10 -10 1929.68 637.985   6
   0 -10 -11-120.476 241.354   6
   0  11  -2 1121.48 479.209   5
   0  11  -1 774.247 370.983   5
   0  11   0 88.7309 220.687   5
   0  11   1 865.916 379.506   5
   0 -11  -1 681.550 332.917   6
   0 -11  -2 664.385 349.653   6
   0  11   2 1440.64 466.596   5
   0  11   3 129.364 307.750   5
   0 -11  -3-18.3626 152.955   6
   0 -11  -4 539.973 288.521   6
   0 -11  -5 762.244 314.443   6
   0 -11  -6 4530.44 763.133   6
   0 -11  -7-2.58806 273.065   6
   0 -11  -8-213.612 266.956   6
   0 -11  -9-182.723 270.307   6
   0 -11 -10 5.81991 161.862   6
   0  12   0-407.589 320.450   5
   0  12   1 888.290 432.817   5
   0  12   2 374.322 309.816   5
   0 -12  -2 515.896 314.672   6
   0 -12  -3 869.078 379.880   6
   0  12   3 911.577 397.793   5
   0 -12  -4 4461.79 810.502   6
   0 -12  -5 608.804 351.723   6
   0 -12  -6 2087.48 567.960   6
   0 -12  -7 383.139 272.593   6
   0 -12  -8 265.498 266.559   6
   0 -12  -9-9.63691 280.050   6
   0  13   2 274.772 260.658   5
   0 -13  -3 798.217 397.581   6
   0 -13  -4-785.505 389.463   6
   0 -13  -5 808.685 401.597   6
   0 -13  -6 3550.54 749.861   6
   0 -13  -7 285.927 305.977   6
   1 -13  -5 470.334 331.479   6
   1 -13  -4-99.7931 230.421   6
   1 -12  -8 190.472 259.251   6
   1 -12  -7 506.907 364.844   6
   1 -12  -6 5724.99 915.463   6
   1 -12  -5 2378.46 611.400   6
   1 -12  -4 2787.63 665.008   6
   1 -12  -3-232.690 237.540   6
  -1  12   2-222.403 258.505   5
   1 -12  -2-294.107 257.265   6
  -1  12   1 876.756 465.362   5
   1 -12  -1 1028.76 446.840   6
  -1  12   0 69.2506 225.244   5
   1 -11 -10-20.6304 166.842   6
   1 -11  -9 370.207 292.468   6
   1 -11  -8-63.2198 245.277   6
   1 -11  -7 876.362 382.247   6
   1 -11  -6 12.5642 193.037   6
   1 -11  -5 379.637 251.859   6
   1 -11  -4 108.417 182.870   6
   1 -11  -3 457.575 320.631   6
   1 -11  -2-488.155 312.787   6
  -1  11   2-223.879 235.139   5
  -1  11   1 2540.32 655.614   5
   1 -11  -1 3072.79 710.886   6
  -1  11   0 734.783 383.288   5
  -1  11  -1 1729.49 560.771   5
  -1  11  -2-677.365 401.185   5
   1 -10 -10-325.400 326.778   6
   1 -10  -9 1047.43 437.188   6
   1 -10  -8 852.697 358.294   6
   1 -10  -7-25.4567 223.962   6
   1 -10  -6 492.893 292.722   6
   1 -10  -5 592.669 298.924   6
   1 -10  -4 499.676 314.161   6
   1 -10  -3 2236.16 525.427   6
   1 -10  -2 6030.49 862.209   6
  -1  10   2 5333.05 926.134   5
   1 -10  -1 2907.65 641.798   6
  -1  10   1 3719.85 761.617   5
  -1  10   0 26.7794 168.984   5
   1 -10   0 336.487 257.950   6
  -1  10  -1 1329.91 464.267   5
  -1  10  -2 454.926 300.472   5
  -1  10  -3 304.501 275.064   5
   1  -9 -11 229.233 315.944   6
   1  -9 -10 1730.13 563.836   6
   1  -9  -9 808.064 396.210   6
   1  -9  -8 908.423 399.602   6
   1  -9  -7 13465.5 1361.90   6
   1  -9  -6 369.816 292.501   6
   1  -9  -5 2613.90 543.729   6
   1  -9  -4 13032.8 1166.78   6
   1  -9  -3 30085.8 1743.09   6
  -1   9   2 6253.71 913.603   5
   1  -9  -2 7399.07 913.201   6
   1  -9  -1 1237.29 372.245   6
  -1   9   1 892.865 302.080   4
  -1   9   1 729.909 308.513   5
  -1   9   0 2035.38 543.377   5
   1  -9   0 1648.06 463.765   6
  -1   9  -1 169.128 245.556   5
  -1   9  -2 5587.75 923.000   5
  -1   9  -3 758.539 334.297   5
  -1   9  -4 699.124 391.269   5
  -1   9  -5-135.100 225.645   5
   1  -8 -11 5144.66 1038.04   6
   1  -8 -10 498.881 373.130   6
   1  -8  -9 1029.10 438.570   6
   1  -8  -8 3363.72 723.776   6
   1  -8  -7 1150.29 425.507   6
   1  -8  -6 34321.4 1982.23   6
   1  -8  -5 22102.8 1516.55   6
   1  -8  -4 1889.57 450.171   6
  -1   8   3 6729.09 671.456   4
   1  -8  -3 6833.98 783.114   6
   1  -8  -2 6264.10 758.088   6
  -1   8   2 5670.65 807.160   5
  -1   8   2 5868.86 688.331   4
  -1   8   1 6291.72 866.573   5
   1  -8  -1 5459.51 749.675   6
  -1   8   0 2395.02 565.085   5
   1  -8   0 1848.05 445.819   6
  -1   8  -1 717.755 323.336   5
  -1   8  -2-28.8737 240.309   5
  -1   8  -3 201.426 239.635   5
  -1   8  -4 189.588 186.780   5
  -1   8  -5 3467.23 744.727   5
   1  -8   5 3756.19 863.306   2
  -1   8  -6-497.897 343.446   5
   1  -8   6 364.494 314.760   2
   1  -7 -12 2780.23 804.099   6
   1  -7 -11 2516.53 735.710   6
   1  -7 -10 7106.89 1131.43   6
   1  -7  -9 7.00393 358.812   6
   1  -7  -8 25192.8 1895.42   6
  -1   7   8 22150.3 1501.06   2
   1  -7  -7 3315.31 674.870   6
  -1   7   7 2866.20 504.711   2
  -1   7   6 970.675 278.677   2
   1  -7  -6 986.251 360.828   6
  -1   7   5 7227.73 662.865   4
   1  -7  -5 8018.25 909.939   6
   1  -7  -4 6990.33 801.743   6
  -1   7   4 5888.97 580.284   4
  -1   7   3 212.922 133.346   4
   1  -7  -3 510.061 212.209   6
  -1   7   2 15763.4 1041.74   4
  -1   7   2 16577.0 1291.27   5
  -1   7   1 23804.9 1544.47   5
   1  -7  -1 25813.5 1461.42   6
  -1   7   0 28204.4 1710.36   5
   1  -7   0 27619.1 1583.41   6
  -1   7  -1 3073.37 579.787   5
  -1   7  -2 274.765 208.369   5
  -1   7  -3 28200.3 1851.02   5
  -1   7  -4 14136.4 1388.09   5
   1  -7   4 15380.8 1564.89   2
   1  -7   5-328.867 271.021   2
  -1   7  -5 51.7250 254.360   5
   1  -7   6 7116.53 1192.25   2
  -1   7  -6 3967.46 824.927   5
  -1   7  -7 397.028 293.720   5
   1  -7   7 230.029 263.951   2
   1  -6 -12 306.728 332.669   6
   1  -6 -11 503.921 353.487   6
  -1   6  11 617.961 351.956   2
  -1   6  10 2769.55 637.715   2
   1  -6 -10 3375.21 777.684   6
  -1   6   9 16152.1 1429.33   2
   1  -6  -9 18797.9 1714.02   6
  -1   6   8 19850.0 1454.44   2
   1  -6  -8 17554.5 1572.47   6
  -1   6   7 393.492 179.883   2
   1  -6  -7-40.1943 186.744   6
   1  -6  -6 874.519 310.689   6
  -1   6   6 832.758 252.961   2
  -1   6   5 1169.14 268.346   4
  -1   6   4 9036.90 682.775   4
  -1   6   3 2678.45 371.412   4
  -1   6   2-44.6428 208.601   5
  -1   6   2 40.2009 95.9878   4
  -1   6   1 18491.0 1246.03   5
  -1   6   0 7776.60 814.960   5
  -1   6  -1 1164.20 344.735   5
  -1   6  -2 7251.02 842.394   5
   1  -6   3 720.685 268.818   2
  -1   6  -3 944.528 352.735   5
   1  -6   4 49534.4 2648.45   2
  -1   6  -4 49472.1 2435.54   5
   1  -6   5 405.285 294.419   2
  -1   6  -5 1876.22 545.121   5
  -1   6  -6 595.491 345.954   5
   1  -6   6 338.665 325.509   2
  -1   6  -7 1244.51 434.432   5
   1  -6   7 1473.12 541.570   2
  -1   6  -8 1523.03 581.857   5
   1  -6   8-136.413 251.489   2
  -1   5  12 1047.02 462.388   2
   1  -5 -12 1438.46 613.533   6
  -1   5  11 50.2424 153.807   2
   1  -5 -11-182.530 322.524   6
   1  -5 -10 82.0926 253.310   6
  -1   5  10-437.282 298.531   2
  -1   5   9 696.163 317.660   2
   1  -5  -9 1009.01 437.325   6
   1  -5  -8 22142.5 1745.24   6
  -1   5   8 20396.0 1511.59   2
  -1   5   7 905.917 303.967   2
   1  -5  -7 839.869 334.939   6
   1  -5  -6-43.8362 166.791   6
  -1   5   6 251.102 158.973   2
  -1   5   5 23.7916 77.4619   2
  -1   5   4 28250.8 1182.48   4
  -1   5   3 20359.4 952.597   4
  -1   5   2 5191.71 495.821   4
  -1   5   1 21985.6 1237.97   5
  -1   5   1 21775.5 1088.84   4
  -1   5   0 4036.50 547.494   5
  -1   5  -1 34901.3 1608.22   5
  -1   5  -2 23860.5 1410.73   5
   1  -5   2 24199.6 1508.77   2
   1  -5   3 3449.81 615.233   2
  -1   5  -3 4546.53 674.715   5
  -1   5  -4 378.191 287.109   5
   1  -5   4 183.064 147.393   2
   1  -5   5 846.353 437.418   2
  -1   5  -5 951.345 370.296   5
   1  -5   6 10247.8 1266.26   2
  -1   5  -6 10872.3 1234.18   5
   1  -5   7 483.894 378.666   2
  -1   5  -7 123.887 206.521   5
   1  -5   8-22.1353 318.028   2
  -1   5  -8-162.867 228.857   5
   1  -4 -12 2368.05 754.980   6
  -1   4  12 2027.38 704.166   2
  -1   4  11 2972.50 738.083   2
   1  -4 -11 3232.63 838.402   6
   1  -4 -10 7103.94 1117.63   6
  -1   4  10 7514.69 1111.97   2
  -1   4   9 1240.38 425.996   2
   1  -4  -9 1321.31 481.087   6
  -1   4   8 3366.07 630.229   2
   1  -4  -8 2564.68 603.439   6
  -1   4   7 3977.71 640.325   2
   1  -4  -7 4033.98 677.072   6
  -1   4   6 29026.2 1529.28   2
  -1   4   5 215.911 153.012   2
  -1   4   4 15757.8 931.300   2
  -1   4   4 14769.1 858.535   4
  -1   4   3 46970.8 1385.33   4
  -1   4   2 17667.4 822.177   4
  -1   4   1 1760.81 283.255   4
  -1   4   1 1795.41 329.473   5
  -1   4   0 24.0517 83.4445   5
  -1   4  -1 20911.7 1125.71   5
  -1   4  -2 9660.21 821.211   5
   1  -4   2 9650.29 865.096   2
   1  -4   3 4361.79 627.151   2
  -1   4  -3 3997.30 581.203   5
   1  -4   4 3964.18 659.129   2
  -1   4  -4 3454.02 592.445   5
   1  -4   5 7121.82 956.559   2
   1  -4   6 8463.50 1131.32   2
   1  -4   7 951.336 442.914   2
   1  -4   8 2563.00 708.063   2
   1  -4   9 975.582 476.068   2
  -1   3  12 2618.33 759.864   2
   1  -3 -12 2057.16 719.289   6
  -1   3  11 379.312 246.725   2
   1  -3 -11 322.960 296.084   6
   1  -3 -10-3.31868 256.772   6
  -1   3  10 152.657 197.385   2
   1  -3  -9 9227.69 1208.44   6
  -1   3   9 7407.53 1037.64   2
  -1   3   8 12183.8 1237.23   2
   1  -3  -8 12485.0 1303.73   6
  -1   3   7 5977.62 794.233   2
   1  -3  -7 6036.79 836.637   6
  -1   3   6 7483.05 805.319   2
  -1   3   5 19023.5 1146.58   2
  -1   3   4 9307.08 713.805   2
  -1   3   3 2697.73 336.505   4
  -1   3   2 243815. 2849.97   4
  -1   3   1 255672. 2965.88   4
  -1   3   1 252278. 3342.83   5
  -1   3   0 45.8241 73.3259   5
  -1   3  -1 5609.94 519.588   5
   1  -3   2 14616.3 962.337   2
  -1   3  -2 14634.8 930.582   5
  -1   3  -3 37700.4 693.600   1
   1  -3   3 37891.8 1711.67   2
   1  -3   4 11156.5 1021.93   2
   1  -3   5 282.573 247.440   2
   1  -3   6 85373.2 2710.81   7
   1  -3   6 80532.2 3269.85   2
   1  -3   7 123.931 234.485   2
   1  -3   8 2057.22 599.327   2
   1  -3   9 11240.7 1474.22   2
   1  -3  10-73.7510 231.432   2
  -1   2  12 1710.99 633.864   2
  -1   2  11 1127.67 506.196   2
   1  -2 -11 1518.07 570.149   6
  -1   2  10 3309.06 760.163   2
   1  -2 -10 3599.91 825.354   6
   1  -2  -9 2549.68 612.140   6
  -1   2   9 2750.68 665.811   2
   1  -2  -8 720.456 331.461   6
  -1   2   8 1184.05 424.726   2
   1  -2  -7-37.0819 236.078   6
  -1   2   7 4.23112 199.084   2
  -1   2   6-221.312 183.546   2
  -1   2   5 18951.5 1189.89   2
  -1   2   4 16953.3 1006.27   2
  -1   2   3 1153.33 223.257   2
  -1   2   2 4643.33 389.126   4
  -1   2   1 585264. 3905.26   4
  -1   2   0 58164.1 1326.58   5
  -1   2  -1 1011.86 197.693   5
  -1   2  -2 60007.0 825.065   1
   1  -2   2 55135.9 1687.03   2
   1  -2   3 94.4245 93.4302   2
   1  -2   4 121612. 3150.13   2
   1  -2   5 74719.0 2734.68   2
   1  -2   5 77344.9 2293.06   7
   1  -2   6 42401.2 1873.84   7
   1  -2   6 43022.9 2277.95   2
   1  -2   7 44495.0 2053.91   7
   1  -2   7 40530.6 2363.69   2
   1  -2   8 4519.08 878.049   2
   1  -2   9 68.9729 164.573   2
   1  -2  10 6279.63 1154.63   2
   1  -2  11 144.421 326.110   2
  -1   1  11-302.384 306.500   2
  -1   1  10 931.364 455.457   2
  -1   1   9 386.137 288.278   2
  -1   1   8 6675.08 985.270   2
  -1   1   7 1159.40 365.960   2
  -1   1   6 11015.5 1071.51   2
  -1   1   5 15202.9 1122.87   2
  -1   1   4 55208.9 1892.89   2
  -1   1   3 12076.7 774.607   2
  -1   1   2 122646. 2063.28   2
  -1   1   1 112698. 1619.28   4
  -1   1  -1 429136. 3098.79   5
   1  -1   2 281759. 3307.99   2
   1  -1   3 42489.7 1506.64   2
   1  -1   4 72662.1 1949.90   7
   1  -1   4 74983.6 2275.95   2
   1  -1   5 134685. 2938.55   7
   1  -1   5 131769. 3380.47   2
   1  -1   6 66953.3 2292.28   7
   1  -1   6 68804.6 2696.10   2
   1  -1   7 9239.11 922.067   7
   1  -1   7 8181.17 1016.87   2
   1  -1   8 29938.9 2072.17   2
   1  -1   8 32982.2 1846.47   7
   1  -1   9 4860.94 899.170   2
   1  -1  10-238.529 258.430   2
   1  -1  11 909.524 456.650   2
  -1   0  11 573.320 422.695   2
  -1   0  10 1028.67 511.066   2
  -1   0   9-17.6186 172.904   2
  -1   0   8-156.306 314.919   2
  -1   0   7-20.4189 261.828   2
  -1   0   6-294.623 225.176   2
  -1   0   5 41832.0 1973.48   2
  -1   0   4 44665.7 1807.78   2
  -1   0   3 529.176 173.672   2
  -1   0   3 478.397 112.453   3
  -1   0   2 2276.34 304.357   2
  -1   0   2 2305.11 218.280   3
  -1   0   1 27260.0 645.010   3
  -1   0   1 25403.4 796.814   2
   1   0   2 77305.8 1450.47   2
   1   0   3 369735. 3955.40   2
   1   0   4 332608. 4360.93   2
   1   0   4 330739. 4158.91   7
   1   0   5 216972. 3738.21   7
   1   0   5 217451. 3986.56   2
   1   0   6 60853.6 2160.93   7
   1   0   6 59755.6 2329.91   2
   1   0   7 31575.1 1681.45   7
   1   0   7 32402.6 1900.36   2
   1   0   8 3343.54 677.582   2
   1   0   9 4628.13 838.332   2
   1   0  10 165.859 215.905   2
   1   0  11-596.351 410.297   2
   1   0  12 327.563 309.450   2
  -1  -1  10 578.018 431.503   2
  -1  -1   9 164.990 227.244   2
  -1  -1   8 500.232 330.962   2
  -1  -1   7 1988.15 535.569   2
  -1  -1   6 103.882 151.990   2
  -1  -1   5 5856.89 781.986   2
  -1  -1   4 60720.1 2241.92   2
  -1  -1   4 66199.7 1868.34   3
  -1  -1   3 52019.3 1847.41   2
  -1  -1   3 54197.1 1565.84   3
  -1  -1   2 585.542 152.678   3
  -1  -1   2 556.427 178.487   2
  -1  -1   1 1712.17 229.523   3
  -1  -1   1 1856.16 244.337   2
  -1  -1   0 5961.49 373.547   3
   1   1   2 229248. 1935.57   2
   1   1   3 98798.0 1760.42   2
   1   1   4 255191. 3457.08   2
   1   1   4 259771. 3703.03   7
   1   1   5 45090.9 1703.43   2
   1   1   5 46505.9 1738.01   7
   1   1   6 11252.1 959.983   2
   1   1   6 10615.1 912.135   7
   1   1   7 16091.7 1274.14   2
   1   1   8 1314.76 397.037   2
   1   1   9 2163.97 567.982   2
   1   1  10-58.7780 186.563   2
   1   1  11 183.093 220.193   2
   1   1  12-66.5485 210.807   2
  -1  -2  10 188.102 219.443   2
  -1  -2   9 1249.24 531.446   2
  -1  -2   8 798.483 402.748   2
  -1  -2   7 8591.59 1158.66   2
  -1  -2   6 11312.5 1229.72   2
  -1  -2   5 2502.31 531.884   2
  -1  -2   4 6448.17 450.466   7
  -1  -2   4 6654.74 694.625   3
  -1  -2   4 6781.76 801.641   2
  -1  -2   3 7.16585 57.0354   3
  -1  -2   3 133.549 52.3852   7
  -1  -2   2 21996.9 1127.18   2
  -1  -2   2 23727.3 1149.11   3
  -1  -2   1 4696.90 483.011   3
  -1  -2   1 4527.41 433.544   2
  -1  -2   0 208570. 2884.33   3
  -1  -2   0 213995. 2314.12   2
   1   2   1 406320. 2569.93   5
  -1  -2  -1 436756. 3739.04   3
  -1  -2  -2 816.775 149.168   3
  -1  -2  -3 44780.2 1042.36   3
   1   2   3 45423.4 1007.62   2
   1   2   4 24077.2 966.855   2
   1   2   5 557.681 179.007   2
   1   2   6 69048.3 2221.70   2
   1   2   7 5398.93 702.067   2
   1   2   8 1898.95 463.998   2
   1   2   9 1559.18 448.657   2
   1   2  10 7060.41 1026.83   2
   1   2  11 384.438 295.455   2
  -1  -2 -12-170.572 268.290   6
   1   2  12 724.438 388.283   2
   1   2  13-198.662 253.494   2
  -1  -3   9 167.465 242.769   2
  -1  -3   8 624.251 327.985   2
  -1  -3   7 395.891 281.328   2
  -1  -3   6 2687.25 621.495   2
  -1  -3   5 3490.86 663.510   2
  -1  -3   4 13785.3 1212.90   2
  -1  -3   4 15301.3 735.060   7
  -1  -3   3 7578.14 792.134   3
  -1  -3   3 7824.89 836.870   2
  -1  -3   2 3268.22 497.061   3
  -1  -3   2 3182.68 471.438   2
  -1  -3   1 34536.2 1325.61   2
  -1  -3   1 35807.6 1531.41   3
  -1  -3   0 27341.2 1259.67   3
   1   3   0 27765.2 1025.89   5
  -1  -3   0 27707.2 992.778   2
  -1  -3  -1 190293. 3126.27   3
  -1  -3  -1 199142. 1894.18   2
   1   3   1 192456. 2416.56   5
  -1  -3  -1 194326. 2377.11   1
  -1  -3  -2 147780. 2523.08   3
   1   3   3 44243.0 798.521   2
  -1  -3  -3 43741.7 1255.36   3
   1   3   4 53952.9 1277.17   2
  -1  -3  -4 55086.8 1328.19   3
   1   3   5 10135.1 695.547   2
  -1  -3  -5 10704.2 555.573   3
  -1  -3  -6 13651.2 602.274   3
   1   3   6 13313.9 910.587   2
   1   3   7 10216.8 906.183   2
  -1  -3  -7 10036.7 1002.43   6
   1   3   8 27838.6 1664.99   2
  -1  -3  -8 23115.1 1660.71   6
   1   3   9 4712.19 757.480   2
  -1  -3  -9 5676.57 888.325   6
   1   3  10 11285.0 1248.04   2
  -1  -3 -10 10421.8 1276.98   6
   1   3  11 720.138 399.881   2
  -1  -3 -11 1186.36 517.667   6
  -1  -3 -12 328.798 297.880   6
   1   3  12-48.6343 173.087   2
   1   3  13 294.118 271.347   2
  -1  -4   9 1217.64 536.291   2
  -1  -4   8-51.8947 146.499   2
  -1  -4   7 103.495 152.052   2
  -1  -4   6 2121.96 584.263   2
  -1  -4   5 6566.11 950.812   2
  -1  -4   4 33799.5 1987.11   2
  -1  -4   3 12554.2 1145.34   3
  -1  -4   3 11640.8 1060.04   2
  -1  -4   2 34665.3 1807.16   3
  -1  -4   2 31111.1 1573.90   2
   1   4  -1 30053.5 1354.65   5
  -1  -4   1 28699.3 1335.04   2
  -1  -4   1 30725.7 1607.49   3
  -1  -4   0 94550.8 2121.31   6
  -1  -4   0 91106.7 2630.62   3
   1   4   0 96783.2 2170.32   5
  -1  -4   0 95731.5 2087.79   2
  -1  -4  -1 7241.37 496.596   1
   1   4   1 6649.40 531.295   5
  -1  -4  -1 5707.26 623.049   3
  -1  -4  -1 6625.49 446.929   2
  -1  -4  -2 45216.9 1668.85   3
   1   4   2 48374.6 1412.37   5
   1   4   3 155755. 1433.13   2
  -1  -4  -3 159764. 2941.94   3
   1   4   4 7240.37 412.360   2
  -1  -4  -4 6782.79 570.840   3
   1   4   5 12825.2 706.066   2
  -1  -4  -5 12776.3 741.219   3
   1   4   6 45560.4 1578.82   2
  -1  -4  -6 41909.7 1231.80   3
  -1  -4  -7 2772.40 534.302   6
   1   4   7 2857.06 466.438   2
  -1  -4  -8 2736.37 577.393   6
   1   4   8 2903.44 512.266   2
   1   4   9 6671.74 855.558   2
  -1  -4  -9 8925.73 1121.60   6
  -1  -4 -10 2366.18 637.266   6
   1   4  10 1629.34 471.075   2
  -1  -4 -11 32.2767 186.864   6
   1   4  11 43.2191 128.811   2
   1   4  12 730.524 366.963   2
  -1  -4 -12 1242.35 548.421   6
  -1  -5   8 219.097 257.930   2
  -1  -5   7-68.4046 190.319   2
  -1  -5   6 757.845 431.532   2
  -1  -5   5 1286.97 445.113   2
  -1  -5   4 127.618 226.423   2
  -1  -5   3 1492.40 444.352   3
  -1  -5   3 1011.76 347.024   2
   1   5  -2 14395.4 1097.59   5
  -1  -5   2 15375.5 1338.13   3
  -1  -5   2 14614.0 1155.64   2
   1   5  -1 4.05029 134.796   5
  -1  -5   1 105.473 207.802   3
  -1  -5   1 105.381 114.049   2
  -1  -5   0 64070.8 1903.68   2
   1   5   0 69731.1 2033.78   5
  -1  -5   0 65620.8 2510.41   3
  -1  -5   0 67265.5 2009.79   6
  -1  -5  -1 12499.2 697.524   1
  -1  -5  -1 11072.7 709.545   2
  -1  -5  -1 13691.5 843.820   6
  -1  -5  -1 11731.6 1011.98   3
   1   5   1 11593.1 802.977   5
  -1  -5  -2 23137.6 1039.93   6
   1   5   2 20658.9 1053.31   5
  -1  -5  -2 20241.2 1261.08   3
   1   5   3 225.629 53.9544   4
  -1  -5  -3 137.881 134.281   3
  -1  -5  -4 181927. 3426.82   3
   1   5   4 175805. 1901.67   2
   1   5   5 11347.3 612.388   2
  -1  -5  -5 11803.1 833.669   3
   1   5   6 9174.21 662.525   2
  -1  -5  -6 8925.68 897.557   6
  -1  -5  -6 9448.33 696.306   3
  -1  -5  -7 30273.5 1782.89   6
   1   5   7 30094.6 1392.83   2
   1   5   8-1.02060 146.895   2
  -1  -5  -8 391.196 300.902   6
   1   5   9 4829.50 696.496   2
  -1  -5  -9 5820.21 901.434   6
   1   5  10 713.749 300.032   2
  -1  -5 -10 875.552 396.000   6
  -1  -5 -11 84.6687 185.700   6
  -1  -5 -12 452.975 330.583   6
  -1  -5 -13-456.852 362.447   6
  -1  -6   7-523.804 365.532   2
   1   6  -7-134.104 218.583   5
  -1  -6   6-98.7561 168.980   2
   1   6  -6 3.04364 147.289   5
  -1  -6   5 6451.38 1058.57   2
   1   6  -5 5399.00 891.495   5
   1   6  -4 44154.4 2362.61   5
  -1  -6   4 45327.7 2555.80   2
   1   6  -3 141.317 170.877   5
  -1  -6   3-197.873 336.971   2
   1   6  -2 2447.11 492.898   5
  -1  -6   2 2703.84 617.021   3
  -1  -6   2 2462.74 503.965   2
   1   6  -1 1540.20 374.014   5
  -1  -6   1 1595.84 385.488   2
  -1  -6   1 778.755 350.237   3
  -1  -6   0 5141.60 602.473   2
  -1  -6   0 4952.98 772.597   3
   1   6   0 6296.86 688.702   5
  -1  -6   0 6235.68 684.209   6
   1   6   1 288.399 185.424   5
  -1  -6  -1 315.283 120.969   1
  -1  -6  -1 240.956 142.854   6
  -1  -6  -1-85.7795 243.172   3
   1   6   2 76160.1 2265.10   5
  -1  -6  -2 79613.5 2157.05   6
  -1  -6  -2 75995.5 2748.59   3
  -1  -6  -3 28367.7 1599.95   3
   1   6   3 27603.1 780.669   4
  -1  -6  -3 30138.6 1341.25   6
   1   6   3 27162.8 1356.52   5
  -1  -6  -4 54.8902 152.632   3
  -1  -6  -4-38.3284 158.990   6
  -1  -6  -5 93.6824 112.174   3
   1   6   5-18.8797 39.2028   2
  -1  -6  -6 30319.9 1691.11   6
  -1  -6  -6 30004.4 1427.04   3
   1   6   6 28072.3 1093.13   2
  -1  -6  -7 2221.71 484.344   6
   1   6   7 1421.05 293.158   2
  -1  -6  -7 1717.42 317.736   3
  -1  -6  -8 9870.59 1102.31   6
  -1  -6  -9 163.984 264.005   6
  -1  -6 -10 1643.95 552.461   6
  -1  -6 -11 256.557 307.719   6
  -1  -6 -12 448.469 382.985   6
  -1  -6 -13 1745.75 642.255   6
  -1  -7   7-379.737 322.627   2
   1   7  -6 334.174 288.625   5
  -1  -7   6 128.104 269.558   2
   1   7  -5 1829.24 554.894   5
  -1  -7   5 1653.13 612.182   2
   1   7  -4 1274.66 428.462   5
  -1  -7   4 1426.15 484.045   2
   1   7  -3 75.3730 182.208   5
  -1  -7   3 645.685 316.510   2
  -1  -7   2 2544.71 561.662   2
   1   7  -2 3045.03 607.545   5
  -1  -7   1 1741.98 429.579   2
  -1  -7   1 2003.44 568.751   3
   1   7  -1 1852.54 431.722   5
   1   7   0-29.7729 143.183   5
  -1  -7   0 352.324 253.260   3
  -1  -7   0 57.2301 139.566   2
  -1  -7   0-26.2320 141.579   6
  -1  -7  -1 31033.3 1585.56   6
  -1  -7  -1 29753.5 1980.38   3
   1   7   1 32569.1 1658.95   5
  -1  -7  -1 32715.9 1185.41   1
  -1  -7  -2 5765.67 859.201   3
  -1  -7  -2 5335.81 569.275   1
  -1  -7  -2 6742.39 691.555   6
   1   7   2 6039.54 709.763   5
  -1  -7  -3 86.3780 104.079   6
   1   7   3-27.3324 149.087   5
  -1  -7  -3-94.3269 118.155   3
   1   7   3 1.71774 38.5759   4
  -1  -7  -4-26.0646 117.167   6
  -1  -7  -4 129.919 164.825   3
  -1  -7  -5 484.243 233.440   6
  -1  -7  -5 11.8470 118.407   3
  -1  -7  -6 316.448 196.958   3
  -1  -7  -6-57.4806 148.123   6
  -1  -7  -7 1187.97 415.788   6
  -1  -7  -7 763.582 249.397   3
  -1  -7  -8 485.020 286.494   6
  -1  -7  -9 7149.95 1026.16   6
  -1  -7 -10 29812.1 2189.68   6
  -1  -7 -11 515.267 307.722   6
  -1  -7 -12 651.512 427.762   6
  -1  -8   6 326.959 348.036   2
   1   8  -5-510.198 338.551   5
  -1  -8   5-26.6235 128.367   2
  -1  -8   4 1174.32 454.000   2
   1   8  -4 2023.51 567.298   5
   1   8  -3 58.9708 175.710   5
  -1  -8   3 738.047 382.542   2
   1   8  -2 1399.14 409.182   5
  -1  -8   2 1884.88 506.453   2
   1   8  -1 1246.87 381.142   5
  -1  -8   1 1837.09 463.484   2
  -1  -8   0 9814.25 1271.56   3
   1   8   0 9447.95 1012.90   5
  -1  -8  -1 273.016 228.043   3
   1   8   1 379.104 253.332   5
  -1  -8  -1 440.497 185.777   6
  -1  -8  -2 4628.21 632.856   6
   1   8   2 5514.86 724.023   5
  -1  -8  -2 4088.71 763.709   3
   1   8   3 1727.11 405.190   5
  -1  -8  -3 1396.83 335.111   6
  -1  -8  -3 1587.48 472.466   3
  -1  -8  -4 81.4349 145.832   3
  -1  -8  -4 53.4057 132.546   6
  -1  -8  -5 291.345 237.102   6
  -1  -8  -5 356.135 224.700   3
  -1  -8  -6 6.01699 116.222   3
  -1  -8  -6 312.813 211.948   6
  -1  -8  -7 303.460 263.819   6
  -1  -8  -7 269.891 193.961   3
  -1  -8  -8 250.443 159.825   6
  -1  -8  -9 11974.8 1340.86   6
  -1  -8 -10 2669.25 672.438   6
  -1  -8 -11 128.292 222.508   6
  -1  -8 -12 3456.82 853.180   6
  -1  -9   5 312.045 293.471   2
   1   9  -4 368.971 304.112   5
  -1  -9   4-590.757 353.407   2
  -1  -9   3 1185.16 480.723   2
   1   9  -3 1047.97 421.799   5
  -1  -9   2 256.348 226.836   2
   1   9  -2 593.222 312.315   5
   1   9  -1 6803.38 940.531   5
   1   9   0 333.162 219.337   5
   1   9   1 2106.53 519.715   5
  -1  -9  -1 1609.92 433.044   6
  -1  -9  -1 2466.72 692.843   3
  -1  -9  -2 8401.73 1200.48   3
  -1  -9  -2 8142.35 928.153   6
   1   9   2 7932.15 958.857   5
  -1  -9  -3 1251.91 379.568   6
  -1  -9  -3 1218.40 476.890   3
   1   9   3 796.755 294.236   5
  -1  -9  -4 1575.69 480.874   3
  -1  -9  -4 2048.99 480.412   6
  -1  -9  -5 1106.63 343.447   6
  -1  -9  -5 1990.03 530.545   3
  -1  -9  -6 7958.56 942.813   6
  -1  -9  -6 6909.94 933.904   3
  -1  -9  -7 340.062 217.241   3
  -1  -9  -7 995.563 350.446   6
  -1  -9  -8 143.364 235.721   6
  -1  -9  -9-144.600 231.014   6
  -1  -9 -10 2048.37 635.048   6
  -1  -9 -11 5936.61 1070.93   6
  -1  -9 -12-70.0449 261.005   6
   1  10  -3 617.193 362.192   5
   1  10  -2 1907.68 560.784   5
   1  10  -1 1121.23 426.532   5
   1  10   0 1313.25 461.829   5
   1  10   1 647.087 286.349   5
  -1 -10  -1 1050.73 403.497   6
  -1 -10  -2 818.130 417.411   3
   1  10   2 769.467 363.768   5
  -1 -10  -2 634.898 307.384   6
  -1 -10  -3 812.370 404.627   3
   1  10   3 931.083 365.389   5
  -1 -10  -3 445.802 235.564   6
  -1 -10  -4 981.186 409.099   3
  -1 -10  -4 1223.05 407.880   6
  -1 -10  -5 18050.5 1388.74   6
  -1 -10  -5 17309.2 1680.72   3
  -1 -10  -6-525.599 311.052   3
  -1 -10  -6-38.6598 178.213   6
  -1 -10  -7 513.783 302.250   6
  -1 -10  -8 941.942 428.577   6
  -1 -10  -9 1.96754 181.693   6
  -1 -10 -10 2647.14 729.562   6
  -1 -10 -11 332.920 305.656   6
   1  11  -2 3217.01 750.036   5
   1  11  -1 368.105 309.149   5
   1  11   0 1661.60 502.375   5
   1  11   1 1495.13 501.462   5
   1  11   2 891.815 402.983   5
  -1 -11  -2 1128.93 425.815   6
  -1 -11  -3 2463.90 567.098   6
   1  11   3 2672.56 631.000   5
  -1 -11  -4 1145.61 385.748   6
  -1 -11  -5 5108.29 988.672   3
  -1 -11  -5 6075.88 851.426   6
  -1 -11  -6 29.0152 165.091   6
  -1 -11  -6-45.5312 128.599   3
  -1 -11  -7 4868.66 797.272   6
  -1 -11  -8 406.971 278.040   6
  -1 -11  -9 86.6302 237.106   6
  -1 -11 -10 397.680 334.846   6
  -1 -11 -11 1029.75 457.208   6
   1  12   0 335.402 304.475   5
   1  12   1 786.059 366.338   5
  -1 -12  -2 585.311 319.240   6
   1  12   2-23.5282 175.266   5
   1  12   3 121.576 207.647   5
  -1 -12  -3 1246.69 456.254   6
  -1 -12  -4 987.960 393.585   6
  -1 -12  -5 785.265 335.576   6
  -1 -12  -6 1101.00 398.366   6
  -1 -12  -7 3875.43 738.971   6
  -1 -12  -8 1534.33 503.496   6
  -1 -12  -9-264.716 253.822   6
  -1 -12 -10 268.237 270.822   6
   1  13   1-19.6572 173.301   5
   1  13   2 109.922 202.596   5
   1  13   3 164.520 232.998   5
  -1 -13  -3 578.297 331.648   6
  -1 -13  -4-378.231 265.834   6
  -1 -13  -5 370.781 281.348   6
  -1 -13  -6-339.274 264.478   6
  -1 -13  -7 4722.67 854.798   6
  -1 -13  -8 108.734 213.169   6
   2 -12  -7 567.811 395.361   6
   2 -12  -6 441.479 236.171   6
   2 -12  -5 527.726 330.278   6
   2 -12  -4-8.68673 169.451   6
   2 -12  -3 235.235 302.312   6
   2 -12  -2-195.066 301.035   6
  -2  12   2 420.912 334.096   5
   2 -12  -1 108.107 224.702   6
  -2  12   1-289.829 310.660   5
   2 -11  -9 1007.17 466.146   6
   2 -11  -8 193.775 242.279   6
   2 -11  -7 179.065 242.723   6
   2 -11  -6 416.001 292.935   6
   2 -11  -5 126.914 222.048   6
   2 -11  -4 2126.12 551.114   6
   2 -11  -3 1034.59 443.380   6
  -2  11   2-47.3274 230.805   5
   2 -11  -2 207.392 255.483   6
  -2  11   1-481.628 322.140   5
   2 -11  -1-794.216 405.890   6
  -2  11   0 1214.60 527.234   5
  -2  11  -1 2058.56 627.827   5
  -2  11  -2 21.7401 260.340   5
   2 -10 -10 33.5672 197.988   6
   2 -10  -9 595.346 377.221   6
   2 -10  -8 1432.08 490.507   6
   2 -10  -7 1301.15 428.536   6
   2 -10  -6 1201.81 404.274   6
   2 -10  -5-198.723 222.864   6
   2 -10  -4 2544.79 571.665   6
   2 -10  -3 462.926 276.662   6
   2 -10  -2 23995.2 1743.00   6
  -2  10   2 23358.4 1958.32   5
  -2  10   1 786.841 425.376   5
   2 -10  -1 223.994 229.523   6
   2 -10   0-162.278 255.355   6
  -2  10   0-437.503 304.405   5
  -2  10  -1 4235.37 851.353   5
  -2  10  -2 406.290 304.082   5
  -2  10  -3 170.372 187.862   5
   2  -9 -10 211.560 251.037   6
   2  -9  -9 646.426 407.098   6
   2  -9  -8-170.729 185.372   6
   2  -9  -7 497.119 364.735   6
   2  -9  -6-213.963 230.772   6
   2  -9  -5 9918.40 1056.75   6
   2  -9  -4-29.5547 194.125   6
   2  -9  -3 19719.6 1440.25   6
  -2   9   2 1847.63 469.974   4
   2  -9  -2 3001.74 630.636   6
  -2   9   2 3616.79 772.858   5
   2  -9  -1 12651.3 1215.14   6
  -2   9   1 12729.9 1217.84   4
  -2   9   1 12964.9 1395.51   5
  -2   9   0 4818.23 774.758   4
  -2   9   0 3531.22 753.264   5
   2  -9   0 5029.39 804.572   6
  -2   9  -1 708.194 350.193   5
  -2   9  -2 9482.84 1205.74   5
  -2   9  -3 2500.88 649.915   5
  -2   9  -4-338.385 292.287   5
  -2   9  -5 315.515 256.349   5
   2  -8 -11 1672.88 607.379   6
   2  -8 -10 1164.78 523.125   6
   2  -8  -9 1293.80 535.818   6
   2  -8  -8 1227.95 432.370   6
  -2   8   7 181.050 168.377   2
   2  -8  -7-210.781 177.247   6
   2  -8  -6-78.0718 256.077   6
   2  -8  -5 1011.96 362.130   6
  -2   8   4 4833.92 619.560   4
   2  -8  -4 4489.77 675.793   6
  -2   8   3 35645.2 1714.20   4
   2  -8  -3 39518.9 1890.64   6
  -2   8   2 229.453 183.732   4
   2  -8  -2 296.227 219.563   6
  -2   8   2 352.470 301.387   5
  -2   8   1 7359.88 859.851   4
  -2   8   1 8424.71 1044.03   5
   2  -8   0 917.472 358.758   6
  -2   8   0 1310.46 448.400   5
  -2   8  -1 268.859 249.168   5
  -2   8  -2 2769.25 652.833   5
  -2   8  -3 9.75209 234.997   5
  -2   8  -4 580.101 360.042   5
  -2   8  -5 538.720 379.176   5
  -2   8  -6 1088.70 459.076   5
   2  -7 -11-233.613 302.632   6
  -2   7  10-70.8411 212.438   2
   2  -7 -10 34.2583 231.607   6
  -2   7   9 309.735 207.902   2
   2  -7  -9 877.390 437.898   6
  -2   7   8-55.7749 131.858   2
   2  -7  -8 178.089 235.601   6
  -2   7   7 3506.96 620.484   2
   2  -7  -7 3628.67 713.581   6
  -2   7   6 25727.9 1588.61   2
   2  -7  -6 29463.1 1886.38   6
   2  -7  -5 1834.69 477.215   6
  -2   7   5 2078.12 418.507   4
  -2   7   4 4047.59 554.045   4
   2  -7  -4 4614.47 659.542   6
  -2   7   3 869.618 257.651   4
   2  -7  -3 747.411 265.840   6
   2  -7  -2 10507.4 911.881   6
  -2   7   2 10618.0 918.876   4
  -2   7   1 1043.89 370.344   5
   2  -7  -1 704.803 264.329   6
  -2   7   1 818.559 271.052   4
  -2   7   0 1201.08 387.950   5
   2  -7   0 1031.12 331.457   6
  -2   7  -1 1361.03 380.739   5
   2  -7   1 2404.74 500.548   6
  -2   7  -2 9095.38 1049.04   5
  -2   7  -3 5136.61 805.444   5
  -2   7  -4 5942.39 898.445   5
  -2   7  -5 2308.35 592.584   5
  -2   7  -6 897.552 428.282   5
   2  -7   7 1379.25 524.917   2
  -2   7  -7 885.999 426.842   5
   2  -6 -11 737.950 409.689   6
  -2   6  11 381.087 298.834   2
  -2   6  10-180.353 211.613   2
   2  -6 -10 597.712 391.988   6
   2  -6  -9 2623.10 685.004   6
  -2   6   9 3278.67 684.073   2
   2  -6  -8 13297.9 1384.65   6
  -2   6   8 12656.2 1250.56   2
   2  -6  -7-297.708 348.824   6
  -2   6   7 72.6810 130.708   2
  -2   6   6 14.1298 159.260   2
   2  -6  -6 194.947 205.315   6
  -2   6   5 3990.44 564.086   4
   2  -6  -5 4252.69 669.383   6
  -2   6   4 13954.6 989.423   4
   2  -6  -4 14670.5 1145.69   6
   2  -6  -3 522.530 245.262   6
  -2   6   3 287.871 158.832   4
  -2   6   2 40.0702 114.102   4
   2  -6  -2 228.422 159.139   6
   2  -6  -1 7597.26 722.197   6
  -2   6   1 7078.51 749.107   4
  -2   6   1 7024.11 818.432   5
   2  -6   0 855.182 255.062   6
  -2   6   0 1626.67 406.004   5
   2  -6   1 15762.4 1163.93   6
  -2   6  -1 16724.1 1292.77   5
  -2   6  -2 3139.84 573.578   5
  -2   6  -3 3453.19 638.822   5
  -2   6  -4-88.1288 200.326   5
  -2   6  -5 3880.91 698.059   5
   2  -6   5 6008.35 1002.34   2
  -2   6  -6 430.303 294.656   5
   2  -6   6-110.785 255.535   2
   2  -6   7 487.804 282.211   2
  -2   6  -7 286.729 252.180   5
   2  -6   8 1762.66 633.653   2
  -2   6  -8 1530.02 583.257   5
  -2   5  12 1403.10 562.549   2
  -2   5  11 4762.50 957.666   2
   2  -5 -11 3547.09 873.854   6
   2  -5 -10 4052.87 861.209   6
  -2   5  10 3493.36 780.786   2
  -2   5   9 1107.95 429.253   2
   2  -5  -9 36.6295 224.753   6
  -2   5   8 1125.80 413.405   2
   2  -5  -8 631.874 302.338   6
   2  -5  -7 27674.6 1849.34   6
  -2   5   7 23319.4 1604.66   2
  -2   5   6 520.605 223.465   2
   2  -5  -6-140.257 307.443   6
   2  -5  -5 443.268 225.458   6
  -2   5   5 397.642 191.902   2
  -2   5   4 5476.64 609.151   4
   2  -5  -4 4747.77 636.525   6
  -2   5   3 117706. 2681.98   4
  -2   5   2-44.4022 192.577   4
  -2   5   1 18274.4 1103.83   4
  -2   5   1 19148.1 1233.88   5
  -2   5   0 78.2214 119.164   5
  -2   5  -1 148.329 187.648   5
  -2   5  -2 20087.5 1317.29   5
  -2   5  -3 1480.53 401.063   5
   2  -5   4 2514.48 580.411   2
  -2   5  -4 1983.76 497.484   5
   2  -5   5 19148.6 1674.02   2
  -2   5  -5 19403.6 1539.34   5
   2  -5   6 19194.0 1780.28   2
  -2   5  -6 22894.3 1774.67   5
   2  -5   7 55.0730 206.535   2
  -2   5  -7-95.7920 194.679   5
   2  -5   8-642.072 396.903   2
  -2   5  -8-219.158 238.426   5
   2  -5   9 1293.71 562.356   2
  -2   5  -9 1774.95 598.554   5
  -2   4  12 2829.93 821.384   2
  -2   4  11 407.812 334.320   2
   2  -4 -11 398.714 374.264   6
   2  -4 -10 4578.56 920.496   6
  -2   4  10 6649.76 1100.63   2
   2  -4  -9 967.999 426.430   6
  -2   4   9 481.981 308.087   2
  -2   4   8 5310.23 862.353   2
   2  -4  -8 6667.94 964.224   6
  -2   4   7 5886.04 832.239   2
   2  -4  -7 4758.22 750.406   6
  -2   4   6 112.842 140.335   2
   2  -4  -6 59.0030 146.775   6
   2  -4  -5 14196.8 1130.13   6
  -2   4   5 11405.1 961.160   2
  -2   4   4 34168.4 1536.95   4
  -2   4   3 32160.6 1379.91   4
  -2   4   2 433.716 180.713   4
   2  -4  -2 652.295 239.028   6
  -2   4   1 74390.2 2061.08   4
   2  -4  -1 75267.9 1879.72   6
  -2   4   1 71912.3 2172.57   5
  -2   4   0 13820.2 942.031   4
  -2   4   0 13529.2 926.890   5
  -2   4  -1 97677.6 2531.10   5
  -2   4  -2 39.1716 93.0602   5
  -2   4  -3 3471.92 531.543   5
   2  -4   4 79.3603 183.430   2
  -2   4  -4 176.673 206.662   5
  -2   4  -5 13080.9 1214.30   5
   2  -4   5 13198.2 1293.13   2
   2  -4   6 4922.04 836.800   2
  -2   4  -6 4729.86 768.687   5
   2  -4   7 355.073 211.754   2
  -2   4  -7 254.787 150.151   5
   2  -4   8 1018.77 461.036   2
   2  -4   9 523.764 381.454   2
   2  -3 -11 1310.44 568.457   6
  -2   3  11 127.564 201.778   2
  -2   3  10 497.342 313.146   2
   2  -3 -10 148.456 234.626   6
  -2   3   9-22.5707 181.434   2
   2  -3  -9 785.289 408.055   6
  -2   3   8 7614.33 1043.60   2
   2  -3  -8 8787.23 1127.65   6
   2  -3  -7 84369.5 3215.70   6
  -2   3   7 83445.5 3160.28   2
  -2   3   6 4976.54 735.687   2
   2  -3  -6 3588.79 628.272   6
  -2   3   5 996.227 295.934   2
   2  -3  -5 1743.75 402.178   6
  -2   3   4 1722.71 347.339   2
  -2   3   3 179.161 114.406   4
   2  -3  -3 176.128 134.333   6
   2  -3  -2 298535. 3935.28   6
  -2   3   2 319247. 3959.87   4
  -2   3   1 361201. 4128.84   4
   2  -3  -1 359254. 3758.50   6
  -2   3   0 456.909 168.267   5
  -2   3   0 158.459 111.202   4
   2  -3   0 175.802 98.3256   6
   2  -3   1 20877.3 940.252   6
  -2   3  -1 24266.5 1116.76   5
  -2   3  -2 66321.4 1945.45   5
  -2   3  -3 22592.0 1250.56   5
   2  -3   3 22765.2 1363.65   2
  -2   3  -4 11989.3 999.698   5
  -2   3  -4 11576.1 537.077   1
   2  -3   4 10678.4 1017.34   2
   2  -3   5 3739.33 640.270   2
   2  -3   6 2974.96 561.713   7
   2  -3   6 3170.55 656.853   2
   2  -3   7 2613.43 558.328   7
   2  -3   7 2353.92 626.075   2
   2  -3   8 686.576 383.247   2
   2  -3   9 13891.8 1634.68   2
   2  -3  10 7883.44 1299.70   2
   2  -2 -11 1311.14 562.438   6
  -2   2  11 2004.99 642.297   2
   2  -2 -10 858.898 538.127   6
  -2   2  10 970.161 484.743   2
  -2   2   9 2879.82 705.908   2
   2  -2  -9 2724.53 666.691   6
  -2   2   8 3449.77 743.603   2
   2  -2  -8 3879.95 753.030   6
   2  -2  -7 4959.30 784.613   6
  -2   2   7 4782.99 790.003   2
   2  -2  -6 62.8217 195.780   6
  -2   2   6 179.853 179.015   2
  -2   2   5 64045.4 2391.96   2
   2  -2  -5 67701.9 2431.15   6
  -2   2   4 33217.7 1544.07   2
  -2   2   4 33975.8 749.472   3
  -2   2   3 50923.0 1755.95   2
   2  -2  -3 49009.4 1651.38   6
  -2   2   3 48369.6 1728.65   4
   2  -2  -2 40664.5 1313.40   6
  -2   2   2 41230.8 1424.92   4
   2  -2  -1 170009. 2406.23   6
  -2   2   1 176019. 2698.71   4
   2  -2   0 252830. 2490.62   6
  -2   2   0 253850. 3347.07   4
  -2   2   0 249380. 3169.08   5
  -2   2  -1 81787.2 1811.39   5
   2  -2   1 82231.3 1561.36   6
  -2   2  -2 91445.2 2039.77   5
  -2   2  -3 949.767 158.617   1
   2  -2   3 1081.51 277.860   2
  -2   2  -3 783.714 219.026   5
   2  -2   4 92156.9 2725.15   2
  -2   2  -4 87721.4 1730.62   1
   2  -2   5 8441.86 901.985   2
  -2   2  -5 7468.59 592.673   1
   2  -2   6 1723.30 399.906   7
   2  -2   6 1746.74 462.169   2
   2  -2   7 64418.7 2926.87   2
   2  -2   7 65195.6 2684.78   7
   2  -2   8 11762.3 1212.50   7
   2  -2   8 10768.5 1295.34   2
   2  -2   9 2550.60 683.363   2
   2  -2  10 14053.7 1656.72   2
   2  -2  11 1216.63 556.380   2
  -2   1  11 300.301 324.212   2
   2  -1 -11 18.1884 168.185   6
  -2   1  10 248.220 268.762   2
   2  -1 -10-281.984 299.761   6
  -2   1   9-3.40120 224.668   2
  -2   1   8 2491.65 620.561   2
  -2   1   7 1058.17 423.293   2
  -2   1   6 17278.8 1432.63   2
  -2   1   5 15357.9 641.222   3
  -2   1   5 15269.2 1225.39   2
  -2   1   4 5938.36 401.377   3
  -2   1   4 6474.88 723.079   2
  -2   1   3 3870.11 493.061   2
  -2   1   3 4084.27 312.135   3
   2  -1  -3 3659.93 452.795   6
  -2   1   2 51171.3 1608.84   4
   2  -1  -2 47817.3 1383.43   6
  -2   1   2 48854.2 1573.50   2
   2  -1  -1 122393. 1848.85   6
  -2   1   1 127274. 2263.11   4
   2  -1   0 364429. 2522.76   6
  -2   1   0 398397. 3747.08   4
   2  -1   1 138485. 1619.90   6
  -2   1  -1 142678. 2347.24   4
  -2   1  -1 142861. 1927.11   5
  -2   1  -2 103581. 1874.86   5
   2  -1   3 23237.1 1149.18   2
  -2   1  -3 22696.4 877.039   1
   2  -1   4 54505.1 1909.12   2
  -2   1  -4 51347.5 1460.45   1
   2  -1   5 48365.6 1890.71   7
   2  -1   5 47834.4 1987.86   2
   2  -1   6 24990.1 1493.95   7
   2  -1   6 25768.2 1612.96   2
   2  -1   7 14655.3 1325.41   2
   2  -1   7 17009.3 1326.46   7
   2  -1   8 31734.6 1953.95   7
   2  -1   8 31688.7 2078.72   2
   2  -1   9 25543.8 1853.00   7
   2  -1   9 26873.1 2044.66   2
   2  -1  10 265.006 247.895   2
   2  -1  11 936.951 469.268   2
  -2   0  10-252.904 324.983   2
  -2   0   9 1986.81 613.804   2
  -2   0   8 429.336 301.981   2
  -2   0   7 200.390 171.187   2
  -2   0   6-26.3463 247.891   2
  -2   0   5 113.873 152.831   2
  -2   0   5 219.453 110.380   3
  -2   0   4 1802.84 388.781   2
  -2   0   4 2896.35 353.055   3
  -2   0   3 28669.2 1040.33   3
  -2   0   3 29407.9 1408.79   2
  -2   0   2 9223.45 549.236   3
  -2   0   2 8410.31 669.565   2
  -2   0   1 24624.6 987.777   2
  -2   0   1 23136.5 999.000   4
  -2   0   0 443190. 3713.79   4
   2   0   0 449933. 2176.96   6
  -2   0  -1 401.921 113.853   4
  -2   0  -1 495.244 87.5435   5
  -2   0  -2 1687.66 189.697   5
  -2   0  -3 409.212 132.856   1
   2   0   3 398.955 139.948   2
   2   0   4 17802.3 992.448   2
   2   0   5 25738.2 1367.25   7
   2   0   5 25168.7 1324.19   2
   2   0   6 77913.9 2584.85   2
   2   0   6 81044.6 2650.04   7
   2   0   7 27543.1 1700.58   2
   2   0   7 27101.9 1650.35   7
   2   0   8 18666.1 1476.08   7
   2   0   8 18995.9 1540.23   2
   2   0   9 428.682 280.502   7
   2   0   9 130.999 257.508   2
   2   0  10 7548.47 1117.09   2
   2   0  11 266.510 292.054   2
   2   0  12 517.931 367.907   2
  -2  -1  10 766.101 400.043   2
  -2  -1   9 2583.31 727.143   2
  -2  -1   8 199.859 287.463   2
  -2  -1   7 3387.41 736.583   2
  -2  -1   6 7442.16 1003.80   2
  -2  -1   5 9697.18 1054.56   2
  -2  -1   5 10317.3 816.346   3
  -2  -1   4 5991.69 599.127   3
  -2  -1   4 5361.80 719.626   2
  -2  -1   3 683.353 184.519   3
  -2  -1   3 746.350 248.158   2
  -2  -1   2 3237.73 431.848   2
  -2  -1   2 3318.33 386.024   3
  -2  -1   1 4773.92 456.124   2
  -2  -1   1 5091.60 453.300   3
  -2  -1   0 86916.3 1726.92   4
   2   1   0 90042.6 1215.59   7
  -2  -1   0 86656.5 1755.80   3
  -2  -1   0 87605.9 1641.80   2
  -2  -1  -1 173663. 2057.64   4
  -2  -1  -2 221460. 2405.07   4
  -2  -1  -2 221447. 1958.88   6
   2   1   3 31368.8 1006.49   2
   2   1   4 10018.6 676.820   2
   2   1   5 25560.3 1246.57   2
   2   1   6 55058.1 2041.01   2
   2   1   6 56633.7 2198.93   7
   2   1   7 153.997 172.095   2
   2   1   7 211.350 133.132   7
   2   1   8-175.447 279.856   2
   2   1   8 422.353 276.272   7
   2   1   9 1022.99 385.125   2
   2   1  10 1858.98 538.522   2
   2   1  11 164.443 214.449   2
   2   1  12 161.065 232.131   2
  -2  -2   9 1246.51 542.198   2
  -2  -2   8 26.3087 188.298   2
  -2  -2   7 794.786 287.068   2
  -2  -2   6 11764.8 1312.99   2
  -2  -2   5 624.752 235.022   3
  -2  -2   5 556.990 292.662   2
  -2  -2   4 5642.37 764.596   2
  -2  -2   4 7166.13 744.750   3
  -2  -2   3 7821.03 820.678   2
  -2  -2   3 9116.31 800.043   3
  -2  -2   2 4076.57 525.803   2
  -2  -2   2 4490.27 538.515   3
  -2  -2   1 24129.7 1097.44   2
  -2  -2   1 22673.9 1125.48   3
  -2  -2   0 174.266 95.4654   3
  -2  -2   0 455.748 128.694   2
   2   2   1 293537. 2031.52   5
  -2  -2  -1 303325. 2717.06   4
   2   2   1 296435. 2966.76   7
  -2  -2  -1 311246. 2467.18   2
  -2  -2  -1 304202. 3613.14   3
  -2  -2  -1 292435. 2097.25   6
  -2  -2  -2 452286. 2731.55   4
  -2  -2  -2 450448. 3049.65   6
  -2  -2  -3 123142. 2012.18   6
   2   2   4 92865.6 1738.05   2
  -2  -2  -4 93835.0 2085.75   6
   2   2   5 8797.09 652.646   2
   2   2   6 723.123 234.418   2
   2   2   6 1144.07 334.626   7
   2   2   7 646.784 263.013   7
   2   2   7 370.356 169.218   2
   2   2   8 648.175 310.184   2
   2   2   9 855.952 350.186   2
   2   2  10 17593.1 1570.49   2
   2   2  11 1420.33 522.170   2
  -2  -2 -12 167.840 191.575   6
   2   2  12 775.911 412.072   2
   2   2  13 172.507 238.714   2
  -2  -3   9 275.294 375.079   2
  -2  -3   8 1677.79 596.536   2
  -2  -3   7 381.280 277.296   2
  -2  -3   6 43716.9 2610.51   2
  -2  -3   5 12355.0 1301.75   2
  -2  -3   5 17099.9 1348.39   3
  -2  -3   4 3370.02 608.607   2
  -2  -3   4 3892.91 614.521   3
  -2  -3   3 33293.5 1781.52   2
  -2  -3   3 33180.2 1723.33   3
  -2  -3   2 47686.6 1957.99   3
  -2  -3   2 46520.6 1878.22   2
  -2  -3   1 15992.1 1091.03   3
  -2  -3   1 15365.8 960.122   2
  -2  -3   0 42237.6 1336.26   2
  -2  -3   0 41923.5 1675.71   3
  -2  -3  -1 25053.7 819.796   2
  -2  -3  -1 27708.2 865.987   6
  -2  -3  -1 23727.2 1167.59   3
   2   3   1 27625.8 853.808   5
  -2  -3  -2 190891. 3173.24   3
  -2  -3  -2 194758. 2250.53   6
   2   3   2 192354. 2036.89   5
  -2  -3  -3 2897.75 175.073   4
  -2  -3  -3 3308.30 349.195   6
  -2  -3  -3 2951.13 382.123   3
  -2  -3  -4 42655.8 1411.58   3
   2   3   4 45479.6 987.044   2
  -2  -3  -4 42078.6 1424.41   6
   2   3   5 6255.38 492.919   2
  -2  -3  -5 5813.73 600.762   6
  -2  -3  -6 41566.2 1795.11   6
   2   3   6 42335.0 1506.51   2
  -2  -3  -7 691.337 268.594   6
   2   3   7 1247.78 312.241   2
  -2  -3  -8 7017.57 882.985   6
   2   3   8 8477.19 861.641   2
  -2  -3  -9 44373.4 2382.16   6
   2   3   9 41956.9 2135.03   2
  -2  -3 -10 97.5620 193.585   6
   2   3  10 11.2245 128.139   2
   2   3  11 238.463 234.308   2
  -2  -3 -11 313.542 267.983   6
  -2  -3 -12 2045.80 664.507   6
   2   3  12 2057.37 600.449   2
   2   3  13 576.859 359.766   2
  -2  -3 -13 1404.97 575.642   6
  -2  -4   8 2692.15 752.787   2
  -2  -4   7 334.739 342.451   2
  -2  -4   6 909.746 429.670   2
  -2  -4   5 35073.3 2266.70   2
  -2  -4   4 2559.81 569.681   2
  -2  -4   4 2612.00 559.934   3
  -2  -4   3 24078.6 1593.51   2
  -2  -4   3 21921.7 1542.19   3
  -2  -4   2 17039.9 1218.45   2
  -2  -4   2 17315.0 1319.80   3
  -2  -4   1 12406.8 929.403   2
  -2  -4   1 11811.4 1034.06   3
  -2  -4   0 6599.80 742.931   3
  -2  -4   0 6471.22 576.782   2
   2   4   0 6446.29 566.625   5
   2   4   1 96650.6 1910.35   5
  -2  -4  -1 95934.9 1918.08   6
  -2  -4  -1 96480.3 1796.37   2
  -2  -4  -1 97684.6 2708.53   3
  -2  -4  -2 96.7913 118.833   1
  -2  -4  -2 59.4403 74.1852   6
   2   4   2 65.6576 73.4839   5
  -2  -4  -2 33.5989 25.1075   2
  -2  -4  -2 25.0102 101.146   3
  -2  -4  -3 416.702 174.628   3
  -2  -4  -3 347.491 137.519   6
  -2  -4  -3 222.373 122.871   1
  -2  -4  -4 10932.8 805.314   3
  -2  -4  -4 10211.4 732.377   6
  -2  -4  -5 75670.6 2054.92   3
   2   4   5 81295.1 1464.13   2
  -2  -4  -5 81878.2 2303.14   6
   2   4   6 2570.91 333.311   2
  -2  -4  -6 2580.00 369.622   3
  -2  -4  -6 2984.68 491.793   6
   2   4   7 51745.4 1765.74   2
  -2  -4  -7 50619.2 2180.52   6
  -2  -4  -7 51682.5 1593.06   3
   2   4   8 10808.3 940.619   2
  -2  -4  -8 10929.6 1107.74   6
   2   4   9 194.763 197.873   2
  -2  -4  -9 353.522 318.075   6
   2   4  10 2837.12 591.589   2
  -2  -4 -10 3109.82 703.067   6
  -2  -4 -11-85.3539 276.456   6
   2   4  11 463.606 272.741   2
  -2  -4 -12 515.933 329.327   6
  -2  -4 -13 246.408 285.477   6
  -2  -5   8 7854.25 1353.14   2
  -2  -5   7 1703.61 613.840   2
  -2  -5   6 183.947 243.645   2
  -2  -5   5 1218.64 450.593   2
  -2  -5   4 6610.28 964.669   2
  -2  -5   4 5841.81 905.359   3
  -2  -5   3 244.678 214.608   2
  -2  -5   3 266.943 265.882   3
  -2  -5   2-0.75892 140.454   3
  -2  -5   2-220.477 173.460   2
  -2  -5   1 351.250 176.099   2
   2   5  -1 83.8995 116.016   5
  -2  -5   1 374.101 244.139   3
  -2  -5   0 4679.81 536.529   2
  -2  -5   0 4876.76 717.452   3
   2   5   0 5008.98 548.987   5
  -2  -5  -1 15871.3 1239.56   3
  -2  -5  -1 15974.5 845.533   2
  -2  -5  -1 18477.7 988.504   6
   2   5   1 17432.9 940.761   5
  -2  -5  -2 38096.7 1299.54   6
  -2  -5  -2 34459.7 1748.71   3
  -2  -5  -2 37489.6 968.857   2
  -2  -5  -2 36996.8 1445.53   1
   2   5   2 40451.3 1368.36   5
  -2  -5  -3 93.9861 109.533   6
  -2  -5  -3 153.307 117.681   1
  -2  -5  -3 35.9158 145.117   3
  -2  -5  -4 482.159 199.616   3
  -2  -5  -4 715.359 216.302   6
   2   5   5 14434.1 474.963   2
  -2  -5  -5 14368.5 1003.42   3
  -2  -5  -5 14366.9 1006.08   6
  -2  -5  -6 231.083 135.456   3
   2   5   6 112.997 75.8239   2
  -2  -5  -6 266.741 216.960   6
  -2  -5  -7 38847.2 1520.43   3
   2   5   7 39138.6 1403.67   2
  -2  -5  -7 35828.5 1853.69   6
  -2  -5  -8 13607.8 1251.44   6
   2   5   8 14041.4 985.670   2
  -2  -5  -9 2032.29 539.303   6
  -2  -5 -10 344.670 223.271   6
  -2  -5 -11 818.036 437.888   6
  -2  -5 -12-1138.04 494.079   6
  -2  -5 -13-54.7081 206.244   6
  -2  -6   7 2911.43 811.599   2
  -2  -6   6-61.4336 177.574   2
  -2  -6   5 2163.32 630.201   2
  -2  -6   4 4297.99 821.380   2
   2   6  -3 6580.37 886.095   5
  -2  -6   3 8835.48 1082.82   2
  -2  -6   3 9069.79 1181.62   3
   2   6  -2 6952.90 840.563   5
  -2  -6   2 5455.39 787.214   2
  -2  -6   2 6802.27 1000.10   3
   2   6  -1 9903.70 908.054   5
  -2  -6   1 9261.23 926.823   2
  -2  -6   1 8338.24 1063.39   3
   2   6   0 11968.7 930.509   5
  -2  -6   0 10646.3 883.726   2
  -2  -6   0 12223.6 1249.33   3
  -2  -6  -1 9678.65 714.372   2
  -2  -6  -1 10493.5 828.226   6
  -2  -6  -1 8621.31 999.105   3
   2   6   1 10088.4 803.325   5
  -2  -6  -2 7957.84 693.204   1
   2   6   2 7675.21 679.521   5
  -2  -6  -2 8079.58 683.862   6
  -2  -6  -2 6737.54 851.027   3
  -2  -6  -3 137.891 105.989   1
   2   6   3 126.919 88.7844   5
  -2  -6  -3 237.444 146.718   6
  -2  -6  -3 11.8676 170.624   3
  -2  -6  -4 15433.5 987.186   6
  -2  -6  -4 14219.4 1143.45   3
  -2  -6  -5 52.5858 94.5674   3
  -2  -6  -5 35.0645 111.281   6
  -2  -6  -6 1725.73 390.105   3
  -2  -6  -6 2250.13 454.845   6
  -2  -6  -7 1020.66 362.573   6
  -2  -6  -7 1775.66 376.033   3
  -2  -6  -8 474.141 227.027   6
  -2  -6  -9 418.842 227.283   6
  -2  -6 -10 4029.42 804.589   6
  -2  -6 -11 3233.74 753.393   6
  -2  -6 -12 1635.45 563.918   6
  -2  -6 -13 208.774 308.251   6
   2   7  -6 340.549 321.303   5
  -2  -7   6 529.452 351.879   2
   2   7  -5-164.784 246.939   5
  -2  -7   5-142.412 188.606   2
   2   7  -4 9331.75 1154.96   5
  -2  -7   4 8322.75 1180.54   2
   2   7  -3 1180.00 431.193   5
  -2  -7   3 681.286 398.196   3
  -2  -7   3 1308.74 448.208   2
   2   7  -2 2248.77 523.246   5
  -2  -7   2 2834.69 690.983   3
  -2  -7   2 3699.02 680.411   2
  -2  -7   1 33.3578 182.033   3
  -2  -7   1 74.8835 131.949   2
   2   7  -1 297.814 132.527   5
   2   7   0 343.538 186.304   5
  -2  -7   0 280.761 186.684   2
  -2  -7   0 12.8214 256.192   3
  -2  -7  -1 2752.49 481.537   6
   2   7   1 2873.44 469.800   5
  -2  -7  -1 2366.41 404.692   2
  -2  -7  -1 2916.27 678.703   3
  -2  -7  -2 7562.51 690.262   1
   2   7   2 8497.48 790.056   5
  -2  -7  -2 8183.73 773.253   6
  -2  -7  -2 8691.79 1063.18   3
   2   7   3 34.6846 152.072   5
  -2  -7  -3-125.450 154.970   6
  -2  -7  -3 281.796 245.567   3
  -2  -7  -4 17794.9 1095.06   6
  -2  -7  -4 15913.2 1329.36   3
  -2  -7  -5 2654.66 452.763   6
  -2  -7  -5 3644.99 607.260   3
  -2  -7  -6 1962.02 440.587   3
  -2  -7  -6 1881.29 448.140   6
  -2  -7  -7 537.164 274.502   6
  -2  -7  -7 384.737 210.498   3
  -2  -7  -8 6064.83 861.479   6
  -2  -7  -9 7267.95 1019.26   6
  -2  -7 -10 2531.75 647.777   6
  -2  -7 -11 921.937 416.719   6
  -2  -7 -12-394.960 346.230   6
  -2  -7 -13 261.880 265.246   6
   2   8  -5-341.975 285.930   5
  -2  -8   5 453.953 330.043   2
   2   8  -4-398.138 277.847   5
  -2  -8   4 306.106 265.077   2
   2   8  -3 240.476 224.021   5
  -2  -8   3 655.994 350.935   2
  -2  -8   2 2676.50 734.551   3
   2   8  -2 3225.94 638.666   5
  -2  -8   2 3023.09 651.082   2
  -2  -8   1 5921.90 828.096   2
   2   8  -1 5029.68 747.433   5
  -2  -8   1 5462.55 1010.28   3
  -2  -8   0-92.2107 129.151   2
  -2  -8   0-35.2737 266.161   3
   2   8   0 460.181 230.002   5
   2   8   1 5507.17 728.262   5
  -2  -8  -1 5427.98 947.052   3
  -2  -8  -1 5232.42 713.458   6
   2   8   2 18538.8 1271.12   5
  -2  -8  -2 19784.2 1302.85   6
  -2  -8  -2 18442.8 1673.49   3
   2   8   3 27.0653 118.973   5
  -2  -8  -3-73.6756 132.814   6
  -2  -8  -3 217.001 233.124   3
  -2  -8  -4 2917.48 508.550   1
  -2  -8  -4 3240.05 511.062   6
  -2  -8  -4 3296.12 677.058   3
  -2  -8  -5 298.355 225.736   3
  -2  -8  -5 134.466 144.424   6
  -2  -8  -6 20226.3 1392.95   6
  -2  -8  -6 20264.6 1552.29   3
  -2  -8  -7 712.916 324.300   6
  -2  -8  -7 562.500 232.734   3
  -2  -8  -8-70.0005 165.918   6
  -2  -8  -9 1979.82 537.849   6
  -2  -8 -10 381.096 307.838   6
  -2  -8 -11 69.1466 225.232   6
  -2  -8 -12 927.465 479.678   6
  -2  -8 -13 160.422 306.797   6
  -2  -9   4-178.231 204.735   2
   2   9  -4-216.360 246.259   5
   2   9  -3 198.055 279.105   5
   2   9  -2 4748.65 817.396   5
   2   9  -1 928.729 366.801   5
  -2  -9   1 320.557 287.671   3
  -2  -9   0 22504.1 2117.56   3
   2   9   0 19997.4 1531.93   5
   2   9   1 5303.49 769.609   5
  -2  -9  -1 5522.16 1038.99   3
   2   9   2-286.018 206.100   5
  -2  -9  -2-33.9945 224.361   3
  -2  -9  -2 57.7537 149.095   6
  -2  -9  -3 6686.31 808.972   6
   2   9   3 6723.63 846.975   5
  -2  -9  -3 7306.82 1087.11   3
  -2  -9  -4 17083.5 1239.25   6
  -2  -9  -4 15759.0 1570.41   3
  -2  -9  -4 12807.0 1086.73   1
  -2  -9  -5 15730.7 1523.52   3
  -2  -9  -5 14126.3 1143.05   6
  -2  -9  -6 12413.3 1323.79   3
  -2  -9  -6 13592.0 1170.89   6
  -2  -9  -7 2023.60 487.288   6
  -2  -9  -7 2010.22 517.506   3
  -2  -9  -8 3835.49 717.167   6
  -2  -9  -9 223.628 220.240   6
  -2  -9 -10-285.903 262.539   6
  -2  -9 -11 115.829 324.670   6
  -2  -9 -12 233.101 303.110   6
   2  10  -3 175.337 255.937   5
   2  10  -2 7511.32 1067.41   5
   2  10  -1 466.608 265.491   5
   2  10   0 429.103 299.300   5
  -2 -10   0-512.666 387.199   3
   2  10   1 39.0283 139.413   5
  -2 -10  -1-232.108 282.582   3
   2  10   2 1108.85 383.770   5
  -2 -10  -2 644.044 385.876   3
  -2 -10  -2 485.545 244.583   6
  -2 -10  -3 192.727 132.170   6
   2  10   3 315.249 230.870   5
  -2 -10  -3 580.936 359.941   3
  -2 -10  -4-204.562 241.177   3
  -2 -10  -4 96.9322 206.180   6
  -2 -10  -5 2425.37 529.843   1
  -2 -10  -5 3718.86 627.423   6
  -2 -10  -5 3773.49 813.281   3
  -2 -10  -6 11357.9 1105.30   6
  -2 -10  -6 13860.1 1512.35   3
  -2 -10  -7 1078.00 411.376   3
  -2 -10  -7 2013.97 528.726   6
  -2 -10  -8 832.618 366.469   6
  -2 -10  -9 217.413 240.296   6
  -2 -10 -10 2206.40 621.622   6
  -2 -10 -11 1109.72 502.791   6
  -2 -10 -12 338.834 315.557   6
   2  11  -2-133.393 183.290   5
   2  11  -1 1792.59 554.178   5
   2  11   0-174.683 201.076   5
   2  11   1 144.777 253.660   5
  -2 -11  -1 175.586 287.438   3
   2  11   2 228.919 221.948   5
  -2 -11  -2 909.336 523.502   3
  -2 -11  -2 1225.20 439.814   6
   2  11   3 5242.96 859.131   5
  -2 -11  -3 6668.34 935.044   6
  -2 -11  -3 6931.93 1230.63   3
  -2 -11  -4 728.874 345.708   6
  -2 -11  -4 1921.33 658.104   3
  -2 -11  -5 1620.58 573.439   3
  -2 -11  -5 1552.72 440.519   6
  -2 -11  -6 3050.27 773.469   3
  -2 -11  -6 2613.22 562.291   6
  -2 -11  -7 419.353 265.769   6
  -2 -11  -7 139.281 213.980   3
  -2 -11  -8 145.805 239.364   6
  -2 -11  -9-150.480 235.624   6
  -2 -11 -10 407.188 279.618   6
  -2 -11 -11 912.333 455.676   6
   2  12   0 25.5864 163.559   5
   2  12   1-137.242 187.012   5
   2  12   2 1262.30 462.591   5
   2  12   3-159.531 200.970   5
  -2 -12  -3 219.371 299.140   3
  -2 -12  -3 36.9673 167.136   6
  -2 -12  -4 206.070 269.614   3
  -2 -12  -4 290.516 272.744   6
  -2 -12  -5 741.250 447.889   3
  -2 -12  -5 126.493 199.568   6
  -2 -12  -6 482.001 348.240   3
  -2 -12  -6 318.117 231.178   6
  -2 -12  -7 225.450 248.062   3
  -2 -12  -7 250.655 217.212   6
  -2 -12  -8 892.377 378.669   6
  -2 -12  -9 948.065 409.198   6
  -2 -12 -10-72.8575 180.054   6
  -2 -13  -3 246.034 265.792   6
  -2 -13  -4 124.744 264.050   6
  -2 -13  -5 12.8128 253.455   6
  -2 -13  -6 72.6371 171.289   3
  -2 -13  -6 730.190 354.286   6
  -2 -13  -7 1325.98 577.876   3
  -2 -13  -7 534.150 318.330   6
  -2 -13  -8 2849.23 656.260   6
  -2 -13  -9 46.4692 262.902   6
   3 -12  -6-3.93562 206.524   6
   3 -12  -5 928.104 392.439   6
   3 -12  -4 1153.57 456.994   6
   3 -12  -3 1534.32 533.126   6
   3 -12  -2-174.795 232.608   6
   3 -12  -1 9.06962 243.550   6
   3 -11  -8-36.0996 249.290   6
   3 -11  -7 4888.66 881.914   6
   3 -11  -6 324.572 288.759   6
   3 -11  -5-100.712 255.203   6
   3 -11  -4 1154.60 427.192   6
   3 -11  -3 326.686 305.328   6
   3 -11  -2-297.499 244.950   6
   3 -11  -1-63.3060 184.021   6
  -3  11   1-28.4769 188.865   5
  -3  11   0-411.302 390.927   5
   3 -11   0 116.675 187.575   6
  -3  11  -1 974.666 515.051   5
   3 -10  -9 557.337 348.399   6
   3 -10  -8 2295.22 618.104   6
   3 -10  -7-0.96256 243.369   6
   3 -10  -6 471.003 274.542   6
   3 -10  -5 305.282 274.672   6
   3 -10  -4 2715.19 594.300   6
   3 -10  -3 4770.81 769.691   6
   3 -10  -2 1512.03 481.506   6
  -3  10   1 241.992 256.066   5
   3 -10  -1-213.292 298.600   6
  -3  10   0 1413.61 505.603   5
  -3  10   0 302.554 248.323   4
   3 -10   0 929.805 401.198   6
  -3  10  -1 2638.06 662.911   4
  -3  10  -1 2530.31 640.881   5
  -3  10  -2 1251.16 531.713   5
  -3  10  -3 2871.94 750.176   5
   3  -9 -10 180.022 248.423   6
   3  -9  -9 187.444 345.681   6
   3  -9  -8 1051.45 433.041   6
   3  -9  -7 3124.79 680.621   6
   3  -9  -6 1293.04 443.621   6
   3  -9  -5 125.635 191.979   6
   3  -9  -4 44.6206 191.293   6
   3  -9  -3 5380.64 772.638   6
  -3   9   3 4633.22 723.026   4
  -3   9   2 1779.57 474.404   4
   3  -9  -2 2010.69 511.145   6
  -3   9   1-502.583 338.905   5
  -3   9   1-92.5439 176.567   4
   3  -9  -1-106.928 194.662   6
  -3   9   0 94.9876 256.806   5
   3  -9   0 568.316 360.616   6
  -3   9   0 213.452 221.295   4
  -3   9  -1 414.891 275.960   4
  -3   9  -1-253.382 304.998   5
  -3   9  -2 7875.33 1132.49   5
  -3   9  -3 6200.24 1029.98   5
  -3   9  -4 597.806 297.548   5
   3  -8 -10 84.6243 213.128   6
   3  -8  -9 190.424 296.956   6
  -3   8   9 17.1217 133.844   2
  -3   8   8 557.380 304.206   2
   3  -8  -8 88.5339 185.678   6
  -3   8   7 401.862 246.277   2
   3  -8  -7-67.4097 187.549   6
  -3   8   6 326.270 205.755   4
   3  -8  -6 1104.21 392.177   6
  -3   8   5 5265.31 746.779   4
   3  -8  -5 5203.31 784.039   6
  -3   8   4 6151.28 787.632   4
   3  -8  -4 7061.83 854.941   6
   3  -8  -3 350.251 250.623   6
  -3   8   3-40.5710 111.463   4
  -3   8   2 479.553 265.642   4
   3  -8  -2 175.024 220.173   6
   3  -8  -1 26521.3 1645.05   6
  -3   8   1 22689.1 1610.03   4
  -3   8   1 23948.3 1816.68   5
  -3   8   0-433.731 279.940   4
  -3   8   0-4.24741 218.619   5
   3  -8   0-530.382 276.987   6
  -3   8  -1 951.014 371.489   5
   3  -8   1 918.175 321.491   6
  -3   8  -1 769.895 336.723   4
  -3   8  -2 1234.66 401.871   5
  -3   8  -3 8527.63 1123.50   5
  -3   8  -4 7971.29 1137.20   5
  -3   8  -5 405.940 396.115   5
  -3   8  -6 1797.43 563.774   5
  -3   7  11 460.963 338.263   2
   3  -7 -11-15.2264 205.331   6
   3  -7 -10 276.734 300.712   6
  -3   7  10-61.9232 142.635   2
   3  -7  -9-341.277 302.239   6
  -3   7   9 674.018 353.485   2
  -3   7   8-80.2721 173.283   2
   3  -7  -8 149.197 171.799   6
  -3   7   7 383.659 238.374   2
   3  -7  -7 480.346 275.882   6
  -3   7   6 10624.6 1097.91   4
   3  -7  -6 11018.7 1181.11   6
  -3   7   6 13648.8 1279.27   2
  -3   7   5 2872.81 559.816   4
   3  -7  -5 2755.01 545.382   6
  -3   7   4 575.538 226.905   4
   3  -7  -4 678.359 283.775   6
  -3   7   3 2521.39 480.070   4
   3  -7  -3 3264.24 533.102   6
   3  -7  -2 11197.1 967.485   6
  -3   7   2 10715.1 995.378   4
  -3   7   1 8726.91 939.194   4
   3  -7  -1 9622.08 914.191   6
  -3   7   1 9623.99 1079.20   5
   3  -7   0 1804.94 414.298   6
  -3   7   0 2210.13 490.222   4
  -3   7   0 2616.07 590.288   5
  -3   7  -1 173.515 226.640   5
   3  -7   1 60.3225 250.263   6
  -3   7  -2 464.010 280.638   5
  -3   7  -3 566.048 304.667   5
  -3   7  -4 5749.77 905.372   5
  -3   7  -5 589.577 325.672   5
  -3   7  -6-80.8342 200.327   5
  -3   7  -7 584.231 344.463   5
  -3   6  11 597.274 378.879   2
   3  -6 -11 1370.36 561.057   6
  -3   6  10-329.923 316.023   2
   3  -6 -10 723.956 418.101   6
  -3   6   9-303.111 279.108   2
   3  -6  -9 39.1663 241.684   6
   3  -6  -8 9783.97 1228.26   6
  -3   6   8 9154.82 1151.78   2
  -3   6   7 11337.3 1211.16   2
   3  -6  -7 11851.9 1271.12   6
  -3   6   6 1472.67 418.398   2
   3  -6  -6 1601.88 454.960   6
  -3   6   5 4549.88 674.196   4
   3  -6  -5 6387.27 831.614   6
  -3   6   4 1221.74 344.781   4
   3  -6  -4 1185.09 354.961   6
  -3   6   3 11313.9 994.917   4
   3  -6  -3 12087.5 994.828   6
  -3   6   2 1920.71 419.833   4
   3  -6  -2 1525.75 340.695   6
  -3   6   1 14032.8 1130.56   4
   3  -6  -1 15992.1 1060.77   6
  -3   6   1 14425.4 1234.22   5
  -3   6   0 605.833 295.913   5
  -3   6   0 669.817 293.841   4
   3  -6   0 952.661 288.709   6
  -3   6  -1 1444.16 412.266   5
   3  -6   1 1508.72 356.067   6
  -3   6  -2 2273.14 500.290   5
  -3   6  -3 472.009 270.018   5
  -3   6  -4 4237.16 731.898   5
  -3   6  -5 728.164 341.163   5
  -3   6  -6 923.289 322.279   5
  -3   6  -7 3926.77 781.269   5
  -3   6  -8-494.870 330.548   5
  -3   5  11 709.311 410.371   2
   3  -5 -11 281.076 341.761   6
  -3   5  10 5534.82 1036.58   2
   3  -5 -10 5484.61 1029.27   6
   3  -5  -9 5815.56 1021.30   6
  -3   5   9 5700.53 982.082   2
  -3   5   8 9755.23 1208.09   2
   3  -5  -8 8782.63 1151.35   6
   3  -5  -7 17438.9 1519.04   6
  -3   5   7 19073.2 1575.84   2
   3  -5  -6 1096.24 328.181   6
  -3   5   6 1198.71 393.253   2
   3  -5  -5 11140.1 1067.61   6
  -3   5   5 9471.09 972.191   4
  -3   5   5 11576.5 1097.23   2
   3  -5  -4 2462.50 472.677   6
  -3   5   4 2216.19 446.656   4
   3  -5  -3 10869.2 914.459   6
  -3   5   3 9875.15 890.222   4
  -3   5   2 163382. 3551.29   4
  -3   5   1 3138.35 519.516   4
  -3   5   0 871.119 272.613   5
  -3   5   0 1012.86 317.769   4
  -3   5  -1 259.563 208.773   5
  -3   5  -1 150.183 145.576   4
   3  -5   1 335.181 166.986   6
  -3   5  -2 1665.70 407.158   5
  -3   5  -3 6168.20 781.625   5
  -3   5  -4 477.383 261.524   5
  -3   5  -5 13209.1 1254.90   5
  -3   5  -6 198.273 224.397   5
  -3   5  -7 441.975 295.454   5
   3  -5   7 727.204 363.128   2
   3  -5   8-234.675 335.634   2
  -3   5  -8-398.576 276.286   5
   3  -5   9-55.4084 249.063   2
  -3   5  -9-542.066 332.642   5
  -3   4  11 6369.79 1201.25   2
   3  -4 -11 7314.31 1286.91   6
  -3   4  10 2084.96 623.840   2
   3  -4 -10 1430.53 561.563   6
  -3   4   9 4534.52 898.419   2
   3  -4  -9 2862.72 721.981   6
  -3   4   8 6477.87 1001.68   2
   3  -4  -8 4996.57 871.197   6
   3  -4  -7 11695.8 1235.73   6
  -3   4   7 11156.7 1239.13   2
   3  -4  -6 21764.8 1555.49   6
  -3   4   6 24570.3 1670.13   2
  -3   4   5 3155.51 559.699   2
   3  -4  -5 2481.53 497.887   6
  -3   4   4 26910.8 1549.69   4
   3  -4  -4 26651.7 1493.79   6
  -3   4   3 4682.20 597.330   4
  -3   4   2 50015.3 1871.71   4
  -3   4   1 83372.5 2385.52   4
   3  -4  -1 88163.3 2079.01   6
   3  -4   0 6896.89 580.586   6
  -3   4   0 5905.76 671.230   4
  -3   4   0 5784.77 651.860   5
  -3   4  -1 29746.5 1570.76   4
  -3   4  -1 30548.9 1474.49   5
  -3   4  -2 32815.9 1570.08   5
  -3   4  -3 1072.50 319.975   5
  -3   4  -4 371.639 198.368   5
  -3   4  -5 606.349 313.645   5
  -3   4  -6 5179.75 792.017   5
   3  -4   6 6154.85 960.692   2
  -3   4  -7 21.2635 241.925   5
   3  -4   7 120.613 309.106   2
   3  -4   7 43.0455 197.737   7
  -3   4  -8 1416.97 496.954   5
   3  -4   8 297.411 195.487   2
   3  -4   9-486.390 346.642   2
  -3   4  -9 373.851 287.182   5
  -3   4 -10 908.673 405.820   5
  -3   3  11 2475.76 767.236   2
   3  -3 -11 2269.65 711.927   6
  -3   3  10 297.128 295.599   2
   3  -3 -10 145.799 241.716   6
   3  -3  -9 803.074 391.164   6
  -3   3   9 619.611 400.679   2
  -3   3   8 36.8437 260.807   2
   3  -3  -8-70.0013 148.719   6
   3  -3  -7 8950.25 1082.80   6
  -3   3   7 9472.23 1159.04   2
   3  -3  -6 12529.4 1188.31   6
  -3   3   6 11762.6 1193.95   2
  -3   3   5 718.400 301.877   2
   3  -3  -5 559.625 244.794   6
  -3   3   4 4400.88 631.664   2
  -3   3   3 100286. 2777.26   4
   3  -3  -3 94350.9 2488.77   6
  -3   3   2 99713.6 2571.60   4
   3  -3  -2 94520.6 2249.31   6
  -3   3   1 86787.1 2358.02   4
   3  -3  -1 93845.8 2004.66   6
  -3   3   0 10731.8 811.365   5
  -3   3   0 10077.4 823.509   4
   3  -3   0 9589.40 595.812   6
  -3   3  -1 14535.0 921.400   5
  -3   3  -1 15664.9 1052.81   4
   3  -3   1 15526.7 819.491   6
  -3   3  -2-12.5889 79.7488   5
  -3   3  -3 1364.06 318.359   5
  -3   3  -4 27435.1 1464.02   5
  -3   3  -5 1121.14 287.924   5
   3  -3   5 716.043 267.682   2
  -3   3  -6 5859.69 807.963   5
   3  -3   6 5817.91 884.466   2
  -3   3  -7 5203.27 799.699   5
   3  -3   7 7105.58 1038.56   2
   3  -3   7 6366.11 908.464   7
   3  -3   8 680.875 416.900   2
   3  -3   8 975.913 397.682   7
   3  -3   9-395.413 481.443   2
   3  -3  10 1896.42 659.424   2
   3  -2 -11-147.563 247.485   6
  -3   2  10-234.388 254.886   2
   3  -2 -10 199.686 279.301   6
  -3   2   9 544.646 341.309   2
   3  -2  -9-2.21935 201.779   6
   3  -2  -8-263.079 247.216   6
  -3   2   8-94.5789 214.888   2
   3  -2  -7 1028.76 362.703   6
  -3   2   7 486.982 300.736   2
   3  -2  -6 370.411 231.751   6
  -3   2   6 531.518 321.304   2
   3  -2  -5 25476.8 1547.75   6
  -3   2   5 29614.9 1760.70   2
  -3   2   4 3556.36 559.076   2
  -3   2   4 4039.77 366.295   3
  -3   2   3 17401.2 1157.84   4
   3  -2  -3 17669.8 1035.70   6
  -3   2   3 17872.3 1184.48   2
  -3   2   2 423.984 188.441   4
   3  -2  -2 192.416 104.092   6
  -3   2   1 303.457 136.944   4
   3  -2  -1 599.097 162.113   6
  -3   2   0 133045. 2736.29   4
   3  -2   0 138412. 1982.79   6
  -3   2  -1 4031.57 495.511   4
   3  -2   1 5530.21 408.488   6
  -3   2  -1 4864.39 473.753   5
  -3   2  -2 4287.90 461.362   5
  -3   2  -3 5478.51 544.000   5
  -3   2  -4 5287.39 608.866   5
  -3   2  -5 9897.67 894.272   5
  -3   2  -5 9791.83 675.956   1
   3  -2   5 9670.79 998.749   2
  -3   2  -6 20410.2 1062.77   1
   3  -2   6 21161.0 1560.36   2
   3  -2   6 18930.0 1402.69   7
   3  -2   7 23884.7 1768.59   2
   3  -2   7 22988.4 1672.66   7
   3  -2   8 716.646 373.181   7
   3  -2   8-701.039 365.208   2
   3  -2   9 4.85060 172.733   7
   3  -2   9 320.545 327.017   2
   3  -2  10 1308.86 530.867   2
   3  -2  11-229.380 281.613   2
  -3   1  10-187.655 251.469   2
   3  -1 -10 679.538 409.069   6
  -3   1   9 1043.85 480.221   2
   3  -1  -9 1065.30 497.950   6
  -3   1   8 1508.94 539.922   2
   3  -1  -8 2094.26 579.529   6
   3  -1  -7 1375.99 464.374   6
  -3   1   7 2132.85 583.243   2
   3  -1  -6 440.464 299.689   6
  -3   1   6 274.693 284.664   2
   3  -1  -5-445.880 235.067   6
  -3   1   5 320.458 193.210   2
  -3   1   4 355.502 205.291   2
  -3   1   4 664.667 168.418   3
  -3   1   3 53.9333 71.1651   3
  -3   1   3 43.5204 146.193   2
   3  -1  -3-19.9419 96.8879   6
  -3   1   2 4720.05 565.799   4
   3  -1  -2 4601.64 456.852   6
  -3   1   1 101336. 2417.78   4
   3  -1  -1 96689.7 1775.12   6
  -3   1   0 5161.05 514.589   4
   3  -1   0 5420.97 334.951   6
   3  -1   1 7653.04 383.552   6
  -3   1  -1 8092.14 524.346   5
  -3   1  -2 8058.55 676.487   4
  -3   1  -2 8762.58 551.827   5
  -3   1  -3 7185.97 561.352   5
  -3   1  -4 636.506 193.026   5
  -3   1  -4 804.827 201.910   1
   3  -1   5 16628.6 1204.22   2
  -3   1  -5 16440.9 961.892   1
   3  -1   6 11124.9 1052.60   7
   3  -1   6 10474.6 1032.09   2
  -3   1  -6 9185.03 786.747   1
   3  -1   7 3758.89 671.241   7
  -3   1  -7 3857.56 539.142   1
   3  -1   7 3612.78 648.433   2
   3  -1   8 16517.5 1470.31   7
   3  -1   8 17060.2 1512.04   2
   3  -1   9 2507.40 618.580   7
   3  -1   9 1487.81 481.312   2
   3  -1  10-192.018 211.504   7
   3  -1  10 385.417 332.399   2
   3  -1  11 3715.48 880.241   2
   3  -1  12 2049.26 700.835   2
   3   0 -10 181.731 293.449   6
  -3   0  10 296.687 302.672   2
  -3   0   9-36.9271 150.510   2
  -3   0   8 2306.17 666.148   2
  -3   0   7 16697.8 1659.60   2
  -3   0   6 1825.81 495.059   2
  -3   0   5 5129.64 813.989   2
  -3   0   4 25199.8 1603.08   2
  -3   0   4 23955.5 1160.00   3
  -3   0   3 3493.96 545.908   2
  -3   0   3 3785.61 433.994   3
  -3   0   2 1464.66 269.206   3
  -3   0   2 1947.13 365.196   2
  -3   0   1 13455.3 883.650   4
   3   0  -1 13446.4 633.032   6
  -3   0   0 17590.4 925.979   4
   3   0   0 17714.6 526.223   6
  -3   0  -1 115.112 89.4752   4
  -3   0  -2 10798.1 733.050   4
  -3   0  -2 12642.6 515.175   5
  -3   0  -3 168890. 2905.23   1
  -3   0  -3 169629. 2259.46   5
  -3   0  -4 356.386 133.997   1
   3   0   5 13926.2 1010.83   2
  -3   0  -5 13266.6 906.205   1
   3   0   6 4723.77 651.584   2
   3   0   6 5116.45 716.178   7
  -3   0  -6 4197.31 554.775   1
   3   0   7 17122.0 1320.28   2
   3   0   7 15507.4 1312.58   7
   3   0   8 6137.27 882.477   7
   3   0   8 4286.78 724.145   2
   3   0   9 781.618 341.539   2
   3   0   9 1153.72 451.003   7
   3   0  10 341.863 264.535   7
   3   0  10 157.700 219.688   2
   3   0  11-377.422 294.674   2
   3   0  12 1216.30 523.644   2
  -3  -1   9 90.3912 226.823   2
  -3  -1   8 433.501 336.257   2
  -3  -1   7 21555.2 1930.40   2
  -3  -1   6 2970.39 692.188   2
  -3  -1   5 32581.5 2039.48   2
  -3  -1   4 235.455 194.651   2
  -3  -1   4 369.285 173.024   3
  -3  -1   3 12209.6 1044.84   2
  -3  -1   3 11809.9 870.621   3
  -3  -1   2 11997.1 918.689   2
  -3  -1   2 10205.0 763.950   3
  -3  -1   1 15326.2 921.082   2
  -3  -1   1 16198.2 919.836   3
  -3  -1   0 99989.6 2236.85   4
  -3  -1  -1 157755. 2517.87   4
  -3  -1  -2 3024.79 346.484   4
  -3  -1  -3 5529.50 492.912   4
  -3  -1  -3 6938.38 352.908   5
  -3  -1  -4 926.414 246.136   1
   3   1   5 342.863 163.492   2
  -3  -1  -5 49.5192 89.0016   1
   3   1   6 2867.55 524.908   7
   3   1   6 3440.18 504.827   2
   3   1   7 3769.32 643.176   7
   3   1   7 4161.94 609.446   2
   3   1   8 11626.5 1217.31   7
   3   1   8 12645.8 1163.04   2
   3   1   9 533.812 329.059   7
   3   1   9 448.929 272.390   2
   3   1  10-76.7169 235.405   7
   3   1  10-171.249 202.575   2
   3   1  11 287.980 265.787   2
   3   1  12 1267.02 520.818   2
   3   1  13 876.996 470.641   2
  -3  -2   9 2388.32 746.335   2
  -3  -2   8 470.466 396.379   2
  -3  -2   7 88.8778 171.029   2
  -3  -2   6 3533.38 746.571   2
  -3  -2   5 9762.50 1162.74   2
  -3  -2   5 11518.8 1038.42   3
  -3  -2   4 3249.69 614.660   2
  -3  -2   4 4040.44 598.964   3
  -3  -2   3 4951.38 634.770   3
  -3  -2   3 5548.77 741.037   2
  -3  -2   2 63310.8 2168.90   3
  -3  -2   2 64920.7 2244.94   2
  -3  -2   1 3834.87 502.386   3
  -3  -2   1 4466.03 528.418   2
   3   2   0 56599.9 1170.92   7
  -3  -2   0 55945.6 1603.96   2
  -3  -2   0 56412.5 1834.24   3
   3   2   1 40830.9 1207.74   7
  -3  -2  -1 44839.3 1254.22   2
  -3  -2  -1 42923.7 1550.67   3
  -3  -2  -1 40302.1 1293.14   4
  -3  -2  -2 37930.3 1107.01   4
  -3  -2  -2 39196.2 679.891   6
  -3  -2  -3 8060.03 524.233   4
  -3  -2  -3 7843.51 443.036   6
  -3  -2  -4 14223.9 765.743   6
   3   2   5 13711.1 829.981   2
   3   2   6 67923.7 2059.66   2
   3   2   7 11593.7 964.240   2
   3   2   7 9355.37 1009.29   7
   3   2   8 326.027 217.133   7
   3   2   8 333.214 176.445   2
   3   2   9 1234.20 400.708   2
   3   2   9 1688.42 517.828   7
   3   2  10 184.467 203.955   2
   3   2  11 442.814 320.939   2
   3   2  12 78.5328 209.402   2
   3   2  13 1093.22 484.573   2
  -3  -2 -13 1285.72 539.081   6
  -3  -3   8 649.647 433.442   2
  -3  -3   7 977.685 460.815   2
  -3  -3   6-232.766 232.424   2
  -3  -3   5 14412.9 1451.00   2
  -3  -3   5 15535.0 1340.19   3
  -3  -3   4 27231.4 1859.23   2
  -3  -3   4 28052.0 1734.54   3
  -3  -3   3 34691.5 1858.40   3
  -3  -3   3 33663.5 1902.27   2
  -3  -3   2 1393.13 380.076   3
  -3  -3   2 1546.74 379.671   2
  -3  -3   1 73433.2 2275.54   2
  -3  -3   1 75012.6 2482.87   3
  -3  -3   0 9761.83 720.998   2
  -3  -3   0 8989.73 814.100   3
  -3  -3  -1 19413.3 1159.89   3
  -3  -3  -1 18762.6 837.888   2
  -3  -3  -2 63611.8 1446.48   4
   3   3   2 72558.5 996.458   5
  -3  -3  -2 71633.4 1206.27   6
  -3  -3  -2 64987.7 1272.99   2
  -3  -3  -2 67651.2 2085.01   3
  -3  -3  -3 2325.04 241.894   4
  -3  -3  -3 1772.34 338.327   3
  -3  -3  -3 2380.91 260.697   6
   3   3   3 2072.53 363.302   7
  -3  -3  -4 54446.5 1286.82   4
  -3  -3  -4 54741.3 1506.25   6
  -3  -3  -5 7569.63 655.936   6
   3   3   6 40696.7 1448.11   2
  -3  -3  -6 41242.0 1711.97   6
   3   3   7 1696.17 424.872   7
  -3  -3  -7 1929.49 429.085   6
   3   3   7 1382.26 307.296   2
  -3  -3  -8-2.58717 244.327   6
   3   3   8 409.591 214.897   2
  -3  -3  -9 5975.90 859.595   6
   3   3   9 8097.08 908.424   2
  -3  -3 -10 611.665 311.710   6
   3   3  10 659.022 314.999   2
  -3  -3 -11 1183.58 452.784   6
   3   3  11 2468.93 591.358   2
  -3  -3 -12 791.627 396.011   6
   3   3  12 863.158 342.466   2
  -3  -3 -13 1007.70 518.509   6
  -3  -4   8 133.814 230.701   2
  -3  -4   7 19.5308 142.077   2
  -3  -4   6 278.283 281.059   2
  -3  -4   5-242.865 252.968   2
  -3  -4   5 177.789 182.185   3
  -3  -4   4 3948.58 740.783   2
  -3  -4   4 4783.44 792.650   3
  -3  -4   3 10861.5 1127.30   2
  -3  -4   3 13968.6 1285.35   3
  -3  -4   2 4940.97 689.453   2
  -3  -4   2 3985.30 680.269   3
  -3  -4   1 11059.5 932.848   2
  -3  -4   1 11720.6 1096.75   3
  -3  -4   0 82094.8 2781.47   3
  -3  -4   0 83714.7 2268.96   2
  -3  -4  -1 81183.4 1905.46   2
  -3  -4  -1 77826.7 2586.38   3
   3   4   1 84258.6 1767.15   5
  -3  -4  -2 119005. 1963.44   6
  -3  -4  -2 114893. 1769.17   2
   3   4   2 119620. 1833.16   5
  -3  -4  -3 61025.6 2097.83   1
  -3  -4  -3 66177.3 1499.42   6
  -3  -4  -3 64655.4 875.767   2
  -3  -4  -3 65169.3 2199.75   3
  -3  -4  -4 4834.06 468.104   6
  -3  -4  -4 4466.86 267.865   4
  -3  -4  -4 4908.08 586.629   3
  -3  -4  -5 1155.69 292.508   3
  -3  -4  -5 1112.66 166.459   4
  -3  -4  -5 1018.90 239.279   6
  -3  -4  -6 2699.70 432.217   6
  -3  -4  -6 1967.88 377.753   3
   3   4   6 2308.70 310.251   2
   3   4   7 2195.47 350.501   2
  -3  -4  -7 1537.03 329.088   3
  -3  -4  -7 2682.70 489.263   6
   3   4   8 17580.6 1120.27   2
  -3  -4  -8 17761.1 1082.18   3
  -3  -4  -8 15565.8 1293.29   6
  -3  -4  -9 4117.03 731.095   6
   3   4   9 3663.67 575.963   2
  -3  -4 -10 815.064 325.610   6
  -3  -4 -11 4608.93 848.424   6
  -3  -4 -12-116.712 214.628   6
  -3  -4 -13 599.436 335.042   6
  -3  -5   7 398.627 345.112   2
  -3  -5   6 967.009 399.768   2
  -3  -5   5 5201.68 920.202   3
  -3  -5   5 4186.30 856.306   2
  -3  -5   4 148.760 263.445   2
  -3  -5   4-142.129 187.075   3
  -3  -5   3 3199.57 639.647   2
  -3  -5   3 2296.22 584.176   3
  -3  -5   2 19848.8 1455.86   2
  -3  -5   2 18728.8 1567.17   3
  -3  -5   1 4553.11 651.313   2
  -3  -5   1 5588.68 839.914   3
  -3  -5   0 109.896 158.044   3
   3   5   0 8.85885 92.2519   5
  -3  -5   0-107.441 105.520   2
  -3  -5  -1 3950.75 453.674   2
   3   5   1 4412.64 465.039   5
  -3  -5  -2 22687.6 1001.90   6
  -3  -5  -2 19911.7 815.781   2
  -3  -5  -2 20503.3 1431.65   3
   3   5   2 21248.3 935.408   5
  -3  -5  -3 39949.6 1894.66   3
  -3  -5  -3 43033.0 1316.49   6
   3   5   3 40762.6 1260.19   5
  -3  -5  -4 38190.0 1370.93   6
  -3  -5  -4 37310.8 1772.32   3
  -3  -5  -5 20788.7 1305.69   3
  -3  -5  -5 22657.1 1189.90   6
  -3  -5  -6 5990.06 353.302   4
  -3  -5  -6 6129.51 680.450   6
  -3  -5  -6 5618.77 678.977   3
  -3  -5  -7 801.831 266.222   6
  -3  -5  -7 1059.55 300.302   3
  -3  -5  -8 1274.34 315.213   3
  -3  -5  -8 1072.65 367.765   6
  -3  -5  -9 285.443 257.501   6
  -3  -5 -10 7055.68 1012.48   6
  -3  -5 -11 99.9132 185.018   6
  -3  -5 -12 1177.34 469.210   6
  -3  -5 -13-52.1376 226.593   6
  -3  -6   6 948.321 428.922   2
  -3  -6   5 3218.24 778.057   2
  -3  -6   4 1761.96 537.771   2
  -3  -6   4 2972.85 737.872   3
  -3  -6   3 273.854 245.239   2
  -3  -6   3 181.651 235.117   3
  -3  -6   2-43.1220 163.860   2
   3   6  -2 197.965 125.294   5
  -3  -6   2 290.845 267.057   3
  -3  -6   1 2509.02 504.094   2
   3   6  -1 2911.08 507.917   5
  -3  -6   0 8655.42 826.685   2
   3   6   0 7394.13 735.527   5
  -3  -6   0 8264.25 1083.89   3
  -3  -6  -1 2482.59 389.376   2
   3   6   1 2912.16 419.699   5
  -3  -6  -1 2364.62 581.351   3
  -3  -6  -2 1236.44 404.029   3
  -3  -6  -2 1742.25 261.051   2
   3   6   2 2024.08 339.193   5
  -3  -6  -2 2389.59 375.086   6
   3   6   3 1498.05 305.463   5
  -3  -6  -3 2264.66 547.956   3
  -3  -6  -3 1298.63 273.597   6
  -3  -6  -4 102248. 2378.57   6
  -3  -6  -4 100861. 2886.17   1
  -3  -6  -4 98276.1 3204.24   3
  -3  -6  -5 883.060 316.540   3
  -3  -6  -5 1965.81 374.935   6
  -3  -6  -5 1301.07 380.871   1
  -3  -6  -6 12542.1 1079.31   3
  -3  -6  -6 14032.1 1058.66   6
  -3  -6  -7 319.141 180.139   3
  -3  -6  -7 207.946 163.869   6
  -3  -6  -8 650.090 269.438   3
  -3  -6  -8 972.150 311.185   6
  -3  -6  -9 3027.57 633.980   6
  -3  -6 -10 1168.19 444.558   6
  -3  -6 -11 1445.75 505.719   6
  -3  -6 -12 848.720 450.052   6
  -3  -6 -13 514.045 369.458   6
  -3  -7   6 1769.94 643.484   2
   3   7  -6 979.111 431.361   5
  -3  -7   5-93.7453 191.916   2
   3   7  -5 223.719 206.414   5
   3   7  -4 1856.67 552.285   5
  -3  -7   4 886.376 447.125   3
   3   7  -3 424.802 294.847   5
  -3  -7   3 493.772 287.522   2
  -3  -7   3 463.203 332.854   3
  -3  -7   2 273.498 207.040   2
   3   7  -2-2.80961 136.357   5
  -3  -7   2 105.138 249.524   3
  -3  -7   1 200.617 169.406   2
   3   7  -1 67.9766 115.095   5
  -3  -7   1-51.4408 275.771   3
  -3  -7   0 5318.38 694.400   2
  -3  -7   0 4857.16 895.777   3
   3   7   0 6523.27 743.316   5
   3   7   1 1846.59 391.085   5
  -3  -7  -1 2372.88 404.428   2
  -3  -7  -1 1428.44 476.960   3
  -3  -7  -2 6051.23 924.126   3
  -3  -7  -2 7511.69 735.626   6
   3   7   2 7200.66 713.311   5
  -3  -7  -3 29880.2 1391.74   6
   3   7   3 27621.0 1352.17   5
  -3  -7  -3 29980.7 1990.71   3
  -3  -7  -4 351.555 232.703   3
  -3  -7  -4 141.263 104.079   6
  -3  -7  -4 139.514 161.875   1
  -3  -7  -5 11393.4 1165.13   3
  -3  -7  -5 11149.8 882.249   6
  -3  -7  -5 9930.85 1010.25   1
  -3  -7  -6 1022.69 343.623   3
  -3  -7  -6 1270.07 341.666   6
  -3  -7  -7 903.672 288.816   3
  -3  -7  -7 1120.21 361.352   6
  -3  -7  -8 2830.69 544.535   3
  -3  -7  -8 2747.55 569.458   6
  -3  -7  -9 6121.10 910.629   6
  -3  -7 -10 2975.20 692.880   6
  -3  -7 -11 2123.51 585.528   6
  -3  -7 -12 610.398 437.870   6
  -3  -7 -13 164.154 249.797   6
   3   8  -5-452.229 323.847   5
  -3  -8   5 152.922 229.007   2
   3   8  -4 506.205 310.574   5
  -3  -8   4 885.495 424.210   2
   3   8  -3-66.9397 189.554   5
  -3  -8   3-213.220 290.350   3
  -3  -8   3 245.732 216.639   2
  -3  -8   2 10798.8 1245.65   2
  -3  -8   2 12170.0 1605.12   3
   3   8  -2 10733.9 1153.29   5
   3   8  -1 476.343 240.511   5
  -3  -8   1 488.310 419.934   3
   3   8   0 24856.7 1585.24   5
  -3  -8   0 24237.0 2107.26   3
   3   8   1 3617.33 583.886   5
  -3  -8  -1 3316.86 781.000   3
   3   8   2 655.237 250.993   5
  -3  -8  -2 433.250 171.599   6
  -3  -8  -2 812.387 409.729   3
  -3  -8  -3 11148.2 974.120   1
   3   8   3 9904.76 903.077   5
  -3  -8  -3 9297.37 1225.76   3
  -3  -8  -3 10830.9 935.735   6
  -3  -8  -4 5097.81 685.175   1
  -3  -8  -4 4243.69 566.195   6
  -3  -8  -4 4308.49 816.301   3
  -3  -8  -5 77.4302 165.966   1
  -3  -8  -5 398.036 203.140   6
  -3  -8  -5 149.211 179.854   3
  -3  -8  -6-203.439 221.715   1
  -3  -8  -6 276.119 175.967   6
  -3  -8  -6 677.139 331.111   3
  -3  -8  -7 3267.39 646.205   3
  -3  -8  -7 2080.57 497.863   6
  -3  -8  -8 6450.73 881.315   3
  -3  -8  -8 5926.94 841.816   6
  -3  -8  -9 618.525 322.687   6
  -3  -8 -10 368.190 283.113   6
  -3  -8 -11 783.186 429.320   6
  -3  -8 -12 644.456 330.611   6
  -3  -8 -13 1460.94 566.198   6
   3   9  -4 1168.89 468.930   5
   3   9  -3 630.156 345.676   5
   3   9  -2 3045.52 650.900   5
  -3  -9   2 5274.18 1126.21   3
   3   9  -1 5543.89 818.058   5
  -3  -9   1 7044.52 1260.69   3
   3   9   0 180.172 174.475   5
  -3  -9   0-90.0336 220.653   3
  -3  -9  -1 8405.41 1297.14   3
   3   9   1 9888.70 1021.93   5
  -3  -9  -2 9475.09 991.053   6
  -3  -9  -2 10605.3 1408.51   3
   3   9   2 10858.9 1030.98   5
  -3  -9  -3 5230.90 700.280   6
  -3  -9  -3 5652.61 1017.01   3
   3   9   3 5801.48 749.277   5
  -3  -9  -4 13287.0 1125.91   1
  -3  -9  -4 12036.7 1031.83   6
  -3  -9  -4 12455.3 1455.24   3
  -3  -9  -5 17375.4 1673.60   3
  -3  -9  -5 18284.3 1260.39   6
  -3  -9  -5 17568.1 1382.49   1
  -3  -9  -6 11108.5 1014.66   6
  -3  -9  -6 11051.8 1172.91   1
  -3  -9  -6 10619.4 1294.76   3
  -3  -9  -7 6.53793 173.608   6
  -3  -9  -7 256.823 224.609   3
  -3  -9  -8 758.354 335.316   3
  -3  -9  -8 1146.19 390.166   6
  -3  -9  -9 622.876 321.972   6
  -3  -9 -10 5532.47 931.782   6
  -3  -9 -11 2154.11 637.370   6
  -3  -9 -12 709.987 390.411   6
  -3  -9 -13-317.144 335.545   6
   3  10  -3 1328.64 498.944   5
   3  10  -2 166.696 243.929   5
   3  10  -1 7329.23 1013.50   5
  -3 -10   1 8368.63 1438.73   3
   3  10   0 383.761 298.832   5
  -3 -10   0 714.435 427.009   3
   3  10   1 119.206 146.781   5
  -3 -10  -1 928.204 485.253   3
  -3 -10  -2 2904.87 835.325   3
  -3 -10  -2 2265.29 531.608   6
  -3 -10  -3 1339.73 519.846   3
  -3 -10  -3 1670.49 444.970   6
  -3 -10  -4-30.3761 155.186   3
  -3 -10  -4-221.938 263.257   6
  -3 -10  -5 5573.14 801.872   1
  -3 -10  -5 6761.73 825.285   6
  -3 -10  -5 7776.53 1200.99   3
  -3 -10  -6 1078.31 374.206   6
  -3 -10  -6 404.412 241.069   3
  -3 -10  -6 338.666 266.993   1
  -3 -10  -7 57.2723 144.438   1
  -3 -10  -7 287.100 206.726   6
  -3 -10  -8 44.8085 149.037   6
  -3 -10  -8-45.8570 155.118   3
  -3 -10  -9 225.762 248.425   6
  -3 -10 -10 338.078 269.538   6
  -3 -10 -11 201.408 226.970   6
  -3 -10 -12 5392.80 1025.08   6
  -3 -11   0-10.1148 202.699   3
  -3 -11  -1 840.454 497.683   3
  -3 -11  -2 295.283 311.975   3
  -3 -11  -3-104.507 224.861   3
  -3 -11  -3 2.44061 115.897   6
  -3 -11  -4 162.200 320.276   3
  -3 -11  -4-249.746 226.035   6
  -3 -11  -5-823.817 467.894   3
  -3 -11  -5 90.2561 180.276   6
  -3 -11  -6 529.456 259.069   6
  -3 -11  -6 298.239 264.928   3
  -3 -11  -7 2974.65 682.501   1
  -3 -11  -7 3382.89 627.920   6
  -3 -11  -7 1980.88 635.948   3
  -3 -11  -8 196.839 252.465   1
  -3 -11  -8 59.6957 119.202   6
  -3 -11  -9 1183.23 423.536   6
  -3 -11 -10 166.282 208.731   6
  -3 -11 -11 754.890 390.235   6
  -3 -11 -12 1371.63 547.598   6
  -3 -12  -2-154.697 266.670   3
  -3 -12  -3-41.0720 224.539   3
  -3 -12  -3 635.507 347.696   6
  -3 -12  -4 17.3083 206.500   3
  -3 -12  -4-295.101 258.485   6
  -3 -12  -5-316.892 346.087   3
  -3 -12  -5 94.4005 184.686   6
  -3 -12  -6 678.803 245.966   3
  -3 -12  -6 458.141 289.902   6
  -3 -12  -7 910.395 369.071   6
  -3 -12  -7-31.9489 103.253   3
  -3 -12  -8 2197.92 554.043   6
  -3 -12  -9 153.754 197.181   6
  -3 -12  -9 271.531 310.510   1
  -3 -12 -10-68.7688 229.681   6
  -3 -12 -11 652.042 388.802   6
  -3 -13  -4-523.390 326.432   6
  -3 -13  -5 1148.17 560.660   3
  -3 -13  -5-122.827 231.785   6
  -3 -13  -6-269.645 296.730   3
  -3 -13  -6 640.541 356.245   6
  -3 -13  -7 855.176 475.168   3
  -3 -13  -7 22.1924 151.314   6
  -3 -13  -8 75.7944 159.767   6
  -3 -13  -9 457.314 297.358   6
   4 -12  -4 954.304 430.946   6
   4 -12  -3 144.418 306.850   6
   4 -11  -7 166.548 256.382   6
   4 -11  -6 295.409 268.361   6
   4 -11  -5-221.386 229.027   6
   4 -11  -4 370.315 297.032   6
   4 -11  -3 180.688 193.981   6
   4 -11  -2 1147.88 441.073   6
   4 -11  -1-347.582 271.798   6
  -4  11   0 340.142 348.507   5
   4 -11   0-77.9142 243.779   6
  -4  11  -2 2806.89 785.717   4
   4 -10  -8 293.693 306.871   6
   4 -10  -7 180.782 257.019   6
   4 -10  -6 1506.87 484.112   6
   4 -10  -5 1814.05 500.035   6
   4 -10  -4 71.5962 244.572   6
   4 -10  -3 788.494 334.872   6
   4 -10  -2 458.019 336.047   6
   4 -10  -1 235.036 232.156   6
  -4  10   1 393.330 282.959   4
  -4  10   0 1153.73 475.423   5
  -4  10   0 1617.28 533.623   4
   4 -10   0 761.563 400.042   6
  -4  10  -1-112.408 289.738   5
  -4  10  -1 243.732 259.073   4
  -4  10  -2 1808.72 616.476   5
  -4  10  -2 1212.65 558.501   4
  -4  10  -3 2094.65 655.947   5
  -4  10  -3 2685.20 757.708   4
   4  -9  -9 754.375 405.962   6
   4  -9  -8 263.433 319.095   6
  -4   9   7 63.2741 138.231   2
   4  -9  -7 159.855 244.471   6
   4  -9  -6-618.730 342.206   6
   4  -9  -5 765.345 325.235   6
  -4   9   4 1819.15 494.615   4
   4  -9  -4 2528.70 551.219   6
  -4   9   3 277.793 220.129   4
   4  -9  -3-95.4332 184.816   6
  -4   9   2 256.853 225.778   4
   4  -9  -2 257.473 259.009   6
  -4   9   1 750.537 315.521   4
   4  -9  -1 1088.45 372.834   6
  -4   9   0 1282.32 451.575   5
  -4   9   0 2340.63 596.551   4
   4  -9   0 2848.42 620.202   6
  -4   9  -1 3989.44 851.748   5
  -4   9  -1 4098.12 816.738   4
  -4   9  -2 391.311 302.287   5
  -4   9  -2 110.966 177.107   4
  -4   9  -3 25.0490 165.391   5
  -4   9  -4 1244.53 563.925   5
   4  -8 -10 350.330 352.672   6
  -4   8   9 1922.61 606.240   2
   4  -8  -9 1134.68 499.263   6
  -4   8   8 245.988 251.438   2
   4  -8  -8 2.11093 135.430   6
  -4   8   7-439.191 301.439   2
   4  -8  -7 301.530 232.799   6
  -4   8   6 3024.30 647.947   4
   4  -8  -6 3014.11 653.446   6
  -4   8   5 1813.26 485.094   4
   4  -8  -5 2189.30 555.449   6
  -4   8   4 1494.35 458.221   4
   4  -8  -4 421.559 275.065   6
  -4   8   3 668.909 295.935   4
   4  -8  -3 1006.96 343.645   6
  -4   8   2 3793.92 694.543   4
   4  -8  -2 4270.73 643.890   6
   4  -8  -1 31770.4 1824.44   6
  -4   8   1 27975.5 1862.39   4
  -4   8   0 526.777 313.236   5
  -4   8   0 866.909 364.134   4
   4  -8   0 807.514 303.342   6
  -4   8  -1 3635.46 720.803   5
  -4   8  -1 3412.98 716.505   4
   4  -8   1 3180.47 615.576   6
  -4   8  -2 9609.76 1238.49   4
  -4   8  -2 7697.81 1100.24   5
  -4   8  -3 303.020 275.685   5
  -4   8  -4 772.108 325.380   5
  -4   8  -5 529.464 354.186   5
  -4   8  -6 485.434 297.091   5
   4  -7 -10 128.086 258.605   6
  -4   7  10 941.342 461.053   2
   4  -7  -9-242.370 274.450   6
  -4   7   9-105.771 208.714   2
  -4   7   8 6688.77 1062.65   2
   4  -7  -8 7137.65 1089.95   6
  -4   7   7 121.406 210.032   2
   4  -7  -7-445.735 308.378   6
  -4   7   6-280.098 242.077   4
  -4   7   6 143.608 186.029   2
   4  -7  -6 98.9092 183.539   6
  -4   7   5 10903.8 1180.77   4
   4  -7  -5 12697.5 1212.44   6
  -4   7   4 1170.90 411.780   4
   4  -7  -4 483.315 260.337   6
   4  -7  -3 430.748 234.281   6
  -4   7   3 536.328 262.697   4
   4  -7  -2 23214.0 1405.38   6
  -4   7   2 24475.7 1646.79   4
   4  -7  -1 27857.4 1565.15   6
  -4   7   1 26924.3 1748.85   4
   4  -7   0 1238.74 342.307   6
  -4   7   0 1621.39 456.015   5
  -4   7   0 1411.95 450.449   4
  -4   7  -1 10691.7 1177.47   4
   4  -7   1 8305.49 920.035   6
  -4   7  -1 8841.65 1079.76   5
  -4   7  -2 1083.18 398.648   5
  -4   7  -2 1925.91 527.306   4
  -4   7  -3 3168.81 664.257   5
  -4   7  -4 101.392 178.083   5
  -4   7  -5 3807.78 775.545   5
  -4   7  -6 331.519 262.832   5
  -4   7  -7 981.855 431.744   5
   4  -6 -10-218.390 265.028   6
  -4   6  10 240.129 276.532   2
   4  -6  -9 1194.79 488.329   6
  -4   6   9 1169.18 478.017   2
  -4   6   8 1121.24 420.305   2
   4  -6  -8 724.936 354.044   6
   4  -6  -7 16361.0 1536.67   6
  -4   6   7 16207.8 1563.88   2
  -4   6   6 6316.93 939.502   2
   4  -6  -6 6795.03 941.625   6
  -4   6   5 5964.50 856.726   4
   4  -6  -5 5388.38 780.421   6
  -4   6   4 15255.1 1304.82   4
   4  -6  -4 13934.1 1168.06   6
  -4   6   3 30030.8 1766.84   4
   4  -6  -3 31333.8 1644.98   6
   4  -6  -2 19010.5 1197.33   6
  -4   6   2 18669.0 1374.92   4
  -4   6   1-603.992 294.501   4
   4  -6  -1-118.442 202.384   6
  -4   6   0-124.083 203.516   5
  -4   6   0-284.850 208.691   4
   4  -6   0-126.865 134.215   6
  -4   6  -1 227.350 247.521   5
  -4   6  -1 673.120 288.610   4
   4  -6   1 240.545 177.758   6
  -4   6  -2 1034.41 355.528   5
  -4   6  -2 891.604 348.157   4
  -4   6  -3 991.913 303.652   5
  -4   6  -4 374.001 243.341   5
  -4   6  -5 747.770 340.465   5
  -4   6  -6 4292.38 793.684   5
  -4   6  -7 1204.00 446.145   5
  -4   6  -8 369.800 295.617   5
  -4   5  10 2796.35 792.271   2
   4  -5 -10 1191.48 570.112   6
  -4   5   9 6706.55 1122.35   2
   4  -5  -9 6347.20 1067.31   6
   4  -5  -8 2579.72 647.744   6
  -4   5   8 2376.97 677.279   2
  -4   5   7 544.965 312.738   2
   4  -5  -7 983.448 389.977   6
  -4   5   6 11045.2 1219.99   2
   4  -5  -6 11575.0 1189.93   6
  -4   5   5-59.8214 141.124   4
  -4   5   5-95.7053 240.867   2
   4  -5  -5 224.779 207.134   6
  -4   5   4 2550.38 544.003   4
   4  -5  -4 2947.28 518.796   6
  -4   5   3 55730.9 2355.83   4
   4  -5  -3 55910.4 2081.22   6
  -4   5   2 705.671 277.525   4
   4  -5  -2 201.471 138.780   6
   4  -5  -1 36265.6 1497.46   6
  -4   5   1 34446.0 1785.44   4
  -4   5   0 7871.56 886.629   4
  -4   5   0 7563.15 866.317   5
   4  -5   0 7751.38 710.297   6
   4  -5   1 4547.94 569.480   6
  -4   5  -1 4535.85 689.836   4
  -4   5  -1 4889.20 700.371   5
  -4   5  -2 535.973 238.735   5
  -4   5  -2 522.847 287.364   4
  -4   5  -3 22447.2 1510.56   5
  -4   5  -4 767.562 275.024   5
  -4   5  -5 8878.51 1017.16   5
  -4   5  -6 5352.48 830.634   5
  -4   5  -7 684.131 372.315   5
  -4   5  -8 332.710 248.706   5
  -4   5  -9 105.841 180.729   5
  -4   4  10 1203.11 542.403   2
   4  -4 -10 825.273 448.213   6
   4  -4  -9 197.160 178.913   6
  -4   4   9-145.942 208.131   2
  -4   4   8 4599.71 908.077   2
   4  -4  -8 3790.42 771.823   6
  -4   4   7 186.639 238.359   2
   4  -4  -7 644.291 287.170   6
  -4   4   6 1981.76 540.640   2
   4  -4  -6 2925.25 612.108   6
   4  -4  -5 995.301 356.164   6
  -4   4   5 642.158 286.749   2
   4  -4  -4 755.765 263.842   6
  -4   4   4 1772.58 443.439   4
  -4   4   3 2061.05 476.977   4
  -4   4   2 2667.84 494.154   4
  -4   4   1 27177.3 1540.21   4
  -4   4   0 971.796 348.473   4
  -4   4  -1 20438.5 1394.70   4
  -4   4  -1 21126.6 1302.84   5
  -4   4  -2 27735.0 1682.48   4
  -4   4  -2 29859.5 1552.92   5
  -4   4  -3 36447.5 1787.05   5
  -4   4  -4 560.874 269.719   5
  -4   4  -5 671.268 278.199   5
  -4   4  -6 2720.53 573.467   5
  -4   4  -7 1134.07 413.859   5
  -4   4  -8 24.0330 178.330   5
   4  -4   8 534.121 333.023   7
  -4   4  -9-208.889 227.585   5
  -4   4 -10-292.172 257.029   5
  -4   3  10 207.687 294.278   2
   4  -3 -10 156.066 315.793   6
  -4   3   9 2420.60 710.325   2
   4  -3  -9 1926.77 649.560   6
   4  -3  -8 40.9772 207.188   6
  -4   3   8-6.78043 208.083   2
   4  -3  -7 6457.56 938.567   6
  -4   3   7 6790.98 1047.20   2
  -4   3   6 2022.34 529.668   2
   4  -3  -6 861.027 356.835   6
  -4   3   5 3585.30 675.628   2
   4  -3  -5 3918.04 631.917   6
  -4   3   4 830.217 326.561   4
  -4   3   4 657.778 238.650   2
   4  -3  -4 829.574 267.957   6
  -4   3   3 220.373 198.964   4
  -4   3   2 4747.17 643.093   4
   4  -3  -2 5027.68 547.818   6
  -4   3   1 108537. 2953.82   4
   4  -3  -1 114402. 2314.11   6
  -4   3   0 11973.1 977.252   4
   4  -3   0 12288.7 692.830   6
  -4   3  -1 12974.4 1051.01   4
   4  -3   1 14340.1 789.478   6
  -4   3  -1 13622.2 961.234   5
  -4   3  -2 5941.81 732.611   4
  -4   3  -2 6694.66 664.693   5
  -4   3  -3 6529.74 682.843   5
  -4   3  -4 16392.4 1118.66   5
  -4   3  -5 3685.87 574.065   5
  -4   3  -6 603.813 279.022   5
  -4   3  -7 18577.7 1486.03   5
   4  -3   7 19777.2 1663.39   7
  -4   3  -8-521.883 286.321   5
   4  -3   8 246.856 231.296   7
  -4   3  -9 226.505 216.934   5
   4  -3   9-291.021 283.158   2
   4  -3   9 71.5998 171.701   7
  -4   3 -10 204.629 216.563   5
   4  -3  10-10.8412 260.860   2
  -4   2  10-65.0263 185.091   2
   4  -2 -10 407.594 344.343   6
  -4   2   9 1125.92 492.260   2
   4  -2  -9 1129.25 496.541   6
   4  -2  -8 573.695 326.833   6
  -4   2   8 972.892 481.833   2
  -4   2   7 6530.99 1057.34   2
   4  -2  -7 6570.12 954.275   6
   4  -2  -6 3869.91 692.813   6
  -4   2   6 3449.21 679.144   2
   4  -2  -5 15921.0 1261.40   6
  -4   2   5 14578.4 1344.51   2
  -4   2   4 6348.88 841.246   2
  -4   2   4 6526.38 575.647   3
  -4   2   3 2130.30 436.573   4
  -4   2   3 1722.43 423.312   2
  -4   2   2 9614.44 905.355   4
   4  -2  -2 9159.68 706.785   6
  -4   2   1 56464.0 2085.95   4
   4  -2  -1 56547.3 1505.18   6
  -4   2   0 82807.6 2454.68   4
   4  -2   0 87917.0 1629.38   6
  -4   2  -1 53259.5 1986.59   4
   4  -2   1 58298.0 1351.55   6
  -4   2  -2 60082.8 2179.70   4
  -4   2  -2 61926.7 1811.25   5
  -4   2  -3 30053.1 1326.25   5
  -4   2  -4 18783.4 1091.06   5
  -4   2  -5 9885.63 870.198   5
  -4   2  -6 10963.8 997.278   5
  -4   2  -7 2191.59 517.921   5
   4  -2   7 1921.60 528.710   7
  -4   2  -8 486.306 213.794   5
   4  -2   8 697.711 385.149   2
   4  -2   8 432.632 282.447   7
  -4   2  -9 1110.05 403.251   5
   4  -2   9 1859.76 593.899   2
   4  -2   9 2452.68 669.560   7
   4  -2  10-23.3859 233.422   2
   4  -2  10-19.0786 132.683   7
   4  -2  11 691.266 414.495   2
   4  -1 -10 941.335 500.099   6
  -4   1   9 460.873 394.180   2
   4  -1  -9 22.8767 304.795   6
  -4   1   8 1704.80 582.304   2
   4  -1  -8 2462.92 649.715   6
   4  -1  -7 6750.80 987.740   6
  -4   1   7 6977.99 1105.13   2
  -4   1   6 8783.58 1142.82   2
   4  -1  -6 6806.41 907.908   6
   4  -1  -5 37503.7 1953.01   6
  -4   1   5 33378.3 2081.71   2
  -4   1   4 7925.22 955.664   2
  -4   1   4 8829.66 704.179   3
  -4   1   3 1293.87 277.274   3
  -4   1   3 1484.01 375.693   2
   4  -1  -3 1094.89 278.605   6
  -4   1   2 4925.59 664.619   4
   4  -1  -2 4489.40 478.165   6
  -4   1   1 63932.5 2174.08   4
   4  -1  -1 60738.9 1494.98   6
  -4   1   0 13203.0 937.860   4
   4  -1   0 15895.3 613.791   6
  -4   1  -1 1659.80 331.628   4
   4  -1   1 1905.90 191.384   6
  -4   1  -2 5235.09 601.426   4
  -4   1  -2 6364.78 513.605   5
  -4   1  -3 43530.6 1807.91   4
  -4   1  -3 46730.9 1439.05   5
  -4   1  -4 1078.29 238.820   5
  -4   1  -5 802.245 232.414   5
  -4   1  -6 595.908 204.072   1
  -4   1  -6 389.194 182.342   5
   4  -1   6 162.740 174.874   7
   4  -1   7 458.988 300.967   7
  -4   1  -7 402.006 168.325   1
   4  -1   8 3306.31 701.056   2
   4  -1   8 2492.66 629.333   7
   4  -1   9 677.062 347.193   7
   4  -1   9-73.5801 229.577   2
   4  -1  10 664.123 423.052   7
   4  -1  10 7.80494 172.110   2
   4  -1  11-16.4113 198.499   2
   4  -1  11 997.310 520.538   7
   4  -1  12-330.038 320.347   2
   4   0 -10 939.970 490.596   6
  -4   0   9 1995.34 688.509   2
   4   0  -9 740.179 412.011   6
  -4   0   8 6363.20 1167.78   2
   4   0  -8 5615.56 980.086   6
  -4   0   7 7560.87 1164.16   2
  -4   0   6 5873.69 957.801   2
  -4   0   5 12658.3 1309.79   2
  -4   0   4 3669.92 498.199   3
  -4   0   4 4228.56 715.010   2
   4   0  -3 19935.5 1157.93   6
  -4   0   3 19129.2 1389.78   2
  -4   0   3 20184.2 1145.19   3
   4   0  -2 7141.33 602.094   6
  -4   0   2 7377.33 788.795   2
  -4   0   2 8018.55 699.812   3
  -4   0   1 3840.78 548.660   4
   4   0  -1 3839.02 364.873   6
  -4   0   0 37509.2 1554.43   4
   4   0   0 36827.1 843.779   6
  -4   0  -1 3779.83 473.895   4
   4   0   1 4147.84 177.368   6
  -4   0  -2 17627.5 1014.55   4
  -4   0  -3 57604.0 1928.24   4
  -4   0  -3 60505.9 1349.91   5
  -4   0  -4 319.165 134.286   5
  -4   0  -5 2976.08 405.635   5
  -4   0  -5 3777.40 508.636   1
  -4   0  -6 1448.33 337.294   1
   4   0   6 1188.01 372.016   7
   4   0   7 2157.34 516.747   2
  -4   0  -7 2746.60 495.905   1
   4   0   7 1980.50 529.266   7
   4   0   8 39995.0 2217.07   2
   4   0   8 38280.3 2291.43   7
  -4   0  -8 37647.3 1907.75   1
   4   0   9 35.2747 177.996   2
  -4   0  -9 93.8207 113.922   1
   4   0   9 270.011 316.514   7
   4   0  10 437.381 356.410   7
   4   0  10 189.817 202.599   2
   4   0  11-214.321 244.626   7
   4   0  11-39.1156 153.421   2
   4   0  12 3477.21 859.443   2
  -4  -1   8 1078.90 493.292   2
  -4  -1   7 899.039 434.159   2
  -4  -1   6 33778.5 2381.18   2
  -4  -1   5 8804.26 1137.24   2
  -4  -1   4 397.727 227.146   3
  -4  -1   4 710.062 331.970   2
  -4  -1   3 76.5482 102.339   3
  -4  -1   3 88.9006 123.425   2
  -4  -1   2 52547.5 1939.42   3
  -4  -1   2 49798.1 2066.77   2
  -4  -1   1 20777.8 1186.15   3
  -4  -1   1 20479.3 1224.05   2
  -4  -1   0 10367.1 831.357   4
   4   1   0 11090.0 476.539   6
  -4  -1  -1 36978.1 1454.05   4
  -4  -1  -2 1070.80 245.647   4
  -4  -1  -3 17497.6 997.804   4
  -4  -1  -3 17940.6 543.481   5
  -4  -1  -4 6828.49 700.139   1
  -4  -1  -4 5258.65 576.287   4
  -4  -1  -4 6308.39 404.404   5
  -4  -1  -5 6118.60 671.319   1
  -4  -1  -6 11738.0 992.562   1
   4   1   7 12878.8 1100.39   2
   4   1   7 14338.3 1318.96   7
  -4  -1  -7 12405.9 1073.64   1
   4   1   8 144.393 243.596   7
  -4  -1  -8 516.738 260.964   1
   4   1   8 298.222 219.287   2
   4   1   9 263.524 269.425   7
  -4  -1  -9 538.665 295.466   1
   4   1  10-111.604 226.072   7
  -4  -1 -10 368.824 246.827   1
   4   1  10 41.9638 229.153   2
   4   1  11-462.026 356.839   7
   4   1  11-1.04690 208.336   2
   4   1  12 597.981 402.911   2
   4   1  13 94.7720 236.164   2
  -4  -2   8 985.228 511.145   2
  -4  -2   7-583.766 379.396   2
  -4  -2   6 4836.81 927.567   2
  -4  -2   5 995.574 422.812   2
  -4  -2   4 1985.73 529.104   2
  -4  -2   4 1508.40 387.480   3
  -4  -2   3 2802.12 528.049   3
  -4  -2   3 3068.41 586.469   2
  -4  -2   2 13634.5 1131.13   2
  -4  -2   2 11877.5 1002.75   3
   4   2  -1 3864.84 298.085   7
  -4  -2   1 4278.21 574.991   2
  -4  -2   1 4248.75 586.293   3
   4   2   0 6077.40 461.492   7
  -4  -2   0 5446.57 581.012   2
  -4  -2   0 5410.92 639.616   3
  -4  -2  -1 24132.2 1175.37   4
   4   2   1 24622.6 1068.12   7
  -4  -2  -1 23946.4 1309.85   3
   4   2   2 180651. 3191.97   7
  -4  -2  -2 185171. 3005.86   4
   4   2   3 6623.02 686.980   7
  -4  -2  -3 6455.49 541.088   4
  -4  -2  -3 6436.16 319.517   6
  -4  -2  -4 76464.5 1979.40   4
  -4  -2  -4 74861.4 1580.16   6
  -4  -2  -4 72842.5 1008.95   5
  -4  -2  -5 16155.9 898.675   6
  -4  -2  -6 318.806 175.655   1
   4   2   7 8312.00 998.147   7
  -4  -2  -7 8430.09 918.882   1
   4   2   8 11147.2 1044.46   2
   4   2   8 9495.90 1127.04   7
  -4  -2  -8 10536.0 1094.94   1
   4   2   9 12259.5 1176.62   2
   4   2   9 12511.3 1368.26   7
   4   2  10 487.445 313.950   7
   4   2  10-302.150 216.211   2
   4   2  11 1927.41 553.985   2
   4   2  12 1554.98 541.683   2
  -4  -2 -13 1288.21 539.224   6
  -4  -3   8 117.127 279.579   2
  -4  -3   7 493.012 325.931   2
  -4  -3   6 2155.70 635.276   2
  -4  -3   5-261.720 273.171   2
  -4  -3   4 3771.11 732.143   2
  -4  -3   4 2888.38 602.343   3
  -4  -3   3 124.038 170.873   2
  -4  -3   3 108.280 154.456   3
  -4  -3   2 2065.02 461.464   3
  -4  -3   2 2640.05 518.486   2
  -4  -3   1 25244.1 1452.71   2
  -4  -3   1 24344.8 1516.59   3
  -4  -3   0 123308. 2854.25   2
  -4  -3   0 121515. 3295.89   3
   4   3   1 9218.62 649.022   7
  -4  -3  -1 9611.11 703.493   2
  -4  -3  -1 10682.9 944.704   3
  -4  -3  -2 56745.5 1661.41   4
   4   3   2 56516.5 1799.73   7
  -4  -3  -2 60473.2 1562.93   2
  -4  -3  -2 59267.7 2185.92   3
  -4  -3  -3 1838.13 406.021   3
  -4  -3  -3 1780.46 273.279   4
   4   3   3 1640.35 346.954   7
  -4  -3  -3 1863.90 185.113   6
  -4  -3  -4 41504.6 1275.57   4
  -4  -3  -4 45580.2 1228.11   6
  -4  -3  -5 14029.6 819.076   4
  -4  -3  -5 14213.9 830.861   6
  -4  -3  -6 18549.9 1101.86   6
   4   3   7 416.873 296.640   7
  -4  -3  -7 309.338 237.611   1
  -4  -3  -7 681.635 230.600   6
   4   3   8 7957.54 837.592   2
   4   3   8 6718.94 973.802   7
  -4  -3  -8 6475.81 819.783   6
  -4  -3  -8 8297.06 994.988   1
   4   3   9 361.132 302.546   7
  -4  -3  -9 1492.92 455.625   6
   4   3   9 1173.56 372.211   2
   4   3  10 7696.83 953.459   2
  -4  -3 -10 6290.47 909.827   6
  -4  -3 -11 1181.06 447.008   6
  -4  -3 -12 1445.73 525.853   6
  -4  -3 -13-246.841 286.115   6
  -4  -4   7-559.300 393.663   2
  -4  -4   6 736.332 403.729   2
  -4  -4   5 360.143 293.832   2
  -4  -4   4 4922.35 869.382   2
  -4  -4   4 4986.00 841.268   3
  -4  -4   3 5793.19 870.326   2
  -4  -4   3 6026.18 889.773   3
  -4  -4   2 19654.6 1569.06   3
  -4  -4   2 19879.0 1474.12   2
  -4  -4   1 15.9417 185.246   3
  -4  -4   1 276.091 181.193   2
  -4  -4   0 414.777 253.242   3
  -4  -4   0 57.6492 129.841   2
   4   4   1 18912.2 862.823   5
  -4  -4  -1 18697.6 1027.55   2
  -4  -4  -1 16339.5 1271.10   3
   4   4   2-8.28869 34.0103   5
  -4  -4  -2 6.96968 186.193   3
  -4  -4  -2 64.6469 70.7885   2
  -4  -4  -2-7.36009 66.0951   6
  -4  -4  -3 30551.9 1110.62   4
  -4  -4  -3 35294.4 976.081   6
  -4  -4  -3 31096.6 936.722   2
  -4  -4  -3 31835.5 1680.71   3
  -4  -4  -4 25931.1 914.994   4
  -4  -4  -4 28178.5 993.447   6
  -4  -4  -4 26929.6 1518.02   3
  -4  -4  -5 165.411 128.930   3
  -4  -4  -5 176.128 87.9205   4
  -4  -4  -5 81.6269 71.9433   6
  -4  -4  -6 19856.2 930.764   4
  -4  -4  -6 18221.1 1092.93   6
  -4  -4  -6 17273.0 1214.83   3
  -4  -4  -7 1389.83 355.063   6
  -4  -4  -7 1378.47 406.171   1
  -4  -4  -8 1283.74 361.832   6
  -4  -4  -9 6210.98 854.295   6
  -4  -4 -10 337.006 265.418   6
  -4  -4 -11 5778.49 941.375   6
  -4  -4 -12 531.997 332.203   6
  -4  -4 -13 955.776 416.536   6
  -4  -5   6 515.438 377.628   2
  -4  -5   5 2558.95 705.657   2
  -4  -5   4 836.975 379.637   2
  -4  -5   4 1030.52 396.531   3
  -4  -5   3 834.080 354.753   2
  -4  -5   3 424.564 184.078   3
  -4  -5   2 1924.77 476.975   2
  -4  -5   2 1302.96 412.819   3
  -4  -5   1 263.443 198.015   3
  -4  -5   1 8.80280 126.614   2
   4   5   0 7785.26 707.102   5
  -4  -5   0 8902.19 849.187   2
  -4  -5   0 8259.79 1036.42   3
  -4  -5  -1 2033.86 509.866   3
   4   5   1 1759.95 294.900   5
  -4  -5  -1 1309.04 293.933   2
  -4  -5  -2 2740.08 565.539   3
  -4  -5  -2 2323.82 328.696   2
  -4  -5  -2 2687.49 338.153   6
   4   5   2 2821.29 323.914   5
  -4  -5  -3 10668.5 642.068   6
  -4  -5  -3 11253.6 565.698   2
  -4  -5  -3 9100.55 988.543   3
   4   5   3 11211.4 575.346   5
  -4  -5  -4 73170.6 2530.54   1
  -4  -5  -4 73678.1 1715.05   6
  -4  -5  -4 68817.5 2626.66   3
  -4  -5  -5 1900.19 461.098   1
  -4  -5  -5 1268.26 335.042   3
  -4  -5  -5 1945.66 326.801   6
  -4  -5  -6 4526.15 648.534   3
  -4  -5  -6 4631.92 558.959   6
  -4  -5  -6 3726.29 657.268   1
  -4  -5  -7-224.844 164.834   3
  -4  -5  -7-17.7347 83.0417   6
  -4  -5  -7 87.0125 177.146   1
  -4  -5  -8 4009.64 610.849   3
  -4  -5  -8 4143.16 650.264   6
  -4  -5  -9 2733.68 560.968   6
  -4  -5 -10 142.353 166.551   6
  -4  -5 -11 192.212 254.516   6
  -4  -5 -12-365.744 271.511   6
  -4  -5 -13-152.197 209.871   6
  -4  -6   6-77.9388 171.708   2
  -4  -6   5 1532.35 551.760   2
  -4  -6   4 482.562 325.875   2
  -4  -6   4 279.735 260.645   3
  -4  -6   3 1561.31 490.025   2
  -4  -6   3 1442.12 523.890   3
  -4  -6   2-39.2585 173.668   2
  -4  -6   2 171.802 196.386   3
   4   6  -1 29907.9 1642.59   5
  -4  -6   1 28435.2 1762.10   2
  -4  -6   1 28652.9 2131.36   3
   4   6   0 1769.65 369.414   5
  -4  -6   0 1738.21 410.872   2
  -4  -6   0 2318.63 626.931   3
  -4  -6  -1 14183.4 1001.54   2
  -4  -6  -1 13781.9 1407.82   3
   4   6   1 14316.0 921.774   5
  -4  -6  -2 16126.7 960.689   6
  -4  -6  -2 17287.2 1538.16   3
   4   6   2 18532.9 960.426   5
  -4  -6  -3 20175.3 1013.37   6
  -4  -6  -3 19800.2 1591.09   3
   4   6   3 19254.9 912.349   5
  -4  -6  -4 13156.1 1102.08   1
  -4  -6  -4 10447.4 1112.94   3
  -4  -6  -4 12990.6 789.401   6
  -4  -6  -5 38468.0 1965.26   1
  -4  -6  -5 35704.2 1435.62   6
  -4  -6  -5 33104.3 1909.58   3
  -4  -6  -6 8643.47 975.091   3
  -4  -6  -6 8714.81 789.200   6
  -4  -6  -6 9074.11 1030.76   1
  -4  -6  -7 273.835 195.122   3
  -4  -6  -7 172.060 262.451   1
  -4  -6  -7 177.184 146.535   6
  -4  -6  -8 6758.55 830.760   6
  -4  -6  -8 5869.10 784.540   3
  -4  -6  -9 15723.2 1375.33   6
  -4  -6 -10 2951.57 646.056   6
  -4  -6 -11 95.2051 171.382   6
  -4  -6 -12 729.221 382.658   6
  -4  -6 -13-78.2708 221.317   6
  -4  -7   5 936.121 467.964   2
   4   7  -5-201.707 263.926   5
  -4  -7   4 833.297 454.106   2
   4   7  -4-239.151 239.981   5
  -4  -7   4 1288.81 597.478   3
  -4  -7   3 3289.79 741.720   2
   4   7  -3 3712.88 715.845   5
  -4  -7   3 3312.07 826.028   3
  -4  -7   2 6054.13 926.196   2
   4   7  -2 5303.35 796.090   5
  -4  -7   2 6255.44 1091.43   3
   4   7  -1 11180.2 1052.94   5
  -4  -7   1 13093.8 1240.71   2
  -4  -7   1 14043.7 1598.91   3
  -4  -7   0 5727.97 1040.91   3
   4   7   0 5590.19 686.370   5
   4   7   1 2986.00 475.809   5
  -4  -7  -1 3629.86 778.203   3
  -4  -7  -2 18263.7 1141.86   6
  -4  -7  -2 18560.8 1710.55   3
   4   7   2 21793.9 1185.01   5
  -4  -7  -3 2772.78 690.367   3
  -4  -7  -3 3529.43 481.707   6
  -4  -7  -4 63499.4 2466.35   1
  -4  -7  -4 64510.1 1946.77   6
  -4  -7  -5 531.369 349.000   3
  -4  -7  -5 41.9988 232.215   1
  -4  -7  -5 286.559 153.800   6
  -4  -7  -6 3563.62 674.282   3
  -4  -7  -6 2708.13 568.505   1
  -4  -7  -6 3318.95 499.196   6
  -4  -7  -7 2002.77 491.464   3
  -4  -7  -7 1853.59 491.635   1
  -4  -7  -7 1636.58 391.293   6
  -4  -7  -8 23569.2 1582.71   6
  -4  -7  -8 20251.4 1711.98   1
  -4  -7  -8 20729.1 1545.61   3
  -4  -7  -9 492.555 266.875   6
  -4  -7 -10 2692.35 620.952   6
  -4  -7 -11 1341.70 475.319   6
  -4  -7 -12 351.556 299.422   6
  -4  -7 -13 418.098 355.161   6
   4   8  -4 2717.64 673.080   5
  -4  -8   4 2889.41 831.389   3
   4   8  -3 2040.61 560.414   5
  -4  -8   3 3055.28 832.029   3
   4   8  -2 102.749 159.335   5
  -4  -8   2-153.739 276.233   3
   4   8  -1-61.7357 157.738   5
  -4  -8   1-188.155 370.632   3
  -4  -8   0 19866.7 1969.96   3
  -4  -8  -1 24193.5 2130.68   3
  -4  -8  -2 10269.3 1365.73   3
  -4  -8  -3 7652.45 781.226   6
  -4  -8  -3 6402.70 1054.60   3
  -4  -8  -4 12466.0 1114.84   1
  -4  -8  -4 10683.7 890.249   6
  -4  -8  -4 11819.4 1388.84   3
  -4  -8  -5 30431.6 1816.14   1
  -4  -8  -5 30421.4 1468.62   6
  -4  -8  -5 27867.7 2071.91   3
  -4  -8  -6 3086.12 684.175   3
  -4  -8  -6 2016.49 406.630   6
  -4  -8  -6 1613.78 434.468   1
  -4  -8  -7 58.1216 168.168   3
  -4  -8  -7 289.874 194.569   1
  -4  -8  -7 324.369 231.513   6
  -4  -8  -8 3847.08 732.186   3
  -4  -8  -8 3952.97 654.703   6
  -4  -8  -8 2392.08 612.414   1
  -4  -8  -9 2466.87 560.641   6
  -4  -8 -10 2602.42 640.445   6
  -4  -8 -11 134.642 216.028   6
  -4  -8 -12 208.111 263.704   6
  -4  -8 -13 504.997 349.174   6
  -4  -9   3 852.290 474.017   3
  -4  -9   2 2465.94 780.461   3
  -4  -9   1 7035.95 1285.47   3
  -4  -9   0 753.428 437.884   3
  -4  -9  -1 652.761 466.585   3
  -4  -9  -2 7136.02 1204.83   3
  -4  -9  -3-45.9828 231.189   6
  -4  -9  -3 103.110 350.078   3
  -4  -9  -4 7493.99 809.831   6
  -4  -9  -4 9414.66 1330.57   3
  -4  -9  -5 4714.69 630.421   6
  -4  -9  -5 5217.97 783.650   1
  -4  -9  -5 4456.64 915.819   3
  -4  -9  -6 6324.98 900.167   1
  -4  -9  -6 5173.22 665.008   6
  -4  -9  -6 4724.44 914.461   3
  -4  -9  -7 10073.6 971.036   6
  -4  -9  -7 9848.10 1270.76   3
  -4  -9  -7 10045.2 1195.20   1
  -4  -9  -8 6531.70 1029.10   3
  -4  -9  -8 6872.20 873.307   6
  -4  -9  -8 7542.14 1094.66   1
  -4  -9  -9 117.851 235.942   1
  -4  -9  -9 100.645 196.521   6
  -4  -9 -10 454.535 297.577   6
  -4  -9 -11-552.858 328.975   6
  -4  -9 -12 579.949 374.686   6
  -4  -9 -13-436.766 369.032   6
  -4 -10   1 1646.86 691.927   3
  -4 -10   0-85.2075 214.918   3
  -4 -10  -1 693.238 470.583   3
  -4 -10  -2 117.205 247.247   3
  -4 -10  -3-158.501 256.285   3
  -4 -10  -3 287.711 211.425   6
  -4 -10  -4 1467.67 402.775   6
  -4 -10  -4 1758.08 655.055   3
  -4 -10  -5 70.2776 154.306   1
  -4 -10  -5 157.244 152.481   6
  -4 -10  -6 8755.57 1070.54   1
  -4 -10  -6 7642.97 861.318   6
  -4 -10  -6 7758.52 1222.09   3
  -4 -10  -7 4028.46 637.532   6
  -4 -10  -7 3263.39 704.548   1
  -4 -10  -7 4328.73 921.823   3
  -4 -10  -8 497.157 327.852   1
  -4 -10  -8 1084.41 370.736   6
  -4 -10  -8 1167.33 442.856   3
  -4 -10  -9-1.15419 201.569   1
  -4 -10  -9 336.900 240.364   6
  -4 -10 -10 180.624 345.434   1
  -4 -10 -10 518.684 318.855   6
  -4 -10 -11 142.966 183.406   6
  -4 -10 -12 530.734 382.169   6
  -4 -10 -13 328.569 326.172   6
  -4 -11  -1-215.080 339.064   3
  -4 -11  -2-117.907 272.546   3
  -4 -11  -3 403.923 359.647   3
  -4 -11  -4-259.575 290.350   3
  -4 -11  -4-22.6759 114.482   6
  -4 -11  -5 214.759 213.329   6
  -4 -11  -5 255.301 281.663   3
  -4 -11  -6-255.136 195.521   6
  -4 -11  -6-595.963 401.229   3
  -4 -11  -7 294.646 255.112   1
  -4 -11  -7 408.155 252.062   6
  -4 -11  -7 697.306 401.382   3
  -4 -11  -8 2.18297 186.505   1
  -4 -11  -8 426.961 258.539   6
  -4 -11  -8 19.2707 143.527   3
  -4 -11  -9-26.6124 180.499   1
  -4 -11  -9 603.664 292.194   6
  -4 -11 -10-152.226 308.435   1
  -4 -11 -10-170.300 232.484   6
  -4 -11 -11 194.024 329.975   1
  -4 -11 -11 436.479 219.123   6
  -4 -11 -12 1322.98 566.337   6
  -4 -12  -3-5.22343 146.734   3
  -4 -12  -4 626.771 454.552   3
  -4 -12  -4 661.076 308.988   6
  -4 -12  -5-486.215 388.706   3
  -4 -12  -5-151.645 202.355   6
  -4 -12  -6 106.044 158.958   6
  -4 -12  -6-264.237 305.593   3
  -4 -12  -7 261.632 206.752   6
  -4 -12  -7 843.360 481.904   3
  -4 -12  -8 865.795 326.357   6
  -4 -12  -8 243.167 297.317   3
  -4 -12  -9 1134.56 494.469   1
  -4 -12  -9 2059.47 549.283   6
  -4 -12 -10 336.549 322.310   1
  -4 -12 -10 1148.30 455.724   6
  -4 -13  -6-33.1123 168.912   3
  -4 -13  -7 2319.86 795.487   3
  -4 -13  -8 394.373 376.428   3
   5 -11  -6 1162.73 485.204   6
   5 -11  -5 284.260 265.811   6
   5 -11  -4 17.7181 165.399   6
   5 -11  -3 1232.15 477.642   6
   5 -11  -2-200.037 257.191   6
   5 -11  -1-36.1698 173.646   6
   5 -11   0 49.9217 184.815   6
   5 -10  -7 760.066 381.721   6
   5 -10  -6 851.129 364.767   6
   5 -10  -5 117.924 213.138   6
   5 -10  -4 250.529 231.950   6
   5 -10  -3 321.444 259.618   6
  -5  10   2 111.176 191.417   4
   5 -10  -2 445.298 330.282   6
  -5  10   1 22.5217 131.940   4
   5 -10  -1-49.6918 266.521   6
  -5  10   0 726.013 373.848   4
   5 -10   0 322.195 232.063   6
  -5  10  -1 429.173 323.101   5
  -5  10  -1 1098.34 481.345   4
  -5  10  -2 69.8094 173.994   5
  -5  10  -2 439.505 336.957   4
  -5  10  -3 467.896 385.527   4
  -5   9   8 556.031 372.869   2
   5  -9  -8-2.18050 171.321   6
   5  -9  -7 67.6841 252.212   6
  -5   9   7 10.5748 205.681   2
   5  -9  -6-233.428 263.366   6
  -5   9   5 2358.25 626.517   4
   5  -9  -5 2232.35 552.405   6
  -5   9   4 497.267 290.202   4
   5  -9  -4 417.975 281.416   6
  -5   9   3-128.227 187.115   4
   5  -9  -3-240.517 211.678   6
  -5   9   2 1386.01 478.676   4
   5  -9  -2 1222.49 420.547   6
  -5   9   1 2918.54 669.313   4
   5  -9  -1 3267.13 642.388   6
  -5   9   0 115.647 186.423   4
   5  -9   0 181.228 205.729   6
  -5   9  -1 1724.87 572.131   5
  -5   9  -1 1887.23 570.669   4
  -5   9  -2 1316.72 510.441   5
  -5   9  -2 1450.39 546.236   4
  -5   9  -3 205.613 266.766   5
  -5   9  -3 711.117 420.629   4
  -5   9  -4 839.900 338.755   5
  -5   9  -4 412.067 328.048   4
  -5   8   9 31.0794 168.732   2
   5  -8  -9 117.977 241.397   6
  -5   8   8 915.599 477.724   2
   5  -8  -8 465.656 300.015   6
  -5   8   7-11.3965 175.748   2
   5  -8  -7 309.753 272.138   6
  -5   8   6 961.687 375.483   4
  -5   8   6 1577.62 521.536   2
   5  -8  -6 2042.67 544.134   6
  -5   8   5 469.060 312.846   4
   5  -8  -5 112.125 194.584   6
  -5   8   4 1873.89 529.579   4
   5  -8  -4 1607.20 450.611   6
  -5   8   3 192.255 219.129   4
   5  -8  -3 237.038 207.701   6
  -5   8   2 5305.74 860.796   4
   5  -8  -2 6739.48 830.863   6
  -5   8   1 2394.32 584.685   4
   5  -8  -1 2675.04 560.227   6
  -5   8   0 6161.70 963.679   4
   5  -8   0 9539.90 1039.42   6
  -5   8  -1 1130.89 467.649   5
  -5   8  -1 1822.09 546.772   4
   5  -8   1 1119.65 403.804   6
  -5   8  -2 3001.05 708.883   5
  -5   8  -2 1764.81 567.803   4
  -5   8  -3 5806.33 972.759   5
  -5   8  -3 4434.50 917.703   4
  -5   8  -4 1347.35 522.657   5
  -5   8  -4 1071.54 505.547   4
  -5   8  -5 1722.09 566.124   5
   5  -7  -9-440.406 331.333   6
  -5   7   9-12.1861 143.402   2
  -5   7   8 344.505 275.067   2
   5  -7  -8-153.851 290.392   6
  -5   7   7-178.290 245.582   2
   5  -7  -7-218.416 221.669   6
  -5   7   6 1657.68 553.584   4
  -5   7   6 1160.83 446.486   2
   5  -7  -6 842.194 363.075   6
  -5   7   5 2276.58 591.079   4
   5  -7  -5 2118.19 546.115   6
  -5   7   4 652.934 305.138   4
   5  -7  -4 383.348 256.868   6
  -5   7   3 8862.36 1084.96   4
   5  -7  -3 9255.17 931.369   6
  -5   7   2 544.412 299.033   4
   5  -7  -2 208.990 214.457   6
  -5   7   1 9799.18 1137.16   4
   5  -7  -1 11567.6 1030.61   6
  -5   7   0 3709.76 725.263   4
   5  -7   0 3247.77 571.206   6
  -5   7  -1 3885.26 751.115   5
  -5   7  -1 3608.61 741.773   4
   5  -7   1 3309.50 583.897   6
  -5   7  -2 3635.63 721.714   5
  -5   7  -2 4490.06 843.333   4
  -5   7  -3 3992.85 767.140   5
  -5   7  -3 5063.94 918.217   4
  -5   7  -4 251.057 154.753   5
  -5   7  -5 1567.14 503.520   5
  -5   7  -6 428.727 321.751   5
  -5   7  -7 895.054 422.941   5
   5  -6  -9 478.603 378.128   6
  -5   6   9 747.395 411.252   2
  -5   6   8 1308.57 526.256   2
   5  -6  -8 1278.90 499.119   6
  -5   6   7 670.468 398.287   2
   5  -6  -7 546.389 311.134   6
  -5   6   6 2605.79 651.070   2
   5  -6  -6 3022.53 651.664   6
  -5   6   5 4594.02 832.069   4
   5  -6  -5 4294.14 723.579   6
  -5   6   4 7556.73 1009.48   4
   5  -6  -4 7133.31 854.865   6
  -5   6   3 21267.1 1633.04   4
   5  -6  -3 22610.6 1407.85   6
  -5   6   2 15511.1 1370.71   4
   5  -6  -2 16344.6 1137.59   6
  -5   6   1 26169.0 1782.76   4
   5  -6  -1 29844.5 1510.53   6
  -5   6   0 747.523 277.712   4
   5  -6   0 958.785 321.297   6
  -5   6  -1-104.244 187.132   5
  -5   6  -1-30.8198 217.712   4
   5  -6   1-220.526 246.800   6
  -5   6  -2-81.4009 182.201   5
  -5   6  -2 333.470 266.345   4
  -5   6  -3 1116.04 394.280   5
  -5   6  -3-1.86991 208.912   4
  -5   6  -4-162.357 180.470   5
  -5   6  -5 2433.37 611.578   5
  -5   6  -6 2523.74 627.545   5
  -5   6  -7-142.621 200.936   5
  -5   6  -8 319.316 254.374   5
   5  -6   8 291.831 303.266   7
   5  -5  -9 835.003 393.062   6
  -5   5   9 644.649 386.284   2
   5  -5  -8 701.611 374.597   6
  -5   5   8 275.426 258.458   2
  -5   5   7 2604.40 684.113   2
   5  -5  -7 2133.86 576.902   6
  -5   5   6 272.910 290.916   2
   5  -5  -6 186.261 163.767   6
  -5   5   5 3581.69 741.892   4
  -5   5   5 3801.66 765.525   2
   5  -5  -5 3471.31 637.018   6
  -5   5   4 447.773 267.741   4
   5  -5  -4 304.871 211.640   6
  -5   5   3 3779.05 692.519   4
   5  -5  -3 3066.26 519.100   6
  -5   5   2 84095.1 3117.39   4
   5  -5  -2 93210.5 2567.95   6
   5  -5  -1 6248.65 641.471   6
  -5   5   1 6078.84 837.013   4
  -5   5   0 3513.35 645.861   4
   5  -5   0 4320.74 539.880   6
  -5   5  -1 13817.4 1283.55   4
   5  -5   1 12678.4 945.953   6
  -5   5  -1 13321.1 1181.53   5
  -5   5  -2 7745.75 1007.36   4
  -5   5  -2 8618.67 951.313   5
  -5   5  -3 108.911 192.350   5
  -5   5  -3 194.681 213.439   4
  -5   5  -4 1928.01 483.362   5
  -5   5  -5 1474.99 449.101   5
  -5   5  -6 189.970 152.997   5
  -5   5  -7 480.824 287.944   5
  -5   5  -8 4559.56 851.855   5
   5  -5   8 4054.27 904.440   7
  -5   5  -9 225.591 261.526   5
   5  -4  -9 115.032 216.711   6
  -5   4   9-185.923 279.100   2
   5  -4  -8 1274.19 465.452   6
  -5   4   8 1861.32 584.142   2
  -5   4   7-276.140 257.064   2
   5  -4  -7 179.816 153.029   6
  -5   4   6 541.664 446.974   2
   5  -4  -6 1329.27 422.056   6
  -5   4   5 690.081 344.791   2
   5  -4  -5 946.742 299.752   6
  -5   4   4 5702.29 859.387   4
   5  -4  -4 4649.54 659.058   6
  -5   4   3 2253.70 505.568   4
   5  -4  -3 2223.16 424.789   6
  -5   4   2 2965.89 556.207   4
  -5   4   1 569.514 325.502   4
  -5   4   0 19324.5 1423.02   4
  -5   4  -1 9486.52 1015.54   4
  -5   4  -1 9952.99 946.812   5
  -5   4  -2 3415.30 554.604   5
  -5   4  -2 3692.16 642.028   4
  -5   4  -3 7949.16 992.384   4
  -5   4  -3 6645.80 773.456   5
  -5   4  -4 3774.78 606.594   5
  -5   4  -5 1686.27 424.675   5
  -5   4  -6 382.120 238.388   5
  -5   4  -7 564.688 298.911   5
  -5   4  -8 1777.89 508.424   5
   5  -4   8 2145.67 643.592   7
  -5   4  -9 234.650 212.763   5
   5  -4   9 30.8121 210.122   7
  -5   4 -10 320.411 259.829   5
  -5   3   9 133.422 229.814   2
   5  -3  -9-390.282 362.725   6
   5  -3  -8 1061.14 438.552   6
  -5   3   8 1250.84 547.907   2
   5  -3  -7-346.649 333.933   6
  -5   3   7-116.949 236.742   2
  -5   3   6 382.275 254.595   2
   5  -3  -6-33.5124 186.403   6
  -5   3   5 6699.42 973.203   2
   5  -3  -5 6791.70 861.921   6
  -5   3   4 271.567 281.186   4
  -5   3   4-249.556 227.923   2
   5  -3  -4-26.9811 127.366   6
  -5   3   3-25.2039 213.358   4
  -5   3   2 1290.09 390.908   4
  -5   3   1 123.490 175.560   4
   5  -3  -1 131.245 97.6612   6
  -5   3   0 3416.54 598.991   4
   5  -3   0 4171.54 430.581   6
  -5   3  -1 33630.8 1806.71   4
   5  -3   1 33148.5 1229.62   6
  -5   3  -2 2378.37 439.534   5
  -5   3  -2 2525.80 523.410   4
  -5   3  -3 4636.84 713.735   4
  -5   3  -3 4290.46 593.035   5
  -5   3  -4 485.593 208.407   5
  -5   3  -5 1286.69 362.678   5
  -5   3  -6 14265.9 1191.22   5
  -5   3  -7 139.130 171.285   5
  -5   3  -8 1823.94 498.767   5
   5  -3   8 2279.85 631.530   7
  -5   3  -9 116.859 163.088   5
   5  -3   9-353.628 321.457   7
  -5   3 -10-309.821 265.096   5
   5  -3  10 733.494 440.701   7
  -5   3 -11-218.038 237.326   5
  -5   2   9 2712.22 820.990   2
   5  -2  -8 6677.58 1065.59   6
  -5   2   8 8837.33 1368.82   2
  -5   2   7 9867.76 1368.57   2
   5  -2  -7 8710.65 1124.95   6
   5  -2  -6 11583.7 1207.18   6
  -5   2   6 10142.4 1308.01   2
  -5   2   5 139.025 170.093   2
   5  -2  -5 247.800 202.817   6
  -5   2   4-143.151 238.718   2
   5  -2  -4-123.253 196.113   6
  -5   2   3 7004.31 907.568   4
  -5   2   3 6159.47 851.266   2
  -5   2   2 9709.42 1029.83   4
   5  -2  -2 9629.45 746.036   6
  -5   2   1 19570.5 1381.42   4
   5  -2  -1 19433.3 909.583   6
   5  -2   0 27313.6 928.661   6
  -5   2   0 26965.7 1560.17   4
  -5   2  -1-15.0646 239.079   4
   5  -2   1 253.173 100.657   6
  -5   2  -2 4793.77 677.396   4
  -5   2  -2 5435.78 583.179   5
  -5   2  -3 4966.75 707.467   4
  -5   2  -3 4017.52 508.137   5
  -5   2  -4 5617.12 792.024   4
  -5   2  -4 6961.27 690.106   5
  -5   2  -5 828.120 263.419   5
  -5   2  -6 2418.58 468.492   5
   5  -2   7 18368.0 1627.09   7
  -5   2  -7 18598.7 1377.19   5
   5  -2   8 312.941 294.629   7
  -5   2  -8 257.760 212.732   5
  -5   2  -9 648.776 326.503   5
   5  -2   9 40.1353 199.542   7
  -5   2 -10 51.7268 211.099   5
   5  -2  10 143.722 247.458   7
  -5   2 -11 1778.06 618.788   5
   5  -2  11 1364.37 602.401   7
  -5   1   8 1073.43 538.064   2
   5  -1  -8 1199.28 535.213   6
  -5   1   7 22868.0 2091.24   2
   5  -1  -7 20442.1 1758.27   6
   5  -1  -6 343.381 231.969   6
  -5   1   6 828.342 437.915   2
   5  -1  -5 1002.87 344.014   6
  -5   1   5 829.089 385.990   2
   5  -1  -4 13318.0 1083.68   6
  -5   1   4 13304.6 1305.91   2
  -5   1   3 6518.62 876.704   2
  -5   1   3 5080.16 610.074   3
  -5   1   2 4660.64 721.613   4
   5  -1  -2 5134.16 535.093   6
  -5   1   1 21431.5 1435.01   4
   5  -1  -1 20490.7 915.123   6
  -5   1   0 46964.1 2027.55   4
   5  -1   0 49308.6 1091.94   6
  -5   1  -1 24.6441 165.729   4
   5  -1   1 28.3931 37.9890   6
  -5   1  -2 16400.5 1145.64   4
  -5   1  -3 2634.33 361.599   5
  -5   1  -3 2530.80 464.522   4
  -5   1  -4 3878.72 616.700   4
  -5   1  -4 3401.87 424.214   5
  -5   1  -5 35233.2 1454.54   5
  -5   1  -6 2092.66 407.881   5
   5  -1   6 2275.73 545.297   7
  -5   1  -7 1869.95 424.878   5
   5  -1   7 2554.28 636.088   7
  -5   1  -8 12271.7 1144.67   5
   5  -1   8 12206.5 1377.37   7
  -5   1  -9 1044.04 388.386   5
   5  -1   9 1404.71 492.200   7
  -5   1 -10 210.618 200.160   5
   5  -1  10 1578.07 596.716   7
  -5   1 -11 202.701 227.602   5
   5  -1  11 858.695 453.707   7
  -5   0   8 4.31374 185.232   2
  -5   0   7-49.6134 239.499   2
   5   0  -7-310.497 286.336   6
   5   0  -6 6350.91 932.414   6
  -5   0   6 6199.39 1074.13   2
   5   0  -5 8732.74 987.495   6
  -5   0   5 9506.67 1219.35   2
   5   0  -4 5703.72 723.542   6
  -5   0   4 6460.74 933.653   2
  -5   0   3 888.586 341.958   2
  -5   0   3 366.650 225.351   3
   5   0  -2 11472.2 803.319   6
  -5   0   2 12199.6 1107.44   2
  -5   0   2 11932.2 974.756   3
  -5   0   1 5401.41 728.314   4
   5   0  -1 4281.22 402.036   6
  -5   0   0 10606.2 931.574   4
   5   0   0 9870.31 445.559   6
  -5   0  -1 151.625 114.160   4
  -5   0  -2 940.447 286.922   4
  -5   0  -3 69715.8 2328.12   4
  -5   0  -3 71826.0 1597.10   5
  -5   0  -4 6072.98 702.243   4
  -5   0  -4 6695.05 510.240   5
  -5   0  -5 4421.86 646.509   4
  -5   0  -5 5303.75 501.256   5
  -5   0  -6 29.4506 77.9525   5
   5   0   6 11.6332 176.733   7
  -5   0  -6 68.6302 106.558   1
  -5   0  -7 11308.7 943.391   5
  -5   0  -7 12839.9 1082.45   1
   5   0   7 10380.5 1184.17   7
  -5   0  -8 34321.1 1801.24   5
  -5   0  -8 35550.7 1884.45   1
   5   0   8 32886.5 2231.13   7
   5   0   9 29.4847 231.265   7
  -5   0  -9 326.578 211.719   1
   5   0  10 3057.06 763.509   7
   5   0  11-338.790 300.515   7
   5   0  12 126.047 233.409   7
  -5  -1   8 2938.53 847.343   2
  -5  -1   7 2.65854 165.250   2
  -5  -1   6 1654.96 560.661   2
  -5  -1   5 14119.5 1510.69   2
  -5  -1   4 16611.0 1525.39   2
  -5  -1   3 821.738 294.728   3
  -5  -1   3 815.069 335.577   2
  -5  -1   2 1485.77 408.312   2
  -5  -1   2 1039.37 307.377   3
   5   1  -2 1141.50 258.788   6
   5   1  -1 33549.3 1169.38   6
  -5  -1   1 33014.0 1709.65   2
  -5  -1   1 33149.0 1685.90   3
  -5  -1   0 7638.88 823.594   4
   5   1   0 7439.38 400.633   6
  -5  -1  -1 186.776 108.092   4
  -5  -1  -2 12285.6 920.241   4
  -5  -1  -3 15699.0 1018.92   4
  -5  -1  -4 12400.7 945.825   4
   5   1   4 11854.9 1049.97   7
  -5  -1  -4 10366.0 506.663   5
  -5  -1  -5 17928.7 1197.03   4
  -5  -1  -5 21262.4 839.923   5
  -5  -1  -6 28284.8 1201.84   5
  -5  -1  -6 29755.6 1634.12   1
   5   1   6 27152.5 1768.06   7
  -5  -1  -7 8222.27 905.003   1
   5   1   7 9317.29 1091.97   7
  -5  -1  -8 100.448 173.898   1
   5   1   8 64.4643 176.713   7
  -5  -1  -9 13252.8 1264.01   1
   5   1   9 13092.1 1461.63   7
   5   1  10 7487.32 1160.83   7
  -5  -1 -10 7630.08 1010.40   1
   5   1  11 69.9563 260.325   7
   5   1  12 238.682 326.771   7
   5   1  12 185.821 237.721   2
  -5  -2   7 301.914 337.436   2
  -5  -2   6-642.105 389.369   2
  -5  -2   5 761.974 382.886   2
  -5  -2   4 3644.00 748.050   2
  -5  -2   3 2233.58 518.180   3
  -5  -2   3 2511.90 564.367   2
  -5  -2   2-217.031 180.238   3
  -5  -2   2 176.199 189.275   2
  -5  -2   1 12404.5 1071.47   2
  -5  -2   1 12183.1 1087.53   3
  -5  -2   0 1758.43 409.826   3
  -5  -2   0 1408.92 353.848   2
   5   2   0 985.036 217.663   7
  -5  -2  -1 13315.8 1006.45   4
   5   2   1 13372.4 874.798   7
  -5  -2  -1 11278.1 1019.36   3
   5   2   2 206.130 140.430   7
  -5  -2  -2 174.479 111.703   4
  -5  -2  -3 771.600 208.698   4
  -5  -2  -4 40880.2 1613.51   4
   5   2   4 40193.3 1925.13   7
  -5  -2  -4 42426.3 962.078   6
  -5  -2  -5 10093.8 953.690   1
  -5  -2  -5 8402.16 775.325   4
   5   2   5 9637.83 988.426   7
  -5  -2  -5 9481.19 638.650   6
  -5  -2  -5 9419.61 428.823   5
  -5  -2  -6 10399.8 626.559   5
  -5  -2  -6 11184.4 1041.75   1
  -5  -2  -6 8430.30 812.966   4
   5   2   6 9822.63 1067.08   7
  -5  -2  -6 9874.46 770.942   6
  -5  -2  -7 5993.10 802.649   1
   5   2   7 7186.98 974.076   7
   5   2   8 6301.51 962.572   7
  -5  -2  -8 6336.28 869.499   1
   5   2   9 111.765 201.739   7
  -5  -2  -9 451.490 294.252   1
   5   2  10 708.800 378.151   7
  -5  -2 -10 440.795 287.192   1
   5   2  11 47.5490 145.724   2
  -5  -2 -11-379.876 336.784   1
   5   2  12 166.414 252.368   7
  -5  -2 -12 351.396 250.402   6
  -5  -2 -13-92.9141 220.832   6
  -5  -3   7 1819.33 656.876   2
  -5  -3   6-11.6637 146.505   2
  -5  -3   5-299.669 264.304   2
  -5  -3   4 1920.92 582.951   2
  -5  -3   3 9102.75 1117.73   2
  -5  -3   3 8297.49 1050.39   3
  -5  -3   2 208.647 201.341   3
  -5  -3   2-92.1316 199.169   2
  -5  -3   1 3126.81 592.420   3
  -5  -3   1 2748.27 514.222   2
  -5  -3   0 1881.57 395.061   2
  -5  -3   0 1215.12 365.404   3
  -5  -3  -1 445.257 233.877   3
  -5  -3  -1 609.370 212.134   2
   5   3   1 1114.37 247.861   7
  -5  -3  -2 95.5105 66.3931   2
  -5  -3  -2 150.263 204.592   3
  -5  -3  -2 41.4898 73.8962   4
   5   3   2 81.2399 89.2260   7
  -5  -3  -3 71.8302 195.705   3
  -5  -3  -3 66.7353 80.6480   4
  -5  -3  -4-5.12190 64.1792   4
  -5  -3  -4 62.7564 39.8233   6
  -5  -3  -5 3437.80 449.597   4
   5   3   5 3068.41 557.205   7
  -5  -3  -5 3774.07 391.163   6
  -5  -3  -6 25555.3 1617.17   1
  -5  -3  -6 25834.5 1305.43   4
   5   3   6 25745.2 1708.23   7
  -5  -3  -6 25377.7 1212.32   6
  -5  -3  -7 2292.11 510.094   1
   5   3   7 2140.77 557.131   7
  -5  -3  -7 3456.64 521.141   4
  -5  -3  -7 3023.70 485.149   6
   5   3   8 449.528 247.167   7
  -5  -3  -8 1126.16 337.381   6
  -5  -3  -8 592.754 294.467   1
   5   3   9 3781.71 778.533   7
  -5  -3  -9 3928.73 726.278   1
  -5  -3  -9 3090.73 586.714   6
   5   3  10 71.3639 328.003   7
  -5  -3 -10 0.79800 183.541   6
  -5  -3 -10 298.589 267.604   1
   5   3  11 1640.97 574.833   7
  -5  -3 -11 1841.97 527.723   6
  -5  -3 -12 1521.28 557.091   1
  -5  -3 -12 337.203 296.643   6
  -5  -3 -13-17.4979 132.347   6
  -5  -4   6 212.927 277.114   2
  -5  -4   5 139.806 200.543   2
  -5  -4   4 2105.96 601.616   2
  -5  -4   3 412.917 280.761   2
  -5  -4   3 1212.91 423.564   3
  -5  -4   2 12758.6 1351.90   3
  -5  -4   2 12748.2 1264.50   2
  -5  -4   1 360.443 219.293   3
  -5  -4   1 707.938 294.578   2
  -5  -4   0 3300.57 629.954   3
  -5  -4   0 3778.67 581.898   2
  -5  -4  -1 250.427 201.139   3
  -5  -4  -1 173.683 123.165   2
  -5  -4  -2 5737.67 570.668   2
  -5  -4  -2 6542.49 840.498   3
  -5  -4  -3 252.322 194.478   3
  -5  -4  -3 217.131 131.434   4
  -5  -4  -3 265.110 110.219   2
  -5  -4  -3 467.383 103.253   6
  -5  -4  -4 2831.37 372.391   4
  -5  -4  -4 2322.58 492.714   3
  -5  -4  -4 2779.82 257.402   6
  -5  -4  -5-100.819 159.581   3
   5   4   5-70.8454 123.023   7
  -5  -4  -5 35.6993 65.9499   4
  -5  -4  -5 48.9585 65.9958   6
  -5  -4  -5-19.5464 166.170   1
  -5  -4  -6 751.119 198.391   4
   5   4   6 515.911 253.019   7
  -5  -4  -6 622.228 309.032   1
  -5  -4  -6 602.748 180.290   6
  -5  -4  -7 80.2218 144.164   1
   5   4   7-19.0744 203.139   7
  -5  -4  -7 86.2055 94.0104   4
  -5  -4  -7 299.835 139.928   6
   5   4   8 2106.80 603.442   7
  -5  -4  -8 1466.30 380.234   6
  -5  -4  -8 945.136 340.468   1
  -5  -4  -9 657.115 320.083   1
  -5  -4  -9 415.429 242.713   6
  -5  -4 -10 7863.22 1124.36   1
  -5  -4 -10 9261.95 1092.95   6
  -5  -4 -11 950.805 444.597   1
  -5  -4 -11 619.283 348.105   6
  -5  -4 -12 2163.38 693.461   1
  -5  -4 -12 708.080 365.155   6
  -5  -4 -13-5.30178 229.698   1
  -5  -4 -13 240.319 272.785   6
  -5  -5   6 1820.13 656.748   2
  -5  -5   5-159.942 218.752   2
  -5  -5   4 3725.49 817.665   2
  -5  -5   3 852.639 371.963   2
  -5  -5   3 668.552 356.558   3
  -5  -5   2 4292.48 770.036   2
  -5  -5   2 3162.45 728.468   3
  -5  -5   1 2136.05 575.337   3
  -5  -5   1 2845.71 578.823   2
  -5  -5   0 1528.49 485.529   3
  -5  -5   0 1646.13 393.473   2
  -5  -5  -1 2472.11 590.753   3
  -5  -5  -1 2864.84 473.314   2
  -5  -5  -2 246.533 261.254   3
  -5  -5  -2-14.4642 51.6924   2
  -5  -5  -3 14241.0 713.203   6
  -5  -5  -3 13965.4 1316.63   3
  -5  -5  -4 64.5497 151.917   3
  -5  -5  -4 52.2221 61.9878   6
  -5  -5  -5 436.343 241.943   3
  -5  -5  -5 246.763 104.580   6
  -5  -5  -5 456.330 221.627   1
  -5  -5  -6 979.365 342.823   3
  -5  -5  -6 1409.57 454.697   1
  -5  -5  -6 1302.87 277.813   6
  -5  -5  -7 2123.70 528.597   1
  -5  -5  -7 2547.01 531.972   3
  -5  -5  -7 2366.85 417.281   6
  -5  -5  -8 1497.20 393.250   3
  -5  -5  -8 1503.06 451.781   1
  -5  -5  -8 2161.65 453.057   6
  -5  -5  -9 4587.54 710.781   3
  -5  -5  -9 6127.65 969.669   1
  -5  -5  -9 5609.34 790.695   6
  -5  -5 -10 5580.94 966.859   1
  -5  -5 -10 5592.86 850.155   6
  -5  -5 -11 601.159 344.529   6
  -5  -5 -11 1294.71 557.434   1
  -5  -5 -12 1760.62 549.640   6
  -5  -5 -12 2138.56 666.823   1
  -5  -5 -13-691.824 404.479   6
  -5  -5 -13 279.178 253.980   1
  -5  -6   5 2698.38 763.432   2
  -5  -6   4-496.693 341.642   2
  -5  -6   3 260.008 294.796   2
  -5  -6   3 226.774 258.212   3
  -5  -6   2 274.620 242.348   2
  -5  -6   2 1017.48 467.564   3
  -5  -6   1 2887.22 597.566   2
  -5  -6   1 2829.76 711.841   3
  -5  -6   0 12877.1 1148.36   2
  -5  -6   0 12125.4 1423.38   3
  -5  -6  -1 10527.0 1272.57   3
  -5  -6  -2 3292.57 725.353   3
  -5  -6  -3 21698.1 1038.12   6
  -5  -6  -3 24028.3 1843.19   3
  -5  -6  -4 31205.7 1177.32   6
  -5  -6  -4 29896.7 1980.25   3
  -5  -6  -5 23724.2 1036.96   6
  -5  -6  -5 20778.6 1630.88   3
  -5  -6  -6 340.431 245.907   3
  -5  -6  -6 270.545 255.324   1
  -5  -6  -6-9.49273 125.164   6
  -5  -6  -7 10553.4 1177.76   1
  -5  -6  -7 10171.4 874.571   6
  -5  -6  -7 11304.9 1167.50   3
  -5  -6  -8 25500.7 1555.89   6
  -5  -6  -8 24141.3 1709.85   3
  -5  -6  -8 27551.8 1986.84   1
  -5  -6  -9-44.9607 165.758   3
  -5  -6  -9 294.933 288.796   1
  -5  -6  -9-155.868 193.570   6
  -5  -6 -10 2971.00 719.543   1
  -5  -6 -10 4399.02 757.417   6
  -5  -6 -11 2024.68 551.956   6
  -5  -6 -11 2481.34 694.596   1
  -5  -6 -12 540.516 335.727   6
  -5  -6 -12-314.927 309.575   1
  -5  -6 -13 233.932 256.669   6
  -5  -6 -13 417.310 355.435   1
  -5  -7   4 447.492 332.980   2
  -5  -7   3 2445.53 719.679   3
  -5  -7   2 758.930 420.452   3
  -5  -7   1 350.490 246.946   3
  -5  -7   0-28.1359 302.401   3
  -5  -7  -1 1157.68 434.189   3
  -5  -7  -2 6842.99 1078.14   3
  -5  -7  -3 789.382 464.874   3
  -5  -7  -4 2346.25 648.517   3
  -5  -7  -5 40742.3 2138.84   1
  -5  -7  -5 35095.3 2239.60   3
  -5  -7  -6 1882.86 500.399   3
  -5  -7  -6 2336.27 386.556   6
  -5  -7  -6 1910.65 503.199   1
  -5  -7  -7 444.210 284.167   3
  -5  -7  -7 308.472 266.897   1
  -5  -7  -7 62.5828 105.289   6
  -5  -7  -8 2020.40 531.952   3
  -5  -7  -8 2671.46 515.649   6
  -5  -7  -8 2976.82 666.584   1
  -5  -7  -9 12986.1 1208.53   6
  -5  -7  -9 13947.7 1357.04   3
  -5  -7  -9 11847.8 1408.38   1
  -5  -7 -10 1555.06 558.145   1
  -5  -7 -10 1565.76 459.431   6
  -5  -7 -11 1599.28 527.861   6
  -5  -7 -11 2431.03 720.870   1
  -5  -7 -12 249.434 232.992   6
  -5  -7 -12-125.574 223.980   1
  -5  -7 -13 186.513 243.112   6
  -5  -7 -13-366.140 382.908   1
  -5  -8   3 295.784 294.890   3
  -5  -8   2-300.275 330.105   3
  -5  -8   1 742.602 447.871   3
  -5  -8   0 337.501 261.958   3
  -5  -8  -1 3039.63 779.525   3
  -5  -8  -2 138.747 294.996   3
  -5  -8  -3 3560.25 829.488   3
  -5  -8  -4 29330.8 2290.41   3
  -5  -8  -5 5274.17 963.259   3
  -5  -8  -5 7479.30 982.843   1
  -5  -8  -6 10211.1 1151.15   1
  -5  -8  -6 8960.06 1219.91   3
  -5  -8  -7 14348.4 1424.01   1
  -5  -8  -7 12651.9 1408.99   3
  -5  -8  -8 2167.32 564.449   3
  -5  -8  -8 2619.77 629.304   1
  -5  -8  -9 1752.63 515.035   3
  -5  -8  -9 1438.45 502.873   1
  -5  -8  -9 1915.46 474.127   6
  -5  -8 -10-14.2343 294.952   1
  -5  -8 -10-168.725 183.963   6
  -5  -8 -11 365.912 360.090   1
  -5  -8 -12 708.013 453.606   1
  -5  -9   2 509.949 401.542   3
  -5  -9   1-178.537 331.180   3
  -5  -9   0 512.906 379.610   3
  -5  -9  -1 3483.06 901.430   3
  -5  -9  -2-154.163 239.122   3
  -5  -9  -3 441.670 354.854   3
  -5  -9  -4 2754.55 774.564   3
  -5  -9  -5 3435.85 837.183   3
  -5  -9  -6 5625.81 1042.76   3
  -5  -9  -6 6118.61 922.596   1
  -5  -9  -7 448.148 309.547   3
  -5  -9  -7 225.025 275.950   1
  -5  -9  -8 2421.93 632.035   1
  -5  -9  -8 2844.10 716.722   3
  -5  -9  -9-419.469 292.619   3
  -5  -9  -9 200.980 269.347   1
  -5  -9 -10-58.1746 204.913   1
  -5  -9 -11-39.3475 219.415   1
  -5  -9 -12 619.927 467.097   1
  -5 -10   0 1032.98 594.945   3
  -5 -10  -1 204.424 288.430   3
  -5 -10  -2-193.466 308.672   3
  -5 -10  -3 94.3329 208.288   3
  -5 -10  -4 360.496 335.050   3
  -5 -10  -5-2.73921 199.521   3
  -5 -10  -6 217.943 208.804   1
  -5 -10  -6 200.737 257.316   3
  -5 -10  -7 482.157 290.036   1
  -5 -10  -7 1008.89 474.277   3
  -5 -10  -8 253.430 271.578   3
  -5 -10  -8 125.176 169.980   1
  -5 -10  -9 215.204 242.588   3
  -5 -10  -9 288.589 288.204   1
  -5 -10 -10 20.5676 271.097   1
  -5 -10 -11 1491.92 577.511   1
  -5 -11  -2-285.431 364.288   3
  -5 -11  -3 445.465 383.270   3
  -5 -11  -4 1355.55 605.864   3
  -5 -11  -5 247.658 263.095   3
  -5 -11  -6 1606.82 651.914   3
  -5 -11  -7-309.763 296.014   1
  -5 -11  -7 7.24232 142.033   3
  -5 -11  -8 74.2792 177.939   1
  -5 -11  -8-472.347 359.096   3
  -5 -11  -9 460.747 352.020   1
  -5 -11  -9 435.443 335.242   3
  -5 -11 -10 160.251 257.683   1
  -5 -11 -11 507.315 370.736   1
  -5 -12  -5 238.258 274.568   3
  -5 -12  -6 160.358 254.661   3
  -5 -12  -7 300.867 307.926   3
  -5 -12  -8-168.310 248.929   3
  -5 -12  -9 27.6314 249.901   1
  -5 -12 -10 81.5677 199.884   1
   6 -11  -3 1103.00 446.479   6
   6 -11  -2 706.598 382.824   6
   6 -11  -1-697.510 391.695   6
   6 -10  -5 170.789 242.193   6
   6 -10  -4 56.8177 148.758   6
  -6  10   3 3.41010 191.179   4
   6 -10  -3-102.333 223.470   6
  -6  10   2 617.821 408.278   4
   6 -10  -2 343.055 274.920   6
  -6  10   1 216.251 198.102   4
   6 -10  -1 470.674 293.605   6
  -6  10   0 380.474 326.134   4
   6 -10   0 555.762 323.913   6
  -6  10  -1 82.1979 209.446   4
  -6  10  -2-369.739 302.887   4
  -6   9   7-178.686 240.152   2
  -6   9   6 688.116 450.964   2
   6  -9  -6 228.874 229.555   6
  -6   9   5 249.497 258.426   4
   6  -9  -5 197.502 159.004   6
  -6   9   4 4694.93 904.960   4
   6  -9  -4 5253.43 806.075   6
  -6   9   3 1487.44 526.286   4
   6  -9  -3 639.914 315.552   6
  -6   9   2 162.634 181.703   4
   6  -9  -2 866.012 379.880   6
  -6   9   1 760.659 386.998   4
   6  -9  -1 214.759 233.255   6
  -6   9   0 838.633 447.596   4
   6  -9   0 1163.56 420.806   6
  -6   9  -1 158.564 205.908   4
  -6   9  -2 108.782 190.741   5
  -6   9  -2 540.773 381.795   4
  -6   9  -3 150.987 172.079   5
  -6   9  -3 379.947 337.819   4
  -6   8   7 36.8069 178.888   2
  -6   8   6 434.193 353.851   4
  -6   8   6 345.991 286.523   2
   6  -8  -6 290.693 202.152   6
  -6   8   5 73.5250 246.362   4
   6  -8  -5 74.5127 159.678   6
  -6   8   4 4363.03 865.444   4
   6  -8  -4 4260.26 712.540   6
  -6   8   3 7722.67 1123.96   4
   6  -8  -3 7235.93 883.365   6
  -6   8   2 430.535 306.448   4
   6  -8  -2 289.008 223.076   6
  -6   8   1-17.0519 167.517   4
   6  -8  -1-184.885 183.787   6
  -6   8   0 387.974 275.806   4
   6  -8   0 790.370 333.446   6
  -6   8  -1 1996.07 592.249   4
   6  -8   1 2804.22 599.240   6
  -6   8  -2-391.945 300.091   5
  -6   8  -2-30.8178 212.782   4
  -6   8  -3 3123.08 752.188   5
  -6   8  -3 3078.91 790.118   4
  -6   8  -4 869.785 429.096   5
  -6   8  -4 631.538 417.986   4
  -6   8  -5 1406.40 532.976   5
  -6   8  -5 2644.17 769.126   4
  -6   7   8 392.134 325.863   2
  -6   7   7 481.217 301.465   2
  -6   7   6-410.025 301.394   2
  -6   7   5 609.372 354.423   4
   6  -7  -5 812.579 332.713   6
  -6   7   4 398.612 295.053   4
   6  -7  -4 459.854 252.496   6
  -6   7   3 5183.33 911.248   4
   6  -7  -3 5062.28 703.786   6
  -6   7   2 1691.20 502.212   4
   6  -7  -2 1778.58 422.046   6
  -6   7   1 1967.23 552.074   4
   6  -7  -1 1967.18 440.963   6
  -6   7   0 1290.07 464.123   4
   6  -7   0 779.252 293.484   6
  -6   7  -1 339.192 278.989   4
   6  -7   1 192.308 180.723   6
  -6   7  -2 1166.67 430.506   5
  -6   7  -2 1322.44 519.480   4
  -6   7  -3 506.723 300.463   5
  -6   7  -3 300.372 279.964   4
  -6   7  -4 1832.16 550.408   5
  -6   7  -4 1860.07 610.263   4
  -6   7  -5 487.034 300.983   5
  -6   7  -5 2016.77 677.811   4
  -6   7  -6 253.213 305.559   5
  -6   7  -6 93.8170 249.198   4
  -6   6   8-144.347 256.627   2
  -6   6   7 655.811 441.722   2
  -6   6   6 1919.55 631.748   2
  -6   6   5-71.4062 173.840   4
  -6   6   5 495.563 322.111   2
  -6   6   4 401.203 303.120   4
   6  -6  -4 140.455 147.753   6
  -6   6   3 3415.23 728.390   4
   6  -6  -3 3084.08 527.093   6
  -6   6   2 4186.29 798.379   4
   6  -6  -2 4106.62 587.417   6
  -6   6   1 16226.1 1500.72   4
   6  -6  -1 17952.8 1190.95   6
  -6   6   0 1294.93 460.897   4
   6  -6   0 1225.67 337.000   6
  -6   6  -1 3805.98 764.141   4
   6  -6   1 5309.98 689.799   6
  -6   6  -2 3318.68 677.665   5
  -6   6  -2 3436.98 734.671   4
  -6   6  -3 671.351 336.252   5
  -6   6  -3 559.574 367.370   4
  -6   6  -4 83.5473 183.545   5
  -6   6  -4 433.155 325.734   4
  -6   6  -5 1638.51 513.027   5
  -6   6  -5 1429.45 529.012   4
  -6   6  -6 2550.19 643.806   5
  -6   6  -7-421.567 294.281   5
  -6   6  -8 465.724 293.914   5
  -6   5   8 142.784 215.777   2
  -6   5   7 874.395 434.504   2
  -6   5   6 67.0374 235.503   2
  -6   5   5 10.7402 157.756   4
  -6   5   5 123.426 171.310   2
  -6   5   4 1153.57 467.696   4
  -6   5   3 682.581 378.585   4
   6  -5  -3 840.857 262.833   6
  -6   5   2-411.537 300.360   4
   6  -5  -2-58.1111 129.455   6
  -6   5   1 8498.98 1060.44   4
   6  -5  -1 9410.29 792.305   6
  -6   5   0 5780.99 895.560   4
   6  -5   0 6435.64 669.742   6
  -6   5  -1 4300.70 761.094   4
   6  -5   1 5459.47 632.079   6
  -6   5  -2-114.342 250.599   4
  -6   5  -2 161.392 186.779   5
  -6   5  -3 6133.70 946.612   4
  -6   5  -3 5760.45 846.042   5
  -6   5  -4 1888.19 496.559   5
  -6   5  -4 902.427 408.925   4
  -6   5  -5 3575.14 691.094   5
  -6   5  -5 3771.41 804.532   4
  -6   5  -6-372.908 262.134   5
  -6   5  -7 134.592 205.850   5
  -6   5  -8 148.225 216.317   5
  -6   5  -9 344.110 270.171   5
   6  -5   9-42.6029 249.345   7
  -6   4   8-114.485 238.902   2
  -6   4   7 569.714 365.414   2
  -6   4   6-343.180 273.650   2
  -6   4   5 1808.74 549.521   2
  -6   4   4 3611.61 744.419   4
  -6   4   4 3717.98 763.584   2
  -6   4   3 6791.55 977.303   4
  -6   4   2 7723.03 1016.74   4
  -6   4   1 6220.58 887.859   4
  -6   4   0 2602.82 553.784   4
  -6   4  -1 674.718 316.770   4
  -6   4  -2 213.581 266.150   4
  -6   4  -2-127.210 154.057   5
  -6   4  -3 2180.11 478.613   5
  -6   4  -3 1433.04 455.526   4
  -6   4  -4 622.742 263.564   5
  -6   4  -4 270.226 260.122   4
  -6   4  -5 1685.12 433.712   5
  -6   4  -5 838.614 352.276   4
  -6   4  -6 602.993 299.682   5
  -6   4  -7 1202.46 435.490   5
  -6   4  -8 1364.32 445.939   5
   6  -4   8 1847.83 639.012   7
  -6   4  -9 297.406 244.557   5
   6  -4   9 322.299 309.058   7
   6  -4  10 718.863 476.749   7
  -6   3   8-656.630 446.306   2
  -6   3   7 1765.46 623.749   2
  -6   3   6-240.537 247.706   2
  -6   3   5 1250.52 461.223   2
  -6   3   4 18698.2 1664.18   2
  -6   3   3 1589.56 507.292   4
  -6   3   2-92.0146 275.868   4
  -6   3   1 7532.08 966.254   4
  -6   3   0 13732.2 1260.71   4
  -6   3  -1 476.780 287.357   4
  -6   3  -2 11062.3 1140.40   4
  -6   3  -3 514.437 232.689   5
  -6   3  -3 774.591 375.309   4
  -6   3  -4 126.640 180.030   5
  -6   3  -4-695.419 336.805   4
  -6   3  -5 3884.17 603.591   5
  -6   3  -5 3126.49 670.644   4
  -6   3  -6 11481.2 1098.58   5
  -6   3  -7 4372.56 698.622   5
  -6   3  -8 38.4718 116.735   5
   6  -3   8 422.054 320.739   7
  -6   3  -9 1857.67 534.091   5
   6  -3   9 1343.78 550.192   7
   6  -3  10-76.7153 225.232   7
  -6   2   8 791.036 475.968   2
  -6   2   7 2378.90 738.771   2
  -6   2   6 14223.9 1638.49   2
  -6   2   5 8134.26 1167.90   2
  -6   2   4 5111.80 876.357   2
  -6   2   3 38389.8 2332.89   4
  -6   2   3 39709.9 2317.65   2
  -6   2   2 14794.0 1394.16   4
  -6   2   1 4823.02 758.772   4
  -6   2   0-12.7668 131.750   4
  -6   2  -1 115.018 141.688   4
  -6   2  -2 5901.47 783.458   4
  -6   2  -3 1104.65 367.390   4
  -6   2  -3 1153.78 314.212   5
  -6   2  -4 708.426 239.161   5
  -6   2  -4 1011.77 353.210   4
  -6   2  -5 2319.72 428.195   5
  -6   2  -5 2306.04 536.068   4
  -6   2  -6 1328.26 357.101   5
  -6   2  -7 425.453 227.880   5
   6  -2   7 83.1435 257.391   7
  -6   2  -8 4007.87 669.798   5
   6  -2   8 3635.63 824.954   7
   6  -2   9-276.077 282.382   7
   6  -2  10 552.330 379.359   7
   6  -2  11 149.546 263.632   7
  -6   1   7-645.389 408.205   2
  -6   1   6 180.057 223.136   2
  -6   1   5 39730.4 2600.82   2
  -6   1   4 14726.8 1483.71   2
  -6   1   3 12417.9 1294.50   2
  -6   1   3 11063.4 1008.89   3
  -6   1   2 16530.7 1474.73   4
  -6   1   2 18734.8 1524.78   2
  -6   1   1 7862.75 965.330   4
  -6   1   0 11439.1 1100.83   4
  -6   1  -1 25002.5 1570.81   4
  -6   1  -2 5419.00 741.639   4
  -6   1  -3 4167.49 653.985   4
  -6   1  -4 11.5678 62.5910   5
  -6   1  -4 1.32060 134.400   4
  -6   1  -5 758.437 232.796   5
  -6   1  -5 1565.78 424.202   4
  -6   1  -6 2073.57 389.709   5
  -6   1  -6 1490.05 452.690   4
  -6   1  -7 270.916 173.001   5
   6  -1   7 49.7375 193.337   7
   6  -1   8 6740.96 1069.47   7
   6  -1   9 497.015 348.803   7
   6  -1  10-1.31397 238.427   7
   6  -1  11-561.364 406.435   7
  -6   0   7 12029.7 1641.94   2
  -6   0   6 1197.14 573.255   2
  -6   0   5 2394.29 665.926   2
  -6   0   4 863.370 372.505   2
  -6   0   3 25534.0 1868.11   2
  -6   0   3 24635.1 1564.57   3
  -6   0   2 22420.4 1647.04   2
  -6   0   2 21286.4 1445.27   3
  -6   0   1 1850.59 467.967   4
  -6   0   1 3554.04 646.403   2
  -6   0   0 1516.26 444.530   4
  -6   0  -1 1185.07 347.189   4
  -6   0  -2 4306.11 640.472   4
  -6   0  -3 1636.24 410.902   4
  -6   0  -4 190.353 192.001   4
  -6   0  -4 227.661 102.277   5
  -6   0  -5 11751.3 1107.50   4
   6   0   5 12390.8 1212.95   7
   6   0   6 427.012 280.071   7
  -6   0  -6 171.597 177.048   4
   6   0   7 4324.40 798.032   7
   6   0   8 101.424 252.007   7
   6   0   9-173.923 236.879   7
  -6   0  -9 17.4974 165.182   1
   6   0  10 87.6593 244.171   7
   6   0  11 757.863 450.917   7
   6   0  12 2126.26 768.326   7
  -6  -1   7 249.124 306.062   2
  -6  -1   6 13051.3 1650.23   2
  -6  -1   5 6099.10 1062.73   2
  -6  -1   4 11586.6 1365.65   2
  -6  -1   3 8158.87 1079.45   2
  -6  -1   3 9419.16 1022.13   3
  -6  -1   2 603.590 319.647   2
  -6  -1   2 330.337 217.255   3
  -6  -1   1 4983.87 740.992   2
  -6  -1   1 5740.49 770.977   3
  -6  -1   0 3663.97 630.575   4
  -6  -1  -1 3977.69 620.884   4
  -6  -1  -2 11731.3 1010.68   4
  -6  -1  -3 1457.19 352.395   4
   6   1   3 1617.06 406.698   7
  -6  -1  -4 16170.2 1166.43   4
   6   1   4 14740.5 1241.29   7
  -6  -1  -5 13451.9 1115.37   4
   6   1   5 13346.8 1235.82   7
   6   1   6 2598.02 578.776   7
  -6  -1  -6 3084.96 578.857   4
   6   1   7 4785.13 844.519   7
  -6  -1  -7 4775.82 739.991   4
  -6  -1  -8 1965.56 490.640   1
   6   1   8 1299.73 476.161   7
  -6  -1  -9 3392.56 652.853   1
   6   1   9 3229.04 736.848   7
   6   1  10-18.3567 209.907   7
  -6  -1 -10 234.421 210.696   1
   6   1  11-138.563 245.008   7
   6   1  12 708.258 434.853   7
  -6  -2   6 703.223 385.785   2
  -6  -2   5 1320.84 522.318   2
  -6  -2   4 4404.46 882.810   2
  -6  -2   3 5449.28 844.316   3
  -6  -2   3 6678.62 992.873   2
  -6  -2   2 299.159 229.608   3
  -6  -2   2-203.100 197.757   2
  -6  -2   1 5622.44 801.838   3
  -6  -2   1 5711.96 797.099   2
  -6  -2   0 12360.2 1093.95   2
  -6  -2   0 12183.0 1165.39   3
  -6  -2  -1 29542.8 1684.21   4
   6   2   1 29223.2 1433.16   7
  -6  -2  -1 26889.8 1712.95   3
  -6  -2  -2 7.96837 92.6703   4
  -6  -2  -3 212.564 137.163   4
   6   2   3 69.7582 92.5128   7
  -6  -2  -4 2411.35 440.704   4
   6   2   4 2213.81 465.696   7
   6   2   5 33.9859 177.222   7
  -6  -2  -5-38.6637 111.011   4
   6   2   6 3975.06 713.220   7
  -6  -2  -6 2864.57 508.548   4
   6   2   7 2153.96 586.734   7
  -6  -2  -7 1877.41 445.001   4
  -6  -2  -7 1785.05 461.710   1
  -6  -2  -8 13127.8 1260.05   1
  -6  -2  -8 12701.4 1195.64   4
   6   2   8 11548.0 1345.47   7
   6   2   9 3533.41 798.399   7
  -6  -2  -9 5295.28 844.123   1
  -6  -2 -10 958.399 404.239   1
   6   2  10 120.534 242.711   7
   6   2  11 1887.19 626.789   7
  -6  -2 -11 1454.99 524.619   1
   6   2  12 100.600 275.736   7
  -6  -3   6 412.361 336.687   2
  -6  -3   5 449.218 279.077   2
  -6  -3   4 3994.32 850.942   2
  -6  -3   3 4278.73 799.284   3
  -6  -3   3 2666.77 662.639   2
  -6  -3   2 24558.9 1813.43   2
  -6  -3   2 26691.6 1889.65   3
  -6  -3   1 9505.33 1055.08   2
  -6  -3   1 9544.82 1114.94   3
  -6  -3   0 539.130 251.086   2
  -6  -3   0 830.993 353.625   3
  -6  -3  -1 10039.1 922.592   2
  -6  -3  -1 9816.71 1069.98   3
  -6  -3  -2 8099.74 837.658   4
  -6  -3  -2 9066.15 826.561   2
  -6  -3  -2 9857.97 1075.26   3
  -6  -3  -3 1582.75 427.157   3
  -6  -3  -3 1185.46 315.185   4
  -6  -3  -4 558.260 213.241   4
   6   3   4 299.309 184.698   7
  -6  -3  -5 951.904 266.104   4
   6   3   5 942.071 360.906   7
   6   3   6 1685.24 498.672   7
  -6  -3  -6 1556.69 354.535   4
   6   3   7 1206.50 449.848   7
  -6  -3  -7 1438.23 359.532   4
  -6  -3  -7 1751.40 481.249   1
  -6  -3  -8 1157.05 441.794   1
   6   3   8 1533.97 492.539   7
  -6  -3  -8 1296.73 371.085   4
  -6  -3  -9 4499.17 800.354   1
   6   3   9 4800.21 905.833   7
  -6  -3 -10 6116.11 968.252   1
   6   3  10 6143.27 1073.25   7
  -6  -3 -11 3401.72 752.072   1
   6   3  11 2580.49 735.247   7
   6   3  12 38.6972 175.459   7
  -6  -3 -12 277.659 201.277   1
  -6  -4   5 734.301 417.353   2
  -6  -4   4 5728.24 1034.48   2
  -6  -4   3 19798.0 1797.16   2
  -6  -4   3 19338.2 1808.43   3
  -6  -4   2 423.310 355.750   3
  -6  -4   2-103.649 196.607   2
  -6  -4   1 9611.62 1089.50   2
  -6  -4   1 10724.8 1259.01   3
  -6  -4   0 4844.23 816.169   3
  -6  -4   0 5665.68 773.467   2
  -6  -4  -1 4371.63 770.551   3
  -6  -4  -1 4229.21 616.608   2
  -6  -4  -2-19.4666 90.3391   2
  -6  -4  -2 53.1680 207.624   3
  -6  -4  -3 18318.3 1190.09   4
  -6  -4  -3 16198.9 1021.48   2
  -6  -4  -3 18215.5 1506.45   3
  -6  -4  -4 1522.57 409.499   3
  -6  -4  -4 1258.02 299.885   4
   6   4   4 1052.34 345.072   7
  -6  -4  -5 1407.80 404.367   3
  -6  -4  -5 1270.61 291.687   4
   6   4   5 1328.81 387.756   7
  -6  -4  -6 10416.7 818.772   4
  -6  -4  -6 13065.3 1248.85   1
   6   4   6 10223.1 1122.35   7
  -6  -4  -7 9439.45 1099.91   1
   6   4   7 8541.94 1100.24   7
   6   4   8 1897.27 553.726   7
  -6  -4  -8 1762.89 536.051   1
  -6  -4  -9 2960.30 668.717   1
   6   4   9 2772.36 741.808   7
  -6  -4 -10 988.113 404.682   1
   6   4  10 462.531 378.221   7
  -6  -4 -11 6930.60 1116.63   1
  -6  -4 -12 1218.13 503.304   1
  -6  -4 -13 96.1157 207.893   1
  -6  -5   5 5899.30 1143.88   2
  -6  -5   4-178.150 222.811   2
  -6  -5   3 7715.64 1150.62   2
  -6  -5   3 5453.82 1038.50   3
  -6  -5   2 110.172 250.886   3
  -6  -5   2-121.711 161.201   2
  -6  -5   1 3424.69 769.933   3
  -6  -5   1 2921.32 620.291   2
  -6  -5   0 658.174 319.125   3
  -6  -5   0 728.748 291.808   2
  -6  -5  -1 674.198 401.569   3
  -6  -5  -1 975.016 301.974   2
  -6  -5  -2 126.856 200.307   3
  -6  -5  -3 19788.1 1664.00   3
  -6  -5  -4 24644.7 1810.40   3
  -6  -5  -5 1064.89 435.483   3
  -6  -5  -6-25.0046 194.026   3
  -6  -5  -6 285.441 281.629   1
  -6  -5  -7-90.0346 280.655   3
  -6  -5  -7 92.2336 313.733   1
  -6  -5  -8 11133.3 1258.81   1
  -6  -5  -8 8436.55 1084.03   3
  -6  -5  -9 16291.1 1582.12   1
  -6  -5  -9 15955.5 1437.81   3
  -6  -5 -10 9328.89 1262.13   1
  -6  -5 -10 8942.01 1074.14   3
  -6  -5 -11 89.9207 279.202   1
  -6  -5 -12 51.0046 222.249   1
  -6  -5 -13 1231.85 559.845   1
  -6  -6   4 1264.78 523.544   2
  -6  -6   3 386.941 318.964   2
  -6  -6   3-83.0517 210.510   3
  -6  -6   2-113.437 189.057   2
  -6  -6   2-188.300 261.932   3
  -6  -6   1 1363.05 521.656   3
  -6  -6   0 186.263 246.654   3
  -6  -6  -1 1872.13 586.305   3
  -6  -6  -2-81.5542 195.286   3
  -6  -6  -3 10720.1 1303.85   3
  -6  -6  -4 284.407 405.036   3
  -6  -6  -5 6534.17 1000.15   3
  -6  -6  -6 22466.2 1733.38   1
  -6  -6  -6 24066.6 1848.57   3
  -6  -6  -7 29916.6 1998.42   1
  -6  -6  -7 28876.1 2002.72   3
  -6  -6  -8 4820.51 824.874   3
  -6  -6  -8 4956.02 867.515   1
  -6  -6  -9 2671.25 610.934   3
  -6  -6  -9 3603.36 782.780   1
  -6  -6 -10 4190.97 763.230   3
  -6  -6 -10 4231.12 871.235   1
  -6  -6 -11 4798.18 971.701   1
  -6  -6 -12-168.446 275.621   1
  -6  -6 -13 144.062 282.802   1
  -6  -7   3-464.352 352.565   3
  -6  -7   2-731.035 433.121   3
  -6  -7   1 373.434 234.583   3
  -6  -7   0 923.292 494.011   3
  -6  -7  -1 4338.59 935.904   3
  -6  -7  -2 495.321 397.317   3
  -6  -7  -3 624.100 368.652   3
  -6  -7  -4 5930.13 1053.98   3
  -6  -7  -5 36995.4 2468.09   3
  -6  -7  -6 5196.99 913.303   3
  -6  -7  -6 7380.35 994.026   1
  -6  -7  -7 424.140 328.295   3
  -6  -7  -7 840.121 413.192   1
  -6  -7  -8 3135.77 701.410   3
  -6  -7  -8 3256.21 725.283   1
  -6  -7  -9 9025.96 1234.09   1
  -6  -7  -9 6387.36 991.232   3
  -6  -7 -10-158.500 251.512   1
  -6  -7 -11 407.074 355.748   1
  -6  -7 -12 283.432 287.119   1
  -6  -8   2-307.522 324.648   3
  -6  -8   1 48.7886 227.464   3
  -6  -8   0 414.431 374.564   3
  -6  -8  -1 344.618 325.072   3
  -6  -8  -2 881.967 468.092   3
  -6  -8  -3 1560.16 555.369   3
  -6  -8  -4 440.353 347.138   3
  -6  -8  -5 3434.48 798.311   3
  -6  -8  -6 6868.91 1103.04   3
  -6  -8  -7 4943.62 935.322   3
  -6  -8  -7 4907.38 851.673   1
  -6  -8  -8 1464.08 530.367   3
  -6  -8  -8 1480.44 506.210   1
  -6  -8  -9 2317.96 623.312   3
  -6  -8  -9 2284.75 683.621   1
  -6  -8 -10 8.38912 187.917   1
  -6  -8 -11 304.250 290.916   1
  -6  -8 -12 966.760 501.873   1
  -6  -9   1 335.701 344.176   3
  -6  -9   0-92.5952 229.337   3
  -6  -9  -1 709.646 383.466   3
  -6  -9  -2-363.391 373.559   3
  -6  -9  -3-493.235 369.808   3
  -6  -9  -4 331.541 295.136   3
  -6  -9  -5 3469.83 852.858   3
  -6  -9  -6 2002.93 622.802   3
  -6  -9  -7 760.794 424.436   3
  -6  -9  -7 1795.59 528.267   1
  -6  -9  -8 1412.43 528.612   3
  -6  -9  -8 1889.21 572.628   1
  -6  -9  -9 292.780 274.750   3
  -6  -9  -9 717.852 418.763   1
  -6  -9 -10 583.368 411.053   1
  -6  -9 -11 520.636 402.363   1
  -6 -10  -1 1455.98 667.716   3
  -6 -10  -2-351.082 361.634   3
  -6 -10  -3-306.105 459.892   3
  -6 -10  -4 802.037 493.797   3
  -6 -10  -5 92.8945 251.254   3
  -6 -10  -6 6924.79 1267.40   3
  -6 -10  -7-48.2364 193.307   3
  -6 -10  -7 258.156 228.840   1
  -6 -10  -8 433.973 342.228   3
  -6 -10  -8-292.660 320.855   1
  -6 -10  -9 230.054 268.657   3
  -6 -10  -9 494.324 349.461   1
  -6 -10 -10-1.29614 148.182   1
  -6 -10 -11 232.699 195.936   1
  -6 -11  -4 253.401 326.034   3
  -6 -11  -5 1785.09 710.766   3
  -6 -11  -6 1116.39 573.869   3
  -6 -11  -7 644.812 424.307   3
  -6 -11  -8 46.9888 235.947   1
  -6 -11  -8 586.009 419.160   3
  -6 -11  -9-241.560 272.744   1
  -6 -11  -9 643.357 407.528   3
  -6 -11 -10 1.34091 144.129   1
  -6 -12  -8 121.326 198.404   3
  -6 -12  -9 884.568 453.161   1
  -6 -12  -9 342.272 343.838   3
  -7  10   2 74.4705 238.629   4
  -7  10   1-373.184 333.403   4
  -7   9   5 1352.27 556.314   4
  -7   9   4 257.265 286.592   4
  -7   9   3 5310.11 1031.03   4
  -7   9   2 330.517 299.666   4
  -7   9   1 453.509 307.244   4
  -7   9   0 39.1305 177.470   4
  -7   9  -1 1093.21 490.020   4
  -7   9  -2-1092.88 502.730   4
  -7   8   6-383.358 320.940   4
  -7   8   5-142.113 260.368   4
  -7   8   4 927.164 463.426   4
  -7   8   3 3095.73 790.318   4
  -7   8   2 805.082 423.237   4
  -7   8   1 55.4477 201.076   4
  -7   8   0 217.258 278.962   4
  -7   8  -1 806.219 428.000   4
  -7   8  -2 270.947 297.094   4
  -7   8  -3-408.303 322.781   5
  -7   8  -3-33.7796 158.115   4
  -7   8  -4-531.210 342.531   5
  -7   7   6-124.365 234.335   2
  -7   7   5 749.719 435.387   4
  -7   7   4 1664.55 640.696   4
  -7   7   3 2952.11 747.915   4
  -7   7   2 1251.98 494.596   4
  -7   7   1 629.673 340.580   4
  -7   7   0 1478.48 519.288   4
  -7   7  -1 533.068 342.181   4
  -7   7  -2 2204.91 634.381   4
  -7   7  -3-34.1953 210.811   5
  -7   7  -3-142.161 236.740   4
  -7   7  -4 347.409 260.219   5
  -7   7  -4 673.621 411.092   4
  -7   7  -5 754.514 394.108   5
  -7   7  -5 1696.78 632.141   4
  -7   7  -6 365.809 294.020   5
  -7   6   6 157.331 223.073   2
  -7   6   5-208.674 249.640   4
  -7   6   5 685.684 421.079   2
  -7   6   4 126.422 230.843   4
  -7   6   3 2223.82 644.681   4
  -7   6   2 1496.84 527.929   4
  -7   6   1-292.184 243.971   4
  -7   6   0 2848.97 676.793   4
  -7   6  -1 620.007 399.222   4
  -7   6  -2 134.951 219.661   4
  -7   6  -3 633.219 379.826   4
  -7   6  -3 1063.72 436.082   5
  -7   6  -4 272.146 266.390   5
  -7   6  -4 380.196 313.355   4
  -7   6  -5 1049.15 439.596   5
  -7   6  -5 765.086 432.404   4
  -7   6  -6 520.365 339.332   5
  -7   6  -6 617.880 385.889   4
  -7   6  -7 2462.58 654.669   5
  -7   5   6 415.848 346.877   2
  -7   5   5 134.943 232.561   2
  -7   5   4 1211.07 495.149   4
  -7   5   3 1458.97 507.181   4
  -7   5   2 3390.80 755.712   4
  -7   5   1 1786.82 590.161   4
  -7   5   0 429.169 265.640   4
  -7   5  -1 3356.20 711.636   4
  -7   5  -2 2203.99 582.283   4
  -7   5  -3 1466.90 504.482   4
  -7   5  -3 1009.31 365.444   5
  -7   5  -4 156.930 166.174   5
  -7   5  -4 494.429 341.989   4
  -7   5  -5 4310.89 778.004   5
  -7   5  -5 4306.95 893.037   4
  -7   5  -6 1518.52 467.337   5
  -7   5  -6 2450.77 711.865   4
  -7   5  -7 416.434 260.107   5
  -7   5  -7 71.7550 308.846   4
  -7   4   6-68.4011 221.870   2
  -7   4   5-127.275 299.315   2
  -7   4   4 142.244 175.448   4
  -7   4   4 280.151 278.128   2
  -7   4   3 2351.87 652.675   4
  -7   4   2 28.0400 183.210   4
  -7   4   1 1625.55 534.071   4
  -7   4   0 856.221 344.698   4
  -7   4  -1 20988.9 1717.25   4
  -7   4  -2-228.445 334.905   4
  -7   4  -3 1336.78 479.573   4
  -7   4  -3 716.853 287.818   5
  -7   4  -4 9118.77 1193.69   4
  -7   4  -4 8876.24 997.471   5
  -7   4  -5 792.495 327.722   5
  -7   4  -5 682.774 310.534   4
  -7   4  -6 5064.97 794.197   5
  -7   4  -6 5865.71 1031.90   4
  -7   4  -7-54.5230 213.656   4
   7  -4   8-383.617 331.475   7
  -7   4  -8 8.11410 256.379   4
   7  -4   9 947.070 525.793   7
  -7   3   6 2672.65 774.183   2
  -7   3   5 611.870 390.494   2
  -7   3   4 186.915 287.620   2
  -7   3   3 172.452 309.050   4
  -7   3   3 307.091 255.207   2
  -7   3   2 455.784 262.345   4
  -7   3   1 3176.27 648.546   4
  -7   3   0 25504.0 1842.34   4
  -7   3  -1 18392.9 1562.63   4
  -7   3  -2 8356.94 1041.67   4
  -7   3  -3 29751.2 2002.20   4
  -7   3  -4 2965.03 550.530   5
  -7   3  -4 1619.93 486.281   4
  -7   3  -5 115.384 232.430   4
  -7   3  -6-45.7203 291.670   4
  -7   3  -7 5346.88 984.742   4
   7  -3   8 2284.62 688.079   7
  -7   3  -8 2931.35 755.093   4
   7  -3   9-242.212 295.788   7
  -7   2   6 397.743 248.671   2
  -7   2   5-157.575 346.878   2
  -7   2   4-302.746 309.961   2
  -7   2   3 8283.94 1163.44   4
  -7   2   3 7490.73 1095.48   2
  -7   2   2 8290.92 1138.69   4
  -7   2   1 1740.65 476.358   4
  -7   2   0 22896.1 1740.70   4
  -7   2  -1 16061.1 1408.49   4
  -7   2  -2 38163.2 2162.97   4
  -7   2  -3 16351.0 1421.48   4
  -7   2  -4 8709.54 1077.49   4
  -7   2  -5 5966.43 923.302   4
  -7   2  -6 470.776 249.977   4
   7  -2   7 1831.53 598.504   7
  -7   2  -7 2508.53 655.775   4
   7  -2   8 817.358 390.986   7
  -7   2  -8 24.8876 332.156   4
   7  -2   9-224.739 289.453   7
   7  -2  10 556.751 419.712   7
  -7   1   6 941.386 456.776   2
  -7   1   5-12.3257 176.750   2
  -7   1   4 1020.30 451.723   2
  -7   1   3 202.162 165.122   2
  -7   1   2 3296.35 708.444   4
  -7   1   2 3677.65 741.458   2
  -7   1   1 41144.8 2395.36   4
  -7   1   0 2269.75 546.431   4
  -7   1  -1 4636.27 748.118   4
  -7   1  -2 20330.9 1536.24   4
  -7   1  -3 7794.93 945.039   4
  -7   1  -4 2070.57 503.423   4
  -7   1  -5 498.720 282.550   4
  -7   1  -6 1868.92 520.435   4
   7  -1   7 3356.28 763.073   7
  -7   1  -7 1500.32 517.770   4
   7  -1   8-124.929 262.830   7
  -7   1  -8 284.908 290.924   4
   7  -1   9 78.3269 250.052   7
   7  -1  10 274.138 319.379   7
   7  -1  11 569.547 433.344   7
  -7   0   6 569.692 400.679   2
  -7   0   5 136.369 210.769   2
  -7   0   4 441.274 329.014   2
  -7   0   3 7666.23 1113.53   2
  -7   0   2 818.713 316.691   3
  -7   0   2 144.367 254.268   2
  -7   0   1 6367.51 952.261   4
  -7   0   1 6784.87 944.333   2
  -7   0   0 11826.2 1225.56   4
  -7   0  -1 957.479 338.651   4
  -7   0  -2 4941.57 747.995   4
  -7   0  -3 41.5567 131.808   4
  -7   0  -4 2305.45 507.569   4
   7   0   5 323.175 299.955   7
  -7   0  -5 364.321 240.880   4
   7   0   6 1152.28 409.580   7
  -7   0  -6 572.585 321.835   4
   7   0   7 1485.90 503.829   7
  -7   0  -7 884.904 405.550   4
  -7   0  -8-219.266 255.075   4
   7   0   8 207.231 398.645   7
   7   0   9 376.449 303.336   7
   7   0  10 348.098 346.514   7
   7   0  11 2736.72 816.312   7
  -7  -1   6 335.419 293.872   2
  -7  -1   5 1018.23 497.576   2
  -7  -1   4 492.383 295.141   2
  -7  -1   3 234.376 238.886   2
  -7  -1   2 5411.02 887.382   2
  -7  -1   2 6825.61 945.102   3
  -7  -1   1 1076.27 378.687   3
  -7  -1   1 1367.84 458.504   2
  -7  -1   0 6534.28 918.055   4
  -7  -1   0 6268.56 864.605   2
  -7  -1   0 6793.00 931.168   3
  -7  -1  -1 20121.3 1536.33   4
  -7  -1  -2 7699.59 912.388   4
   7   1   2 7991.75 908.861   7
  -7  -1  -3 12314.8 1130.11   4
   7   1   3 13404.8 1212.57   7
   7   1   4 308.632 223.516   7
  -7  -1  -4 858.547 305.772   4
  -7  -1  -5 12126.8 1120.12   4
   7   1   5 11246.5 1210.51   7
   7   1   6 1831.30 524.856   7
  -7  -1  -6 2068.62 488.573   4
   7   1   7 3932.04 784.253   7
  -7  -1  -7 3660.37 681.354   4
   7   1   8 1434.22 516.083   7
  -7  -1  -8 1057.42 392.122   4
   7   1   9 6687.50 1135.89   7
  -7  -1  -9 5857.23 935.811   4
   7   1  10-160.470 284.651   7
   7   1  11 513.916 404.634   7
  -7  -2   5 1.36691 127.521   2
  -7  -2   4 303.489 252.740   2
  -7  -2   3 597.283 410.924   2
  -7  -2   2 9582.00 1196.99   2
  -7  -2   2 10122.1 1207.44   3
  -7  -2   1 2699.44 602.783   2
  -7  -2   1 2866.58 639.079   3
  -7  -2   0 3430.90 677.753   3
  -7  -2   0 3335.10 629.031   2
  -7  -2  -1 19547.7 1521.82   4
  -7  -2  -1 19263.1 1445.64   2
  -7  -2  -1 20594.0 1612.08   3
  -7  -2  -2 1132.82 360.484   4
   7   2   2 1339.65 343.974   7
  -7  -2  -3 3772.74 624.406   4
   7   2   3 3403.15 611.609   7
  -7  -2  -4 6249.29 770.454   4
   7   2   4 5280.81 808.861   7
  -7  -2  -5 2160.89 464.649   4
   7   2   5 4219.19 747.072   7
   7   2   6 2674.38 602.871   7
  -7  -2  -6 3760.37 617.432   4
   7   2   7 2634.72 643.164   7
  -7  -2  -7 1499.98 417.420   4
   7   2   8 428.057 373.557   7
  -7  -2  -8 930.049 351.527   4
  -7  -2  -9 263.322 192.152   1
   7   2   9 320.289 331.222   7
  -7  -2  -9 81.5404 177.789   4
  -7  -2 -10 1952.94 549.141   1
   7   2  10 2276.28 693.509   7
   7   2  11 1933.68 701.085   7
  -7  -2 -11 952.141 405.801   1
   7   2  12 291.519 323.941   7
  -7  -3   5-141.547 200.695   2
  -7  -3   4-277.267 272.275   2
  -7  -3   3 12778.0 1500.38   2
  -7  -3   2 14160.9 1484.21   2
  -7  -3   2 15789.3 1573.14   3
  -7  -3   1 18148.6 1570.99   2
  -7  -3   1 17111.9 1598.26   3
  -7  -3   0 4308.35 724.557   2
  -7  -3   0 3981.85 781.990   3
  -7  -3  -1 16207.7 1293.63   2
  -7  -3  -1 14610.7 1423.64   3
  -7  -3  -2 334.404 222.192   3
  -7  -3  -2 129.520 161.180   4
  -7  -3  -2 220.760 153.092   2
  -7  -3  -3 3589.93 743.128   3
  -7  -3  -3 3584.78 588.395   4
   7   3   3 2737.96 539.488   7
  -7  -3  -4 7047.14 804.143   4
   7   3   4 6834.48 913.974   7
  -7  -3  -5 106.696 145.883   4
   7   3   5-207.399 207.781   7
   7   3   6 1475.42 510.214   7
  -7  -3  -6 1986.93 425.493   4
   7   3   7 2275.05 612.842   7
  -7  -3  -7 2122.75 449.205   4
   7   3   8 2718.41 700.232   7
   7   3   9 791.943 411.797   7
  -7  -3  -9 954.873 395.066   1
   7   3  10 4591.02 953.580   7
  -7  -3 -10 4011.04 795.714   1
  -7  -3 -11 17.3059 150.592   1
   7   3  11 174.051 309.229   7
  -7  -3 -12 1673.09 581.631   1
   7   3  12 1327.58 569.449   7
  -7  -4   5 208.236 234.528   2
  -7  -4   4 1242.86 566.604   2
  -7  -4   3 7365.82 1176.22   2
  -7  -4   2 513.155 340.493   3
  -7  -4   2 520.631 330.180   2
  -7  -4   1 202.445 232.812   3
  -7  -4   1 42.1925 131.139   2
  -7  -4   0 3609.90 770.174   3
  -7  -4   0 4603.53 747.516   2
  -7  -4  -1 3113.34 580.368   2
  -7  -4  -1 2842.64 666.910   3
  -7  -4  -2 10143.5 966.501   2
  -7  -4  -2 10424.2 1227.85   3
  -7  -4  -3 15441.0 1238.86   4
   7   4   3 16133.3 1276.76   7
  -7  -4  -3 16197.0 1532.24   3
  -7  -4  -4 5465.67 899.272   3
  -7  -4  -4 4896.78 651.714   4
   7   4   4 5739.80 818.626   7
  -7  -4  -5 2952.54 661.603   3
  -7  -4  -5 2153.19 425.058   4
   7   4   5 2441.83 571.775   7
   7   4   6 11767.5 1290.51   7
   7   4   7 201.438 275.167   7
  -7  -4  -8 533.838 322.257   1
   7   4   8 422.428 271.306   7
   7   4   9-828.333 447.211   7
  -7  -4  -9 419.068 292.031   1
  -7  -4 -10 708.780 382.164   1
   7   4  10 1177.20 484.246   7
   7   4  11-189.874 307.310   7
  -7  -4 -11 88.6677 197.342   1
  -7  -4 -12 286.865 300.619   1
  -7  -4 -13 600.789 376.856   1
  -7  -5   4 943.147 478.626   2
  -7  -5   3 1910.11 630.512   2
  -7  -5   2-48.4301 251.382   3
  -7  -5   2 137.133 180.774   2
  -7  -5   1 381.015 294.349   3
  -7  -5   1 131.352 157.174   2
  -7  -5   0 68.7218 195.065   3
  -7  -5  -1 2654.61 687.206   3
  -7  -5  -2 137.766 194.972   3
  -7  -5  -3 275.407 297.459   3
  -7  -5  -4 14621.2 1500.25   3
  -7  -5  -5 2661.87 665.883   3
   7   5   5 2397.88 565.419   7
  -7  -5  -6 679.589 360.098   3
   7   5   6 1763.64 525.480   7
  -7  -5  -7 14.9949 279.701   3
   7   5   7 42.0949 189.446   7
  -7  -5  -8 80.2672 280.401   1
  -7  -5  -8 268.625 235.562   3
   7   5   8 429.552 317.622   7
  -7  -5  -9 468.276 271.727   3
   7   5   9 339.244 313.238   7
  -7  -5  -9-390.653 301.432   1
  -7  -5 -10 560.167 369.594   1
  -7  -5 -10 575.408 311.943   3
  -7  -5 -11 614.989 408.169   1
  -7  -5 -12 2859.39 767.751   1
  -7  -6   2 19.7830 204.178   3
  -7  -6   1 1825.31 637.260   3
  -7  -6   0 352.608 322.893   3
  -7  -6  -1 3158.54 796.160   3
  -7  -6  -2 206.736 270.598   3
  -7  -6  -3 422.710 339.774   3
  -7  -6  -4 1248.52 546.292   3
  -7  -6  -5 122.297 190.245   3
  -7  -6  -6 257.277 221.823   3
  -7  -6  -7-120.334 214.169   3
  -7  -6  -8 180.027 206.197   3
  -7  -6  -8 10.6665 266.198   1
  -7  -6  -9-12.0330 178.334   3
  -7  -6  -9-527.645 364.169   1
  -7  -6 -10 1394.48 472.446   3
  -7  -6 -10 1109.27 481.130   1
  -7  -6 -11 2247.14 695.124   1
  -7  -6 -12 2405.65 756.987   1
  -7  -7   2 163.300 263.538   3
  -7  -7   1 43.5567 245.499   3
  -7  -7   0 1683.19 631.740   3
  -7  -7  -1-192.727 239.553   3
  -7  -7  -2 642.571 389.456   3
  -7  -7  -3 288.249 306.717   3
  -7  -7  -4 1925.08 580.517   3
  -7  -7  -5 3276.87 803.690   3
  -7  -7  -6 5577.38 1008.61   3
  -7  -7  -7 2026.63 602.714   3
  -7  -7  -8-8.05976 325.120   1
  -7  -7  -8-55.0254 185.522   3
  -7  -7  -9 247.699 249.643   3
  -7  -7  -9-136.276 297.020   1
  -7  -7 -10 2264.59 632.031   3
  -7  -7 -10 1933.51 598.840   1
  -7  -7 -11 5511.90 1072.20   1
  -7  -7 -12 1747.14 651.876   1
  -7  -8   1 1226.42 601.211   3
  -7  -8   0 60.6032 187.507   3
  -7  -8  -1 415.484 182.397   3
  -7  -8  -2 248.583 300.521   3
  -7  -8  -3 1474.64 606.451   3
  -7  -8  -4 285.774 318.562   3
  -7  -8  -5 6228.38 1118.97   3
  -7  -8  -6 446.922 323.340   3
  -7  -8  -7 267.477 267.020   3
  -7  -8  -8 899.608 445.152   3
  -7  -8  -8 1601.84 531.185   1
  -7  -8  -9 129.533 175.568   3
  -7  -8  -9 217.188 232.372   1
  -7  -8 -10 160.691 279.052   1
  -7  -8 -10 177.538 224.006   3
  -7  -8 -11 157.565 366.299   1
  -7  -9  -1 69.4877 276.431   3
  -7  -9  -2 1651.11 672.172   3
  -7  -9  -3-266.904 305.321   3
  -7  -9  -4-226.042 343.523   3
  -7  -9  -5 577.909 332.872   3
  -7  -9  -6 444.805 316.575   3
  -7  -9  -7 333.172 327.186   3
  -7  -9  -8-376.663 328.563   3
  -7  -9  -9-241.469 295.117   1
  -7  -9  -9 5.25922 124.908   3
  -7  -9 -10 677.911 359.655   3
  -7  -9 -10-306.893 282.886   1
  -7  -9 -11 850.490 463.437   1
  -7 -10  -3-258.523 397.588   3
  -7 -10  -4 1191.05 557.392   3
  -7 -10  -5-220.540 278.708   3
  -7 -10  -6 201.645 290.978   3
  -7 -10  -7 113.468 230.027   3
  -7 -10  -8-96.8778 232.205   3
  -7 -10  -9-178.865 234.110   3
  -7 -10  -9 55.9960 193.274   1
  -7 -10 -10 82.2983 214.685   3
  -7 -10 -10 1053.28 411.577   1
  -7 -11  -7 240.391 336.691   3
  -7 -11  -8 1205.67 571.605   3
  -7 -11  -9 337.623 367.808   3
  -7 -11  -9 329.653 326.637   1
  -8   8   3 257.842 287.518   4
  -8   8   2 1027.88 455.193   4
  -8   8   1 479.997 346.969   4
  -8   8   0 640.301 361.553   4
  -8   8  -1-639.505 408.291   4
  -8   7   4 194.274 254.527   4
  -8   7   3 126.559 190.370   4
  -8   7   2 484.085 331.302   4
  -8   7   1 1341.60 557.602   4
  -8   7   0-423.410 337.194   4
  -8   7  -1 311.182 290.427   4
  -8   7  -2 312.529 280.110   4
  -8   7  -3 594.815 359.012   4
  -8   7  -4 71.0402 186.867   5
  -8   6   4 1018.47 484.176   4
  -8   6   3 386.012 315.748   4
  -8   6   2 1251.47 499.025   4
  -8   6   1-102.099 190.657   4
  -8   6   0-387.241 300.619   4
  -8   6  -1 1318.27 485.843   4
  -8   6  -2 335.473 249.801   4
  -8   6  -3-543.629 363.002   4
  -8   6  -4-7.52608 196.341   4
  -8   6  -5 1661.58 633.958   4
  -8   5   5 3448.07 863.091   2
  -8   5   4 168.829 297.694   4
  -8   5   4 1687.60 625.150   2
  -8   5   3-230.942 273.911   4
  -8   5   2 746.834 375.951   4
  -8   5   1 1265.57 526.239   4
  -8   5   0 840.021 381.983   4
  -8   5  -1 111.679 267.265   4
  -8   5  -2 221.326 308.852   4
  -8   5  -3 798.914 404.491   4
  -8   5  -4 113.692 328.007   4
  -8   5  -5 388.220 349.780   4
  -8   5  -6 3030.10 807.256   4
  -8   4   5 135.003 208.938   2
  -8   4   4 291.843 287.466   4
  -8   4   4 542.901 395.912   2
  -8   4   3-33.6515 173.600   4
  -8   4   2 1132.83 472.686   4
  -8   4   1 305.657 267.395   4
  -8   4   0 3236.19 751.787   4
  -8   4  -1 2630.70 659.088   4
  -8   4  -2 146.264 211.141   4
  -8   4  -3 206.481 272.063   4
  -8   4  -4 5624.61 976.348   4
  -8   4  -5 4454.73 902.253   4
  -8   4  -6 519.888 337.059   4
  -8   4  -7 183.671 283.024   4
  -8   3   5 167.449 261.623   2
  -8   3   4 559.512 328.280   2
  -8   3   3 2943.37 761.879   4
  -8   3   3 4301.48 903.707   2
  -8   3   2-534.751 381.768   4
  -8   3   1 2789.66 691.291   4
  -8   3   0 221.225 267.946   4
  -8   3  -1 207.809 239.558   4
  -8   3  -2 949.535 380.620   4
  -8   3  -3 11413.1 1298.54   4
  -8   3  -4 938.525 430.898   4
  -8   3  -5 8326.19 1176.85   4
  -8   3  -6 3948.54 833.577   4
  -8   3  -7 896.266 410.024   4
   8  -3   8 150.187 244.497   7
  -8   3  -8 421.320 346.546   4
  -8   2   5 455.800 341.280   2
  -8   2   4 1630.59 566.179   2
  -8   2   3 2100.59 648.612   2
  -8   2   2 2226.45 643.324   4
  -8   2   2 2496.64 684.410   2
  -8   2   1 986.480 435.518   4
  -8   2   0 423.532 284.084   4
  -8   2  -1-104.222 200.005   4
  -8   2  -2 46.6829 180.019   4
  -8   2  -3 2647.20 650.950   4
  -8   2  -4 18037.8 1584.16   4
  -8   2  -5 6023.20 958.295   4
  -8   2  -6 696.716 374.099   4
  -8   2  -7 12269.1 1473.11   4
   8  -2   7 14987.7 1687.01   7
   8  -2   8 320.173 310.551   7
  -8   2  -8-380.403 334.587   4
   8  -2   9-149.020 250.991   7
  -8   2  -9 900.526 477.025   4
  -8   1   5 212.602 249.696   2
  -8   1   4-339.539 311.455   2
  -8   1   3-35.3094 183.540   2
  -8   1   2 5648.10 1007.68   4
  -8   1   2 6608.86 1042.97   2
  -8   1   1 1079.18 483.306   4
  -8   1   0 260.719 212.811   4
  -8   1  -1 6659.66 970.340   4
  -8   1  -2 1971.41 539.870   4
  -8   1  -3 7393.84 984.934   4
  -8   1  -4 2370.37 581.778   4
  -8   1  -5 6960.93 1002.87   4
   8  -1   6 3701.43 832.425   7
  -8   1  -6 3703.67 736.479   4
   8  -1   7 965.089 470.734   7
  -8   1  -7 689.734 409.719   4
   8  -1   8 300.540 324.537   7
  -8   1  -8 482.847 361.283   4
   8  -1   9-127.704 286.951   7
  -8   1  -9-535.077 344.228   4
   8  -1  10 140.994 245.862   7
  -8   1 -10-31.8707 188.327   4
  -8   0   5-535.974 368.903   2
  -8   0   4 2289.88 688.009   2
  -8   0   3 1203.02 477.186   2
  -8   0   2 33.0191 136.143   2
  -8   0   1-242.460 229.293   4
  -8   0   1 124.756 177.534   3
  -8   0   1 88.5944 160.298   2
  -8   0   0 4434.25 821.094   4
  -8   0  -1 858.015 402.077   4
  -8   0  -2 1685.65 470.645   4
  -8   0  -3 30009.0 1948.20   4
  -8   0  -4 379.848 234.545   4
   8   0   5 3561.80 750.454   7
  -8   0  -5 2023.71 522.812   4
   8   0   6 789.639 437.638   7
  -8   0  -6 315.891 263.649   4
   8   0   7 2569.20 696.664   7
  -8   0  -7 2436.78 618.437   4
   8   0   8 884.152 434.952   7
  -8   0  -8 577.355 330.376   4
   8   0   9 280.599 323.897   7
  -8   0  -9-88.6437 198.588   4
   8   0  10 463.996 409.494   7
  -8   0 -10 459.568 323.564   4
  -8   0 -11-297.048 283.744   4
  -8  -1   4 331.146 290.752   2
  -8  -1   3 1016.48 453.117   2
  -8  -1   2 144.156 222.969   2
  -8  -1   1-13.7861 196.925   3
  -8  -1   1-0.94326 110.183   2
  -8  -1   0 367.639 281.827   3
  -8  -1   0 472.173 325.168   4
  -8  -1   0-143.268 177.735   2
  -8  -1  -1 6747.99 980.955   4
   8   1   2 10713.6 1137.41   7
  -8  -1  -2 10916.8 1191.87   4
  -8  -1  -3 10535.1 1143.96   4
   8   1   3 12627.7 1290.92   7
  -8  -1  -4 213.706 200.741   4
   8   1   4-118.998 224.701   7
  -8  -1  -5 2086.10 502.351   4
   8   1   5 3274.33 708.420   7
  -8  -1  -6 11558.9 1201.30   4
   8   1   6 8796.98 1195.23   7
   8   1   7 2018.50 600.991   7
  -8  -1  -7 817.594 370.770   4
   8   1   8 5634.83 1036.00   7
  -8  -1  -8 3745.41 740.536   4
   8   1   9 1206.12 557.941   7
  -8  -1  -9 901.212 413.418   4
   8   1  10 610.773 408.856   7
  -8  -1 -10 26.7171 132.681   4
   8   1  11 530.837 488.133   7
  -8  -2   4-178.692 223.862   2
  -8  -2   3 2351.34 674.790   2
  -8  -2   2 2855.30 711.295   2
  -8  -2   1 2173.97 595.342   2
  -8  -2   1 2056.61 609.637   3
  -8  -2   0 605.604 336.044   3
  -8  -2   0 108.418 162.112   2
  -8  -2  -1-99.5080 184.010   3
  -8  -2  -1 91.2527 239.084   4
  -8  -2  -1-7.19860 121.754   2
  -8  -2  -2 910.999 354.439   4
  -8  -2  -3 2166.31 514.375   4
   8   2   3 1441.63 432.801   7
  -8  -2  -4 5260.31 784.792   4
   8   2   4 5305.82 846.447   7
  -8  -2  -5 1266.71 404.070   4
   8   2   5 1270.26 456.129   7
  -8  -2  -6 635.754 277.469   4
   8   2   6 1102.76 421.330   7
  -8  -2  -7 17744.5 1458.87   4
   8   2   7 17942.2 1753.49   7
   8   2   8 2015.57 646.295   7
  -8  -2  -8 2983.68 620.944   4
   8   2   9 1920.08 666.535   7
   8   2  10 547.767 362.331   7
   8   2  11 574.093 306.708   7
  -8  -3   4-444.051 346.421   2
  -8  -3   3 872.853 437.699   2
  -8  -3   2 1244.59 487.734   2
  -8  -3   1 729.615 375.946   3
  -8  -3   1 91.0518 184.970   2
  -8  -3   0-120.102 192.759   2
  -8  -3   0-104.856 173.988   3
  -8  -3  -1 6.08482 170.862   3
  -8  -3  -1-142.662 154.888   2
  -8  -3  -2 18707.6 1568.55   4
  -8  -3  -2 19448.5 1491.26   2
  -8  -3  -2 18412.0 1713.42   3
  -8  -3  -3 975.919 516.326   3
  -8  -3  -3 317.442 201.409   4
  -8  -3  -4 9201.24 1015.96   4
   8   3   4 8540.10 1094.46   7
  -8  -3  -5 12221.2 1143.35   4
   8   3   5 13526.4 1419.00   7
  -8  -3  -6 9219.86 988.014   4
   8   3   6 9637.35 1234.30   7
   8   3   7 131.435 224.676   7
   8   3   8 9.22064 262.388   7
   8   3   9-76.3181 264.739   7
   8   3  10 44.8905 292.097   7
   8   3  11 3349.63 891.591   7
  -8  -3 -12-78.5851 182.878   1
  -8  -4   3-19.9583 158.966   2
  -8  -4   2 653.772 359.108   2
  -8  -4   1 1493.85 544.551   3
  -8  -4   1 475.933 291.220   2
  -8  -4   0 656.351 382.196   3
  -8  -4   0 400.066 255.395   2
  -8  -4  -1 529.389 314.226   3
  -8  -4  -2 1136.36 488.741   3
  -8  -4  -3 10239.0 1110.89   4
  -8  -4  -3 10613.4 1351.10   3
   8   4   4 17097.7 1493.77   7
  -8  -4  -4 17609.2 1719.82   3
  -8  -4  -5 838.945 399.509   3
   8   4   5-126.858 190.343   7
  -8  -4  -6 3283.98 735.541   3
   8   4   6 2880.04 667.250   7
   8   4   7 483.513 336.303   7
   8   4   8 211.241 289.606   7
   8   4   9-157.801 392.352   7
   8   4  10 761.930 407.596   7
  -8  -4 -11 6165.23 1071.12   1
   8   4  11 5804.56 1169.98   7
  -8  -4 -12-1.26654 458.292   1
  -8  -5   1 752.889 434.429   3
  -8  -5   0 568.175 361.128   3
  -8  -5  -1 1313.37 514.868   3
  -8  -5  -2-47.1973 186.997   3
  -8  -5  -3 3147.19 771.008   3
  -8  -5  -4 174.527 232.825   3
  -8  -5  -5 3350.54 817.966   3
   8   5   5 3389.13 700.044   7
  -8  -5  -6 423.359 316.532   3
   8   5   6-23.4147 213.222   7
  -8  -5  -7 369.944 322.388   3
   8   5   7 10.5937 169.083   7
  -8  -5  -8 955.589 423.765   3
   8   5   8 885.084 422.572   7
  -8  -5  -9 3094.89 743.836   3
   8   5   9 4012.46 907.169   7
  -8  -5 -10 2730.68 703.683   3
  -8  -5 -10 4777.45 931.171   1
   8   5  10 2433.35 739.768   7
  -8  -5 -11 892.926 405.068   3
  -8  -5 -11 246.613 265.795   1
  -8  -5 -12 2948.71 792.469   1
  -8  -6   1 718.166 443.939   3
  -8  -6   0 1153.58 497.811   3
  -8  -6  -1-20.2847 175.257   3
  -8  -6  -2 1137.46 496.305   3
  -8  -6  -3 2451.89 704.364   3
  -8  -6  -4 40.3264 231.456   3
  -8  -6  -5 574.814 349.435   3
  -8  -6  -6 451.660 378.543   3
  -8  -6  -7 4987.30 970.277   3
  -8  -6  -8-50.7944 181.075   3
  -8  -6  -9 240.363 231.366   3
  -8  -6 -10 475.679 308.499   3
  -8  -6 -10 48.6068 216.495   1
  -8  -6 -11 1328.13 504.513   3
  -8  -6 -11 693.796 424.097   1
  -8  -7   1 793.856 475.127   3
  -8  -7   0 878.816 497.024   3
  -8  -7  -1 913.963 475.723   3
  -8  -7  -2-81.4722 210.460   3
  -8  -7  -3 1391.93 540.447   3
  -8  -7  -4 45.2200 223.328   3
  -8  -7  -5 1326.86 539.019   3
  -8  -7  -6 337.446 325.981   3
  -8  -7  -7-58.3962 193.877   3
  -8  -7  -8 463.295 333.027   3
  -8  -7  -9 397.678 293.640   3
  -8  -7 -10 99.7752 156.601   3
  -8  -7 -10 669.499 399.381   1
  -8  -7 -11 497.409 406.959   1
  -8  -8  -1-354.124 384.274   3
  -8  -8  -2-307.869 345.857   3
  -8  -8  -3 637.712 466.404   3
  -8  -8  -4 1229.39 592.940   3
  -8  -8  -5 565.653 373.816   3
  -8  -8  -6 683.009 428.347   3
  -8  -8  -7 658.829 378.657   3
  -8  -8  -8 672.371 357.432   3
  -8  -8  -9 266.873 270.203   3
  -8  -8 -10 1238.81 525.883   3
  -8  -8 -10 1258.72 500.759   1
  -8  -9  -4-31.8862 209.452   3
  -8  -9  -5 307.493 340.122   3
  -8  -9  -6 374.708 378.565   3
  -8  -9  -7 143.253 263.306   3
  -8  -9  -8 1066.84 488.723   3
  -8  -9  -9 179.230 257.420   3
  -8  -9 -10 200.438 234.849   3
  -8 -10  -9 1273.64 564.265   3
  -8 -10 -10 592.884 424.806   3
  -9   6   1-210.898 250.388   4
  -9   6   0 575.919 408.517   4
  -9   6  -1 954.261 456.473   4
  -9   6  -2 424.494 369.620   4
  -9   5   2 1442.62 574.268   4
  -9   5   1 538.903 336.443   4
  -9   5   0 94.8615 233.169   4
  -9   5  -1-596.173 361.463   4
  -9   5  -2-336.796 304.851   4
  -9   5  -3 381.682 295.580   4
  -9   5  -4 642.650 402.855   4
  -9   4   3-135.754 253.251   4
  -9   4   3 203.284 251.092   2
  -9   4   2 204.181 292.798   4
  -9   4   1 1486.73 569.594   4
  -9   4   0 17.7648 275.293   4
  -9   4  -1 67.4431 215.199   4
  -9   4  -2 865.267 417.935   4
  -9   4  -3 162.691 252.595   4
  -9   4  -4 1367.90 562.423   4
  -9   4  -5 110.428 223.350   4
  -9   4  -6 916.835 495.089   4
  -9   3   3 426.283 408.984   4
  -9   3   3 396.211 320.240   2
  -9   3   2 325.634 277.822   4
  -9   3   1 328.346 284.518   4
  -9   3   0 370.129 306.673   4
  -9   3  -1-192.935 276.626   4
  -9   3  -2 1680.34 555.665   4
  -9   3  -3 1895.31 572.322   4
  -9   3  -4 606.934 351.976   4
  -9   3  -5 187.642 202.946   4
  -9   3  -6 1267.75 507.790   4
  -9   3  -7 450.609 331.779   4
  -9   2   3-34.3278 193.591   2
  -9   2   2 356.276 279.330   4
  -9   2   2 1307.93 510.195   2
  -9   2   1-84.5599 201.153   4
  -9   2   0 411.921 268.411   4
  -9   2  -1 664.069 348.407   4
  -9   2  -2 2636.44 664.648   4
  -9   2  -3 5785.65 970.420   4
  -9   2  -4 47.0488 227.398   4
  -9   2  -5 96.7826 158.102   4
  -9   2  -6 215.416 233.935   4
   9  -2   7 4710.57 1007.46   7
  -9   2  -7 4523.40 923.409   4
   9  -2   8 2311.56 779.687   7
  -9   2  -8 1843.24 635.483   4
  -9   1   3-491.466 341.319   2
  -9   1   2-1.21347 173.689   2
  -9   1   1 518.970 346.052   4
  -9   1   1 665.324 371.363   2
  -9   1   0-228.855 225.767   4
  -9   1  -1 173.624 211.310   4
  -9   1  -2 3537.33 755.730   4
  -9   1  -3 3867.92 770.553   4
  -9   1  -4 679.298 386.392   4
  -9   1  -5 332.747 298.279   4
   9  -1   6 415.101 274.497   7
  -9   1  -6 120.508 193.202   4
   9  -1   7 308.605 333.787   7
  -9   1  -7-38.0905 144.349   4
   9  -1   8 1784.89 624.823   7
  -9   1  -8 1600.99 560.008   4
  -9   1  -9 555.882 385.413   4
  -9   0   3 512.099 346.466   2
  -9   0   2 822.658 424.063   2
  -9   0   1-4.10336 114.462   3
  -9   0   1-408.484 312.126   2
  -9   0   0 636.708 351.737   4
  -9   0   0 1413.02 498.378   2
  -9   0  -1 3774.97 804.774   4
  -9   0  -2 4436.05 846.595   4
  -9   0  -3 1460.30 472.018   4
  -9   0  -4 659.667 378.906   4
   9   0   4 329.331 290.180   7
  -9   0  -5-106.481 181.703   4
   9   0   5-255.058 289.592   7
   9   0   6 1042.77 465.376   7
  -9   0  -6 746.107 378.019   4
   9   0   7 351.009 303.048   7
  -9   0  -7 400.313 288.663   4
   9   0   8 937.762 489.086   7
  -9   0  -8 670.624 378.708   4
   9   0   9 51.1366 266.666   7
  -9   0  -9 267.656 172.553   4
  -9   0 -10-594.591 363.873   4
  -9  -1   3 2560.61 744.723   2
  -9  -1   2 1670.31 581.388   2
  -9  -1   1 2691.89 684.247   3
  -9  -1   1 1603.28 536.643   2
  -9  -1   0-413.399 313.230   4
  -9  -1   0-198.810 258.448   3
  -9  -1   0-332.458 256.748   2
  -9  -1  -1 2446.46 655.826   3
  -9  -1  -1 1959.25 596.668   4
  -9  -1  -1 3103.52 709.650   2
  -9  -1  -2 1119.69 451.666   4
  -9  -1  -3 2414.18 606.715   4
   9   1   3 2435.13 635.120   7
  -9  -1  -4-70.3082 182.566   4
   9   1   4-67.2600 179.552   7
  -9  -1  -5-75.0123 185.344   4
   9   1   5 143.165 211.603   7
  -9  -1  -6 1053.31 382.178   4
   9   1   6 1358.98 496.579   7
   9   1   7 3013.93 785.709   7
  -9  -1  -7 5321.38 883.434   4
   9   1   8 542.120 381.301   7
  -9  -1  -8 1230.17 456.788   4
   9   1   9 560.318 428.084   7
  -9  -1  -9 642.815 345.894   4
  -9  -2   3 1595.07 598.425   2
  -9  -2   2-964.007 465.932   2
  -9  -2   1 2071.20 614.677   2
  -9  -2   1 1534.32 536.817   3
  -9  -2   0 1229.13 487.242   3
  -9  -2   0 1634.00 525.012   2
  -9  -2  -1 463.624 330.270   4
  -9  -2  -1 661.700 398.303   3
  -9  -2  -1 583.887 321.298   2
  -9  -2  -2 541.093 329.966   3
  -9  -2  -2 724.254 363.641   4
  -9  -2  -2 727.359 337.320   2
  -9  -2  -3 1277.41 484.280   4
  -9  -2  -4 780.107 353.056   4
   9   2   4 698.429 380.927   7
  -9  -2  -5-208.965 198.484   4
   9   2   5 252.172 251.972   7
  -9  -2  -6 554.137 314.094   4
   9   2   6 30.3741 225.944   7
  -9  -2  -7 956.126 377.163   4
   9   2   7 490.700 350.324   7
   9   2   8 625.265 383.794   7
   9   2   9 141.025 249.176   7
   9   2  10 2104.11 766.753   7
  -9  -3   3-86.5148 191.592   2
  -9  -3   2 1586.45 558.536   2
  -9  -3   1 826.977 421.374   3
  -9  -3   1 1600.43 538.732   2
  -9  -3   0 704.965 358.525   2
  -9  -3   0 829.385 427.584   3
  -9  -3  -1 623.009 320.944   2
  -9  -3  -1-1.17482 227.241   3
  -9  -3  -2 67.7889 177.686   4
  -9  -3  -2-342.000 273.273   3
  -9  -3  -3 1850.50 593.273   3
  -9  -3  -3 2046.54 566.739   4
  -9  -3  -4 1146.89 492.397   3
  -9  -3  -4-60.7656 145.039   4
  -9  -3  -5-100.996 161.283   4
   9   3   5-17.7819 197.849   7
   9   3   6 1277.17 521.230   7
   9   3   7-288.726 295.462   7
   9   3   8 161.175 299.010   7
   9   3   9 1020.22 479.061   7
   9   3  10 263.626 256.000   7
  -9  -4   1 811.656 440.325   3
  -9  -4   0 343.331 341.272   3
  -9  -4  -1 230.061 283.425   3
  -9  -4  -2 42.1516 245.689   3
  -9  -4  -3 1525.17 557.305   3
  -9  -4  -4 19.2219 204.501   3
  -9  -4  -5 3330.98 803.775   3
  -9  -4  -6 771.899 405.764   3
   9   4   6 267.074 298.079   7
   9   4   7 642.226 441.142   7
   9   4   8 744.669 417.780   7
   9   4   9 1161.32 563.510   7
   9   4  10 2355.08 766.118   7
  -9  -5   1 1152.77 549.876   3
  -9  -5   0 656.509 429.639   3
  -9  -5  -1 572.847 377.308   3
  -9  -5  -2 914.701 455.001   3
  -9  -5  -3-342.875 302.812   3
  -9  -5  -4 696.503 446.875   3
  -9  -5  -5 254.588 263.327   3
  -9  -5  -6 304.767 295.163   3
   9   5   6 101.842 188.067   7
  -9  -5  -7 1581.26 548.532   3
   9   5   7 1510.19 552.764   7
  -9  -5  -8-105.102 191.786   3
   9   5   8-527.345 381.058   7
  -9  -5  -9 94.8107 216.622   3
   9   5   9 118.246 217.945   7
  -9  -5 -10 485.498 294.100   3
   9   5  10 502.898 408.679   7
  -9  -5 -11 170.626 204.682   3
  -9  -6   0 773.858 472.393   3
  -9  -6  -1-452.933 351.456   3
  -9  -6  -2 600.914 397.064   3
  -9  -6  -3 1284.75 555.928   3
  -9  -6  -4-25.0795 286.792   3
  -9  -6  -5 621.114 437.361   3
  -9  -6  -6 591.894 420.213   3
  -9  -6  -7 162.021 251.121   3
  -9  -6  -8 134.621 209.213   3
  -9  -6  -9 1901.17 636.754   3
  -9  -6 -10 454.058 323.050   3
  -9  -6 -11 689.966 395.387   3
  -9  -7  -2 520.802 445.968   3
  -9  -7  -3-347.406 310.504   3
  -9  -7  -4 145.774 286.016   3
  -9  -7  -5-118.676 240.077   3
  -9  -7  -6-406.153 383.256   3
  -9  -7  -7 449.654 363.764   3
  -9  -7  -8 1676.96 629.029   3
  -9  -7  -9 44.8188 165.760   3
  -9  -7 -10 213.442 290.129   3
  -9  -7 -11 82.6923 167.957   3
  -9  -8  -5 153.096 430.295   3
  -9  -8  -6 521.772 418.170   3
  -9  -8  -7 303.929 312.780   3
  -9  -8  -8 327.324 328.940   3
  -9  -8  -9-28.8267 143.960   3
  -9  -8 -10 825.906 457.082   3
 -10   3   0 355.061 303.347   4
 -10   3  -1 1657.35 595.008   4
 -10   3  -2 375.335 296.863   4
 -10   3  -3 843.222 437.954   4
 -10   3  -4 25.6186 157.592   4
 -10   3  -5 2029.80 635.263   4
 -10   2   1 1392.26 564.828   2
 -10   2   0 1083.05 538.333   4
 -10   2  -1 328.019 279.669   4
 -10   2  -2 146.637 239.458   4
 -10   2  -3-34.9157 134.733   4
 -10   2  -4 696.257 383.672   4
 -10   2  -5-182.514 212.408   4
  10  -2   6-244.358 308.893   7
 -10   2  -6 465.398 304.869   4
 -10   1   1 289.481 316.056   4
 -10   1   1 614.445 378.470   2
 -10   1   0 579.456 392.037   4
 -10   1  -1 673.643 371.252   4
 -10   1  -2 1053.53 454.697   4
 -10   1  -3-177.428 259.487   4
 -10   1  -4-17.6989 148.935   4
  10  -1   5 463.557 330.203   7
 -10   1  -5 299.122 271.413   4
  10  -1   6 6.80141 193.164   7
 -10   1  -6 323.560 277.784   4
  10  -1   7 803.049 462.823   7
 -10   1  -7 439.606 308.372   4
 -10   1  -8-121.587 214.149   4
 -10   0   1 679.762 405.654   2
 -10   0   0 853.425 434.533   4
 -10   0   0 1342.95 536.334   3
 -10   0   0 1091.71 487.752   2
 -10   0  -1-1.23921 118.968   4
 -10   0  -2-57.5015 183.065   4
 -10   0  -3-168.412 250.503   4
 -10   0  -4-145.020 194.501   4
  10   0   4 718.922 445.068   7
 -10   0  -5 2.10910 132.738   4
  10   0   5-257.984 321.534   7
 -10   0  -6 485.443 311.439   4
  10   0   6 18.4273 219.082   7
  10   0   7 360.264 281.357   7
 -10   0  -7 740.861 382.425   4
  10   0   8-67.4325 246.165   7
 -10   0  -8 51.3493 198.766   4
 -10   0  -9-129.981 206.209   4
 -10  -1   1 881.748 428.810   2
 -10  -1   0 963.833 455.347   3
 -10  -1   0 609.175 363.313   2
 -10  -1  -1 1413.98 542.749   3
 -10  -1  -1 2194.30 666.041   4
 -10  -1  -1 1414.25 499.551   2
 -10  -1  -2 188.892 260.666   4
 -10  -1  -3 315.088 273.560   4
 -10  -1  -4 2468.06 645.115   4
 -10  -1  -5 35.5784 185.856   4
  10   1   5-171.742 234.933   7
 -10  -1  -6 1627.44 521.322   4
  10   1   6 317.446 337.015   7
 -10  -1  -7-27.1472 147.171   4
  10   1   7-483.294 405.583   7
 -10  -1  -8 434.794 284.574   4
  10   1   8 756.069 452.746   7
 -10  -2   1 556.611 365.028   2
 -10  -2   0 481.283 308.417   2
 -10  -2   0 426.051 344.159   3
 -10  -2  -1-289.082 298.445   3
 -10  -2  -1 348.056 266.389   2
 -10  -2  -2 2729.43 742.594   3
 -10  -2  -2 2146.01 646.294   4
 -10  -2  -3 627.810 423.158   3
 -10  -2  -3 982.886 428.119   4
 -10  -2  -4 2432.16 629.624   4
 -10  -2  -5 429.311 274.669   4
  10   2   5 495.461 443.924   7
 -10  -2  -6 671.336 310.513   4
  10   2   6 902.421 449.527   7
  10   2   7 1384.49 568.566   7
  10   2   8 1411.16 612.473   7
  10   2   9 503.391 401.384   7
 -10  -3   0 446.795 374.564   3
 -10  -3  -1-315.786 292.582   3
 -10  -3  -2 631.175 374.442   3
 -10  -3  -3 288.637 294.113   3
 -10  -3  -3-185.204 257.979   4
 -10  -3  -4 751.171 438.932   3
 -10  -3  -5 5970.48 1127.31   3
  10   3   6 500.738 351.200   7
  10   3   7-239.855 282.120   7
  10   3   8-116.010 277.234   7
  10   3   9 429.515 404.560   7
 -10  -4   0 1490.37 592.531   3
 -10  -4  -1 494.118 367.316   3
 -10  -4  -2-104.677 204.724   3
 -10  -4  -3-385.129 319.048   3
 -10  -4  -4 3155.68 830.058   3
 -10  -4  -5 164.631 236.702   3
 -10  -4  -6 168.749 252.654   3
 -10  -4  -7 1040.83 505.108   3
  10   4   7 1459.86 584.091   7
 -10  -4  -8 815.448 427.790   3
  10   4   8-34.0246 195.344   7
  10   4   9-219.682 324.110   7
 -10  -5  -2 501.799 410.201   3
 -10  -5  -3 1868.64 698.876   3
 -10  -5  -4 657.433 404.509   3
 -10  -5  -5 340.666 334.553   3
 -10  -5  -6 287.080 305.188   3
 -10  -5  -7 585.811 408.633   3
 -10  -5  -8-1011.66 512.187   3
  10   5   8 516.941 369.169   7
  10   5   9 395.571 382.041   7
 -10  -6  -6-160.934 254.467   3
  11  -1   4 1263.14 510.472   7
  11  -1   5 1939.29 700.828   7
 -11   0  -1 1789.71 632.424   3
 -11   0  -1 1629.91 570.839   2
 -11   0  -3 145.306 239.607   4
 -11   0  -4 2155.55 646.700   4
 -11   0  -5 405.442 318.602   4
  11   0   5 1087.44 543.338   7
 -11   0  -6 899.202 433.600   4
  11   0   6 1047.75 589.477   7
 -11  -1  -1 980.196 449.676   3
 -11  -1  -2 655.734 388.218   3
 -11  -1  -2 396.663 342.850   4
 -11  -1  -3 1288.99 535.276   4
 -11  -1  -4 4485.88 941.191   4
 -11  -1  -5 1.18440 275.070   4
 -11  -1  -6-45.9865 189.278   4
  11   1   6 201.565 330.996   7
  11   1   7-288.387 299.758   7
 -11  -2  -2-372.074 310.878   4
 -11  -2  -3 1348.50 561.019   4
 -11  -2  -4 260.829 254.785   4
  11   2   7 488.863 393.514   7
   0   0   0    0.00    0.00   0
TITL chenb_0708 in P-1
REM P-1 (#2 in standard setting)
CELL 0.71073   8.623705  10.521900  10.647504  65.6399  71.7100  85.0205
ZERR    4.00   0.002633   0.002705   0.003009   0.0269   0.0273   0.0229
LATT  1
SFAC C H N O
UNIT 44.00 40.00 4.00 4.00
TREF
HKLF 4
END
;
_shelx_hkl_checksum              662
_olex2_date_sample_data_collection 2016-07-08
_olex2_submission_special_instructions 'No special instructions were received'
loop_
_space_group_symop_operation_xyz
'x, y, z'
'-x, -y, -z'
loop_
_atom_site_label
_atom_site_type_symbol
_atom_site_fract_x
_atom_site_fract_y
_atom_site_fract_z
_atom_site_U_iso_or_equiv
_atom_site_adp_type
_atom_site_occupancy
_atom_site_site_symmetry_order
_atom_site_calc_flag
_atom_site_refinement_flags_posn
O1 O 0.3394(2) 0.64450(18) 0.27298(19) 0.0577(5) Uani 1 1 d .
N1 N 0.0673(2) 0.60143(19) 0.3116(2) 0.0439(5) Uani 1 1 d .
N2 N 0.1750(2) 0.7932(2) 0.4645(2) 0.0506(5) Uani 1 1 d .
N3 N 0.2708(3) 0.8944(2) 0.4280(2) 0.0570(6) Uani 1 1 d .
C1 C -0.0819(3) 0.6622(2) 0.3525(2) 0.0431(6) Uani 1 1 d .
C2 C -0.2387(3) 0.6182(3) 0.3759(3) 0.0565(7) Uani 1 1 d .
H2 H -0.257792 0.539683 0.362526 0.068 Uiso 1 1 calc R
C3 C -0.3663(3) 0.6948(3) 0.4198(3) 0.0670(8) Uani 1 1 d .
H3 H -0.473014 0.667065 0.436458 0.080 Uiso 1 1 calc R
C4 C -0.3387(3) 0.8108(3) 0.4394(3) 0.0688(8) Uani 1 1 d .
H4 H -0.426709 0.860167 0.469513 0.083 Uiso 1 1 calc R
C5 C -0.1802(3) 0.8555(3) 0.4145(3) 0.0576(7) Uani 1 1 d .
H5 H -0.161169 0.934531 0.427003 0.069 Uiso 1 1 calc R
C6 C -0.0524(3) 0.7799(2) 0.3709(2) 0.0445(6) Uani 1 1 d .
C7 C 0.1285(3) 0.8008(2) 0.3369(2) 0.0433(6) Uani 1 1 d .
C8 C 0.1968(3) 0.6728(2) 0.3037(2) 0.0437(5) Uani 1 1 d .
C9 C 0.2149(3) 0.9337(2) 0.2178(3) 0.0471(6) Uani 1 1 d .
C10 C 0.3018(3) 0.9823(3) 0.2792(3) 0.0548(6) Uani 1 1 d .
C11 C 0.4073(4) 1.1004(3) 0.2002(4) 0.0789(10) Uani 1 1 d .
H11 H 0.465029 1.132007 0.243164 0.095 Uiso 1 1 calc R
C12 C 0.4215(5) 1.1672(3) 0.0573(4) 0.0904(11) Uani 1 1 d .
H12 H 0.491658 1.246135 0.000558 0.108 Uiso 1 1 calc R
C13 C 0.3352(4) 1.1214(3) -0.0058(3) 0.0835(11) Uani 1 1 d .
H13 H 0.347431 1.171056 -0.103908 0.100 Uiso 1 1 calc R
C14 C 0.2288(3) 1.0017(3) 0.0732(3) 0.0647(8) Uani 1 1 d .
H14 H 0.171187 0.970401 0.029967 0.078 Uiso 1 1 calc R
C15 C 0.0922(3) 0.4931(2) 0.2554(3) 0.0507(6) Uani 1 1 d .
H15A H -0.009507 0.438718 0.290669 0.061 Uiso 1 1 calc R
H15B H 0.172992 0.430690 0.290869 0.061 Uiso 1 1 calc R
C16 C 0.1490(3) 0.5558(2) 0.0920(2) 0.0443(6) Uani 1 1 d .
C17 C 0.2822(3) 0.5069(3) 0.0174(3) 0.0612(7) Uani 1 1 d .
H17 H 0.337275 0.434082 0.068646 0.073 Uiso 1 1 calc R
C18 C 0.3367(4) 0.5634(4) -0.1322(3) 0.0751(9) Uani 1 1 d .
H18 H 0.426845 0.527802 -0.180269 0.090 Uiso 1 1 calc R
C19 C 0.2595(4) 0.6702(3) -0.2088(3) 0.0700(8) Uani 1 1 d .
H19 H 0.297010 0.709066 -0.309530 0.084 Uiso 1 1 calc R
C20 C 0.1261(4) 0.7203(3) -0.1372(3) 0.0754(9) Uani 1 1 d .
H20 H 0.072399 0.793637 -0.189501 0.090 Uiso 1 1 calc R
C21 C 0.0700(3) 0.6633(3) 0.0124(3) 0.0627(7) Uani 1 1 d .
H21 H -0.021934 0.697714 0.059823 0.075 Uiso 1 1 calc R
loop_
_atom_site_aniso_label
_atom_site_aniso_U_11
_atom_site_aniso_U_22
_atom_site_aniso_U_33
_atom_site_aniso_U_23
_atom_site_aniso_U_13
_atom_site_aniso_U_12
O1 0.0421(10) 0.0589(11) 0.0608(12) -0.0174(9) -0.0115(8) 0.0058(8)
N1 0.0438(11) 0.0458(11) 0.0401(11) -0.0176(9) -0.0091(8) -0.0015(9)
N2 0.0528(12) 0.0558(12) 0.0425(12) -0.0182(10) -0.0149(9) -0.0029(10)
N3 0.0563(13) 0.0601(13) 0.0577(14) -0.0270(11) -0.0147(10) -0.0076(11)
C1 0.0404(13) 0.0518(13) 0.0317(12) -0.0141(11) -0.0064(9) -0.0039(10)
C2 0.0454(15) 0.0703(17) 0.0518(16) -0.0238(14) -0.0105(12) -0.0095(13)
C3 0.0411(15) 0.095(2) 0.0594(18) -0.0292(17) -0.0092(12) -0.0051(15)
C4 0.0442(16) 0.090(2) 0.0632(19) -0.0306(17) -0.0090(13) 0.0138(14)
C5 0.0550(16) 0.0653(16) 0.0524(16) -0.0293(14) -0.0106(12) 0.0085(12)
C6 0.0429(13) 0.0494(13) 0.0350(12) -0.0132(11) -0.0089(10) 0.0005(10)
C7 0.0453(13) 0.0449(12) 0.0362(12) -0.0136(10) -0.0105(10) -0.0026(10)
C8 0.0457(14) 0.0437(12) 0.0322(12) -0.0073(10) -0.0100(10) -0.0006(10)
C9 0.0471(14) 0.0405(12) 0.0404(13) -0.0108(11) -0.0050(10) 0.0059(10)
C10 0.0554(15) 0.0442(13) 0.0567(16) -0.0210(12) -0.0042(12) -0.0034(11)
C11 0.076(2) 0.0558(17) 0.088(3) -0.0324(18) 0.0063(17) -0.0163(15)
C12 0.100(3) 0.0476(17) 0.081(3) -0.0181(18) 0.018(2) -0.0032(17)
C13 0.095(2) 0.0569(18) 0.0464(18) 0.0026(15) 0.0085(16) 0.0242(17)
C14 0.0735(19) 0.0563(16) 0.0436(15) -0.0094(13) -0.0087(13) 0.0144(14)
C15 0.0631(16) 0.0372(12) 0.0450(14) -0.0138(11) -0.0100(12) -0.0034(11)
C16 0.0500(14) 0.0400(12) 0.0444(14) -0.0176(11) -0.0141(11) -0.0038(10)
C17 0.0643(17) 0.0666(17) 0.0582(17) -0.0297(15) -0.0232(13) 0.0153(13)
C18 0.0638(19) 0.110(3) 0.061(2) -0.050(2) -0.0111(15) 0.0080(17)
C19 0.075(2) 0.088(2) 0.0469(16) -0.0262(16) -0.0143(14) -0.0172(17)
C20 0.099(2) 0.0670(19) 0.0581(19) -0.0162(16) -0.0365(17) 0.0112(16)
C21 0.0707(18) 0.0629(16) 0.0523(17) -0.0232(14) -0.0202(13) 0.0186(13)
loop_
_atom_type_symbol
_atom_type_description
_atom_type_scat_dispersion_real
_atom_type_scat_dispersion_imag
_atom_type_scat_source
C C 0.0033 0.0016 'International Tables Vol C Tables 4.2.6.8 and 6.1.1.4'
H H 0.0000 0.0000 'International Tables Vol C Tables 4.2.6.8 and 6.1.1.4'
N N 0.0061 0.0033 'International Tables Vol C Tables 4.2.6.8 and 6.1.1.4'
O O 0.0106 0.0060 'International Tables Vol C Tables 4.2.6.8 and 6.1.1.4'
loop_
_geom_angle_atom_site_label_1
_geom_angle_atom_site_label_2
_geom_angle_atom_site_label_3
_geom_angle
C1 N1 C15 126.16(18)
C8 N1 C1 111.89(19)
C8 N1 C15 120.9(2)
N3 N2 C7 110.57(19)
N2 N3 C10 110.5(2)
C2 C1 N1 129.0(2)
C2 C1 C6 121.4(2)
C6 C1 N1 109.59(19)
C1 C2 H2 121.1
C1 C2 C3 117.7(2)
C3 C2 H2 121.1
C2 C3 H3 119.3
C4 C3 C2 121.3(2)
C4 C3 H3 119.3
C3 C4 H4 119.7
C3 C4 C5 120.7(3)
C5 C4 H4 119.7
C4 C5 H5 120.8
C6 C5 C4 118.4(3)
C6 C5 H5 120.8
C1 C6 C7 108.8(2)
C5 C6 C1 120.4(2)
C5 C6 C7 130.8(2)
N2 C7 C8 108.09(18)
C6 C7 N2 112.59(18)
C6 C7 C8 102.64(17)
C9 C7 N2 103.07(18)
C9 C7 C6 119.35(19)
C9 C7 C8 110.88(19)
O1 C8 N1 126.8(2)
O1 C8 C7 126.2(2)
N1 C8 C7 107.00(19)
C10 C9 C7 105.0(2)
C14 C9 C7 134.2(2)
C14 C9 C10 120.7(2)
C9 C10 N3 110.8(2)
C9 C10 C11 122.7(3)
C11 C10 N3 126.5(3)
C10 C11 H11 121.7
C12 C11 C10 116.5(3)
C12 C11 H11 121.7
C11 C12 H12 119.1
C11 C12 C13 121.8(3)
C13 C12 H12 119.1
C12 C13 H13 119.0
C12 C13 C14 122.0(3)
C14 C13 H13 119.0
C9 C14 C13 116.3(3)
C9 C14 H14 121.9
C13 C14 H14 121.9
N1 C15 H15A 109.4
N1 C15 H15B 109.4
N1 C15 C16 111.37(18)
H15A C15 H15B 108.0
C16 C15 H15A 109.4
C16 C15 H15B 109.4
C17 C16 C15 120.6(2)
C17 C16 C21 117.6(2)
C21 C16 C15 121.8(2)
C16 C17 H17 119.2
C16 C17 C18 121.5(3)
C18 C17 H17 119.2
C17 C18 H18 119.9
C19 C18 C17 120.3(3)
C19 C18 H18 119.9
C18 C19 H19 120.3
C18 C19 C20 119.4(3)
C20 C19 H19 120.3
C19 C20 H20 119.7
C19 C20 C21 120.6(3)
C21 C20 H20 119.7
C16 C21 C20 120.7(3)
C16 C21 H21 119.7
C20 C21 H21 119.7
loop_
_geom_bond_atom_site_label_1
_geom_bond_atom_site_label_2
_geom_bond_distance
O1 C8 1.213(3)
N1 C1 1.410(3)
N1 C8 1.362(3)
N1 C15 1.464(3)
N2 N3 1.256(3)
N2 C7 1.503(3)
N3 C10 1.417(3)
C1 C2 1.381(3)
C1 C6 1.387(3)
C2 H2 0.9300
C2 C3 1.384(4)
C3 H3 0.9300
C3 C4 1.371(4)
C4 H4 0.9300
C4 C5 1.394(4)
C5 H5 0.9300
C5 C6 1.376(3)
C6 C7 1.501(3)
C7 C8 1.552(3)
C7 C9 1.498(3)
C9 C10 1.379(4)
C9 C14 1.374(3)
C10 C11 1.390(4)
C11 H11 0.9300
C11 C12 1.357(5)
C12 H12 0.9300
C12 C13 1.371(5)
C13 H13 0.9300
C13 C14 1.406(4)
C14 H14 0.9300
C15 H15A 0.9700
C15 H15B 0.9700
C15 C16 1.509(3)
C16 C17 1.370(3)
C16 C21 1.378(3)
C17 H17 0.9300
C17 C18 1.381(4)
C18 H18 0.9300
C18 C19 1.352(4)
C19 H19 0.9300
C19 C20 1.364(4)
C20 H20 0.9300
C20 C21 1.382(4)
C21 H21 0.9300
loop_
_geom_torsion_atom_site_label_1
_geom_torsion_atom_site_label_2
_geom_torsion_atom_site_label_3
_geom_torsion_atom_site_label_4
_geom_torsion
N1 C1 C2 C3 178.1(2)
N1 C1 C6 C5 -178.4(2)
N1 C1 C6 C7 1.3(2)
N1 C15 C16 C17 130.5(2)
N1 C15 C16 C21 -49.5(3)
N2 N3 C10 C9 1.5(3)
N2 N3 C10 C11 -177.0(3)
N2 C7 C8 O1 -59.4(3)
N2 C7 C8 N1 122.34(19)
N2 C7 C9 C10 2.8(2)
N2 C7 C9 C14 178.1(3)
N3 N2 C7 C6 -132.0(2)
N3 N2 C7 C8 115.3(2)
N3 N2 C7 C9 -2.1(2)
N3 C10 C11 C12 178.3(3)
C1 N1 C8 O1 179.1(2)
C1 N1 C8 C7 -2.6(2)
C1 N1 C15 C16 94.5(3)
C1 C2 C3 C4 0.1(4)
C1 C6 C7 N2 -118.7(2)
C1 C6 C7 C8 -2.7(2)
C1 C6 C7 C9 120.3(2)
C2 C1 C6 C5 0.5(4)
C2 C1 C6 C7 -179.7(2)
C2 C3 C4 C5 0.4(5)
C3 C4 C5 C6 -0.5(4)
C4 C5 C6 C1 0.0(4)
C4 C5 C6 C7 -179.7(2)
C5 C6 C7 N2 61.0(3)
C5 C6 C7 C8 177.0(2)
C5 C6 C7 C9 -60.0(3)
C6 C1 C2 C3 -0.6(4)
C6 C7 C8 O1 -178.5(2)
C6 C7 C8 N1 3.2(2)
C6 C7 C9 C10 128.5(2)
C6 C7 C9 C14 -56.2(4)
C7 N2 N3 C10 0.5(3)
C7 C9 C10 N3 -2.8(3)
C7 C9 C10 C11 175.8(2)
C7 C9 C14 C13 -174.7(3)
C8 N1 C1 C2 -178.0(2)
C8 N1 C1 C6 0.9(3)
C8 N1 C15 C16 -72.8(3)
C8 C7 C9 C10 -112.6(2)
C8 C7 C9 C14 62.7(3)
C9 C7 C8 O1 52.9(3)
C9 C7 C8 N1 -125.4(2)
C9 C10 C11 C12 -0.1(4)
C10 C9 C14 C13 0.0(4)
C10 C11 C12 C13 0.6(5)
C11 C12 C13 C14 -0.9(5)
C12 C13 C14 C9 0.6(4)
C14 C9 C10 N3 -178.8(2)
C14 C9 C10 C11 -0.2(4)
C15 N1 C1 C2 13.7(4)
C15 N1 C1 C6 -167.4(2)
C15 N1 C8 O1 -11.9(3)
C15 N1 C8 C7 166.40(19)
C15 C16 C17 C18 -179.6(2)
C15 C16 C21 C20 178.9(2)
C16 C17 C18 C19 0.6(4)
C17 C16 C21 C20 -1.1(4)
C17 C18 C19 C20 -0.9(4)
C18 C19 C20 C21 0.2(5)
C19 C20 C21 C16 0.8(5)
C21 C16 C17 C18 0.4(4)
