#------------------------------------------------------------------------------
#$Date: 2017-03-04 10:06:25 +0200 (Sat, 04 Mar 2017) $
#$Revision: 193272 $
#$URL: file:///home/coder/svn-repositories/cod/cif/4/03/22/4032288.cif $
#------------------------------------------------------------------------------
#
# This file is available in the Crystallography Open Database (COD),
# http://www.crystallography.net/
#
# All data on this site have been placed in the public domain by the
# contributors.
#
data_4032288
loop_
_publ_author_name
'Hasty, Scott J.'
'Bandara, Mithila D.'
'Rath, Nigam P.'
'Demchenko, Alexei V.'
_publ_section_title
;
 S-Benzimidazolyl (SBiz) Imidates as a Platform for Oligosaccharide
 Synthesis via Active-Latent, Armed-Disarmed, Selective, and Orthogonal
 Activations.
;
_journal_issue                   4
_journal_name_full               'The Journal of organic chemistry'
_journal_page_first              1904
_journal_page_last               1911
_journal_paper_doi               10.1021/acs.joc.6b02478
_journal_volume                  82
_journal_year                    2017
_chemical_formula_moiety         'C9 H11 N2 S, I'
_chemical_formula_sum            'C9 H11 I N2 S'
_chemical_formula_weight         306.16
_chemical_name_systematic
; 
 ? 
;
_space_group_crystal_system      triclinic
_space_group_IT_number           2
_space_group_name_Hall           '-P 1'
_space_group_name_H-M_alt        'P -1'
_symmetry_space_group_name_Hall  '-P 1'
_symmetry_space_group_name_H-M   'P -1'
_atom_sites_solution_hydrogens   mixed
_atom_sites_solution_primary     direct
_atom_sites_solution_secondary   difmap
_audit_creation_method           SHELXL-2012
_cell_angle_alpha                67.948(2)
_cell_angle_beta                 88.957(2)
_cell_angle_gamma                70.779(2)
_cell_formula_units_Z            2
_cell_length_a                   6.6795(3)
_cell_length_b                   9.4844(4)
_cell_length_c                   9.9184(4)
_cell_measurement_reflns_used    9878
_cell_measurement_temperature    100(2)
_cell_measurement_theta_max      38.53
_cell_measurement_theta_min      3.25
_cell_volume                     545.91(4)
_computing_cell_refinement       'Bruker SAINT'
_computing_data_collection       'Bruker APEX2'
_computing_data_reduction        'Bruker SAINT'
_computing_molecular_graphics    'Bruker SHELXTL'
_computing_publication_material  'Bruker SHELXTL'
_computing_structure_refinement  'SHELXL-2012 (Sheldrick, 2012)'
_computing_structure_solution    'SHELXS-97 (Sheldrick, 2008)'
_diffrn_ambient_temperature      100(2)
_diffrn_measured_fraction_theta_full 0.996
_diffrn_measured_fraction_theta_max 0.961
_diffrn_measurement_device_type  'Bruker APEX-II CCD'
_diffrn_measurement_method       '\f and \w scans'
_diffrn_radiation_type           MoK\a
_diffrn_radiation_wavelength     0.71073
_diffrn_reflns_av_R_equivalents  0.0418
_diffrn_reflns_av_unetI/netI     0.0530
_diffrn_reflns_Laue_measured_fraction_full 0.996
_diffrn_reflns_Laue_measured_fraction_max 0.961
_diffrn_reflns_limit_h_max       11
_diffrn_reflns_limit_h_min       -11
_diffrn_reflns_limit_k_max       16
_diffrn_reflns_limit_k_min       -16
_diffrn_reflns_limit_l_max       17
_diffrn_reflns_limit_l_min       -17
_diffrn_reflns_number            11903
_diffrn_reflns_point_group_measured_fraction_full 0.996
_diffrn_reflns_point_group_measured_fraction_max 0.961
_diffrn_reflns_theta_full        25.242
_diffrn_reflns_theta_max         39.148
_diffrn_reflns_theta_min         3.718
_exptl_absorpt_coefficient_mu    3.082
_exptl_absorpt_correction_T_max  0.8841
_exptl_absorpt_correction_T_min  0.2698
_exptl_absorpt_correction_type   multi-scan
_exptl_absorpt_process_details   'sadabs v2008/1'
_exptl_crystal_colour            yellow
_exptl_crystal_density_diffrn    1.863
_exptl_crystal_description       rod
_exptl_crystal_F_000             296
_exptl_crystal_size_max          0.576
_exptl_crystal_size_mid          0.119
_exptl_crystal_size_min          0.041
_refine_diff_density_max         1.087
_refine_diff_density_min         -1.258
_refine_diff_density_rms         0.122
_refine_ls_extinction_method     none
_refine_ls_goodness_of_fit_ref   1.019
_refine_ls_hydrogen_treatment    mixed
_refine_ls_matrix_type           full
_refine_ls_number_parameters     128
_refine_ls_number_reflns         6165
_refine_ls_number_restraints     0
_refine_ls_restrained_S_all      1.019
_refine_ls_R_factor_all          0.0323
_refine_ls_R_factor_gt           0.0237
_refine_ls_shift/su_max          0.002
_refine_ls_shift/su_mean         0.000
_refine_ls_structure_factor_coef Fsqd
_refine_ls_weighting_details
; 
 w=1/[\s^2^(Fo^2^)+(0.0174P)^2^] 
 where P=(Fo^2^+2Fc^2^)/3 
;
_refine_ls_weighting_scheme      calc
_refine_ls_wR_factor_gt          0.0522
_refine_ls_wR_factor_ref         0.0541
_reflns_Friedel_coverage         0.000
_reflns_number_gt                5279
_reflns_number_total             6165
_reflns_threshold_expression     'I > 2\s(I)'
_cod_data_source_file            jo6b02478_si_001.cif
_cod_data_source_block           d2413t4
_cod_database_code               4032288
_shelx_space_group_comment
; 
The symmetry employed for this shelxl refinement is uniquely defined 
by the following loop, which should always be used as a source of 
symmetry information in preference to the above space-group names. 
They are only intended as comments. 
;
_shelx_estimated_absorpt_t_min   0.270
_shelx_estimated_absorpt_t_max   0.884
_shelxl_version_number           2012-9
_shelx_res_file
; 
TITL avdd2413t4/lt/x8/SJHLB6P200C in P-1 
CELL 0.71073   6.6795   9.4844   9.9184  67.948  88.957  70.779 
ZERR    2.00   0.0003   0.0004   0.0004   0.002   0.002   0.002 
LATT  1 
SFAC C H N S I 
UNIT 18 22 4 2 2 
TEMP -173.0 
SIZE 0.041 0.119 0.576 
  
OMIT -3.0 
omit 0   1   1 
omit 0   0   1 
omit 1   0   0 
omit 1   1   0 
omit 0   1   0 
omit 1   1   1 
  
eadp i1 i1' 
L.S. 20 
PLAN 5 
wpdb -2 
list 4 
bond $h 
HTAB N2 I1 
HTAB N2 I1' 
EQIV $1 x+1, y-1, z 
HTAB C8 I1'_$1 
EQIV $2 -x+1, -y+1, -z+2 
HTAB C9 I1'_$2 
  
conf 
more 2 
fmap 2 
acta 
  
WGHT    0.017400 
FVAR       0.14751   0.99422 
PART   1 
I1    5    0.611277    0.811835    0.763710    21.00000    0.02379    0.01241 = 
         0.01565   -0.00574    0.00286   -0.00276 
PART   2 
I1'   5    0.504416    0.804528    0.767012   -21.00000    0.02379    0.01241 = 
         0.01565   -0.00574    0.00286   -0.00276 
PART   0 
S1    4    0.916368    0.197852    0.878662    11.00000    0.02332    0.01466 = 
         0.01416    0.00103   -0.00077   -0.00609 
N1    3    0.881860    0.286308    0.587724    11.00000    0.01552    0.01175 = 
         0.01602   -0.00631    0.00285   -0.00393 
N2    3    0.741910    0.494438    0.647939    11.00000    0.01474    0.01134 = 
         0.01058   -0.00425    0.00151   -0.00431 
H2    2    0.697070    0.559102    0.697135    11.00000    0.02838 
C1    1    0.842640    0.333807    0.699897    11.00000    0.01369    0.01130 = 
         0.01255   -0.00308    0.00132   -0.00449 
C2    1    0.800671    0.421517    0.457725    11.00000    0.01268    0.01696 = 
         0.01362   -0.00717    0.00283   -0.00625 
C3    1    0.796571    0.438745    0.311702    11.00000    0.01872    0.02883 = 
         0.01593   -0.01317    0.00484   -0.01066 
AFIX  43 
H3    2    0.854947    0.348196    0.285330    11.00000   -1.20000 
AFIX   0 
C4    1    0.703264    0.594230    0.207558    11.00000    0.01854    0.03891 = 
         0.01175   -0.00841    0.00284   -0.01417 
AFIX  43 
H4    2    0.697155    0.611100    0.106832    11.00000   -1.20000 
AFIX   0 
C5    1    0.617016    0.728323    0.246449    11.00000    0.01756    0.02574 = 
         0.01282    0.00176   -0.00210   -0.00989 
AFIX  43 
H5    2    0.555437    0.833467    0.171255    11.00000   -1.20000 
AFIX   0 
C6    1    0.619358    0.711354    0.391317    11.00000    0.01531    0.01504 = 
         0.01560   -0.00125   -0.00053   -0.00568 
AFIX  43 
H6    2    0.560304    0.801730    0.417846    11.00000   -1.20000 
AFIX   0 
C7    1    0.713273    0.554162    0.495911    11.00000    0.01237    0.01387 = 
         0.01089   -0.00389    0.00100   -0.00531 
C8    1    0.990078    0.119636    0.601364    11.00000    0.02807    0.01577 = 
         0.03135   -0.01280    0.00661   -0.00582 
AFIX 137 
H8A   2    1.101708    0.062965    0.685280    11.00000   -1.50000 
H8B   2    1.054748    0.120229    0.511756    11.00000   -1.50000 
H8C   2    0.886440    0.063803    0.616214    11.00000   -1.50000 
AFIX   0 
C9    1    0.832741    0.330755    0.975510    11.00000    0.03108    0.03041 = 
         0.01361   -0.00788    0.00322   -0.01097 
AFIX 137 
H9A   2    0.900810    0.413083    0.941797    11.00000   -1.50000 
H9B   2    0.874766    0.267389    1.080893    11.00000   -1.50000 
H9C   2    0.677185    0.384043    0.956490    11.00000   -1.50000 
  
AFIX   0 
HKLF 4 
  
REM  avdd2413t4/lt/x8/SJHLB6P200C in P-1 
REM R1 =  0.0237 for    5279 Fo > 4sig(Fo)  and  0.0323 for all    6165 data 
REM    128 parameters refined using      0 restraints 
  
END 
  
WGHT      0.0174      0.0000 
  
REM Highest difference peak  1.087,  deepest hole -1.258,  1-sigma level  0.122 
Q1    1   0.7134  0.8392  0.7523  11.00000  0.05    1.09 
Q2    1   0.5587  0.8144  0.7088  11.00000  0.05    0.79 
Q3    1   0.3965  0.7856  0.7735  11.00000  0.05    0.67 
Q4    1   0.7924  0.8598  0.7363  11.00000  0.05    0.61 
Q5    1   0.5467  0.8351  0.8149  11.00000  0.05    0.60 
;
_shelx_res_checksum              45174
_shelx_hkl_file
; 
   1   0   0    0.00    0.54 
  -2   0   0    1.62    0.07 
   2   0   0    1.48    0.07 
  -3   0   0   22.18    0.32 
   3   0   0   20.18    0.28 
  -4   0   0   98.76    1.13 
   4   0   0   92.07    0.86 
  -5   0   0   33.82    0.49 
   5   0   0   30.96    0.29 
  -6   0   0   15.60    0.83 
   6   0   0   13.37    0.20 
  -7   0   0    1.28    0.39 
   7   0   0    0.80    0.08 
  -8   0   0    7.65    0.76 
   8   0   0    5.76    0.24 
  -9   0   0   10.00    0.92 
   9   0   0    9.39    0.31 
 -10   0   0    4.95    0.81 
  10   0   0    4.71    0.43 
  10  -1   0    0.31    0.16 
 -10   1   0    0.28    0.23 
   9  -1   0    0.30    0.13 
  -9   1   0    0.06    0.17 
   8  -1   0   12.91    0.37 
  -8   1   0   14.72    0.52 
   7  -1   0   19.61    0.35 
  -7   1   0   22.19    1.13 
   6  -1   0   11.06    0.21 
  -6   1   0   11.76    0.76 
   5  -1   0    0.05    0.04 
  -5   1   0    0.13    0.19 
   4  -1   0   46.20    0.38 
  -4   1   0   49.48    0.49 
   3  -1   0   72.65    0.51 
  -3   1   0   77.57    0.74 
   2  -1   0  157.20    1.00 
  -2   1   0  163.05    1.40 
   1  -1   0    6.47    0.07 
  -1   1   0    6.75    0.08 
   0  -1   0    0.00    0.01 
   0   1   0    0.01    0.01 
   1   1   0   28.08    0.44 
  -2  -1   0 1000.00   19.92 
   2   1   0  967.91   15.78 
   3   1   0    7.67    1.49 
   4   1   0    1.05    0.06 
   5   1   0   21.26    0.33 
  -6  -1   0   43.34    1.47 
   6   1   0   40.08    0.57 
  -7  -1   0   11.05    0.75 
   7   1   0    9.74    0.39 
  -8  -1   0    3.31    0.55 
   8   1   0    2.86    0.27 
  -9  -1   0    0.96    0.44 
   9   1   0    0.92    0.20 
 -10  -1   0    2.60    0.66 
  10   1   0    2.03    0.29 
  10  -2   0    1.15    0.52 
 -10   2   0    2.01    0.31 
   9  -2   0    3.84    0.27 
  -9   2   0    3.32    0.40 
   8  -2   0    0.26    0.14 
  -8   2   0    0.36    0.20 
   7  -2   0    0.62    0.11 
  -7   2   0    0.79    0.19 
   6  -2   0   30.68    0.49 
  -6   2   0   34.06    0.86 
   5  -2   0   36.68    0.36 
  -5   2   0   38.22    0.69 
   4  -2   0   15.34    0.16 
  -4   2   0   16.12    0.23 
   3  -2   0    2.90    0.07 
  -3   2   0    3.31    0.08 
   2  -2   0  107.05    0.78 
  -2   2   0  109.73    0.77 
   1  -2   0  124.27    1.10 
  -1   2   0  130.88    1.06 
   0  -2   0  188.24    2.34 
   0   2   0  180.14    2.33 
  -1  -2   0    3.67    0.06 
   1   2   0    3.38    0.06 
  -2  -2   0    4.06    0.08 
   2   2   0    3.86    0.05 
  -3  -2   0   70.07    1.48 
   3   2   0   65.52    0.56 
   4   2   0  278.03    4.91 
   5   2   0    0.94    0.06 
   6   2   0    1.27    0.10 
  -7  -2   0   13.93    0.80 
   7   2   0   13.07    0.29 
  -8  -2   0   16.02    0.95 
   8   2   0   13.95    0.48 
  -9  -2   0    3.08    0.58 
   9   2   0    1.89    0.23 
  10   2   0    0.35    0.18 
 -10   3   0    0.49    0.34 
   9  -3   0    1.69    0.21 
  -9   3   0    2.36    0.33 
   8  -3   0    5.43    0.31 
  -8   3   0    5.69    0.47 
   7  -3   0    5.17    0.24 
  -7   3   0    6.18    0.44 
   6  -3   0    0.02    0.08 
  -6   3   0    0.02    0.15 
   5  -3   0    5.69    0.15 
  -5   3   0    6.46    0.36 
   4  -3   0   57.47    0.49 
  -4   3   0   61.79    0.78 
   3  -3   0   52.69    0.44 
  -3   3   0   54.57    0.62 
   2  -3   0   10.36    0.12 
  -2   3   0   10.99    0.16 
   1  -3   0   16.32    0.37 
  -1   3   0   15.53    0.43 
   0  -3   0  178.96    2.36 
   0   3   0  157.71    2.34 
  -1  -3   0   97.68    0.83 
   1   3   0   94.43    0.95 
  -2  -3   0   93.21    0.85 
   2   3   0   88.89    0.70 
  -3  -3   0   16.30    0.24 
   3   3   0   14.97    0.17 
  -4  -3   0    0.16    0.05 
   4   3   0    0.13    0.03 
   5   3   0   38.04    0.53 
   6   3   0   84.86    1.07 
   7   3   0    0.04    0.04 
  -8  -3   0    1.82    0.41 
   8   3   0    1.14    0.10 
  -9  -3   0    6.03    0.70 
   9   3   0    5.18    0.30 
  10   3   0    4.30    0.32 
  11   3   0    0.42    0.21 
   9  -4   0    0.93    0.61 
  -9   4   0    0.94    0.29 
   8  -4   0    4.37    0.26 
  -8   4   0    4.39    0.34 
   7  -4   0    4.80    0.25 
  -7   4   0    5.08    0.47 
   6  -4   0   10.66    0.32 
  -6   4   0   11.62    0.56 
   5  -4   0    4.76    0.13 
  -5   4   0    4.63    0.35 
   4  -4   0    3.28    0.12 
  -4   4   0    3.43    0.18 
   3  -4   0   21.91    0.26 
  -3   4   0   22.97    0.35 
   2  -4   0   83.39    0.91 
  -2   4   0   83.82    0.83 
   1  -4   0   50.66    0.55 
  -1   4   0   50.28    0.61 
   0  -4   0    1.72    0.09 
   0   4   0    1.42    0.09 
  -1  -4   0   29.77    0.43 
   1   4   0   28.96    0.36 
  -2  -4   0  139.19    1.00 
   2   4   0  132.96    0.86 
  -3  -4   0   41.44    0.44 
   3   4   0   38.93    0.29 
  -4  -4   0   21.89    0.27 
   4   4   0   19.68    0.22 
  -5  -4   0   18.97    0.33 
   5   4   0   17.64    0.22 
   6   4   0    0.19    0.07 
   7   4   0   15.63    0.31 
  -8  -4   0   26.51    1.21 
   8   4   0   22.91    0.29 
  -9  -4   0    0.13    0.31 
   9   4   0    0.52    0.08 
  10   4   0    0.66    0.14 
  -9   5   0    1.30    0.35 
   8  -5   0    0.51    0.17 
  -8   5   0    0.37    0.22 
   7  -5   0    0.14    0.14 
  -7   5   0    0.02    0.21 
   6  -5   0   14.88    0.32 
  -6   5   0   16.58    0.61 
   5  -5   0    9.24    0.20 
  -5   5   0   10.09    0.45 
   4  -5   0   14.68    0.25 
  -4   5   0   16.04    0.35 
   3  -5   0    1.65    0.07 
  -3   5   0    1.56    0.11 
   2  -5   0   17.38    0.49 
  -2   5   0   17.57    0.31 
   1  -5   0   48.26    0.75 
  -1   5   0   49.82    0.80 
   0  -5   0   83.16    1.19 
   0   5   0   75.63    1.19 
  -1  -5   0   20.98    0.61 
   1   5   0   20.08    0.54 
  -2  -5   0    0.18    0.05 
   2   5   0    0.20    0.04 
  -3  -5   0   39.39    0.37 
   3   5   0   36.94    0.29 
  -4  -5   0   70.59    0.72 
   4   5   0   64.68    0.47 
  -5  -5   0   13.81    0.31 
   5   5   0   12.23    0.18 
  -6  -5   0    2.51    0.40 
   6   5   0    1.82    0.06 
  -7  -5   0   14.43    0.84 
   7   5   0   13.34    0.40 
  -8  -5   0    0.04    0.30 
   8   5   0    0.14    0.11 
  -9  -5   0    5.08    0.63 
   9   5   0    5.10    0.30 
   8  -6   0    5.32    0.60 
  -8   6   0    5.24    0.42 
   7  -6   0    2.43    0.24 
  -7   6   0    2.01    0.35 
   6  -6   0    0.20    0.11 
  -6   6   0    0.33    0.22 
   5  -6   0    0.76    0.10 
  -5   6   0    0.61    0.21 
   4  -6   0   36.06    0.46 
  -4   6   0   36.45    0.59 
   3  -6   0   14.74    0.22 
  -3   6   0   15.58    0.35 
   2  -6   0   14.41    0.26 
  -2   6   0   14.53    0.28 
   1  -6   0    0.37    0.14 
  -1   6   0    0.08    0.17 
   0  -6   0   41.54    0.71 
   0   6   0   36.92    0.70 
  -1  -6   0   43.91    0.81 
   1   6   0   43.10    0.73 
  -2  -6   0   53.06    0.62 
   2   6   0   49.24    0.73 
  -3  -6   0    1.25    0.09 
   3   6   0    1.27    0.06 
  -4  -6   0    2.01    0.09 
   4   6   0    1.95    0.06 
  -5  -6   0   29.50    1.17 
   5   6   0   26.73    0.36 
  -6  -6   0   25.14    1.12 
   6   6   0   23.47    0.32 
  -7  -6   0    3.46    0.54 
   7   6   0    2.57    0.11 
  -8  -6   0    0.77    0.38 
   8   6   0    0.05    0.12 
  -9  -6   0    7.69    0.79 
   9   6   0    5.51    0.34 
  10   6   0    0.15    0.15 
   8  -7   0    0.23    0.31 
  -8   7   0    0.92    0.63 
   7  -7   0    2.99    0.29 
  -7   7   0    3.17    0.36 
   6  -7   0   13.23    0.47 
  -6   7   0   14.12    0.67 
   5  -7   0    2.46    0.16 
  -5   7   0    2.51    0.33 
   4  -7   0    0.04    0.08 
  -4   7   0    0.06    0.12 
   3  -7   0    6.44    0.19 
  -3   7   0    6.45    0.26 
   2  -7   0   65.94    1.11 
  -2   7   0   66.63    1.30 
   1  -7   0   15.59    0.34 
  -1   7   0   15.93    0.38 
   0  -7   0    7.67    0.24 
   0   7   0    6.94    0.24 
  -1  -7   0    3.32    0.17 
   1   7   0    3.21    0.14 
  -2  -7   0   52.50    0.57 
   2   7   0   49.79    0.60 
  -3  -7   0   30.91    0.43 
   3   7   0   29.17    0.33 
  -4  -7   0   22.81    0.40 
   4   7   0   21.79    0.28 
  -5  -7   0    0.98    0.16 
   5   7   0    1.04    0.06 
  -6  -7   0    3.27    0.52 
   6   7   0    2.96    0.13 
  -7  -7   0   15.41    0.96 
   7   7   0   14.30    0.24 
  -8  -7   0    9.06    0.80 
   8   7   0    6.56    0.18 
  -9  -7   0    0.30    0.41 
   9   7   0    0.32    0.17 
  10   7   0    0.81    0.20 
  11   7   0    1.79    0.25 
   7  -8   0    0.58    0.35 
  -7   8   0    0.41    0.31 
   6  -8   0    2.90    0.34 
  -6   8   0    3.11    0.36 
   5  -8   0    6.57    0.26 
  -5   8   0    7.09    0.51 
   4  -8   0   23.68    0.46 
  -4   8   0   25.44    0.55 
   3  -8   0    0.80    0.12 
  -3   8   0    0.93    0.15 
   2  -8   0    0.67    0.25 
  -2   8   0    0.38    0.30 
   1  -8   0   19.86    0.65 
  -1   8   0   18.64    0.68 
   0  -8   0   76.46    1.41 
   0   8   0   67.93    1.39 
  -1  -8   0    9.84    0.39 
   1   8   0    8.82    0.33 
  -2  -8   0    1.37    0.12 
   2   8   0    0.97    0.25 
  -3  -8   0    8.20    0.20 
   3   8   0    7.82    0.14 
  -4  -8   0   41.62    0.64 
   4   8   0   38.57    0.44 
  -5  -8   0   14.47    0.55 
   5   8   0   13.14    0.23 
  -6  -8   0    6.53    0.36 
   6   8   0    5.93    0.22 
  -7  -8   0    3.28    0.26 
   7   8   0    2.80    0.16 
  -8  -8   0    2.00    0.53 
   8   8   0    2.05    0.18 
  -9  -8   0    7.78    0.84 
   9   8   0    6.09    0.25 
  10   8   0    0.90    0.23 
   6  -9   0    0.68    0.31 
  -6   9   0    0.77    0.33 
   5  -9   0    0.18    0.14 
  -5   9   0    0.16    0.25 
   4  -9   0    8.83    0.33 
  -4   9   0    9.48    0.47 
   3  -9   0   12.48    0.30 
  -3   9   0   12.59    0.43 
   2  -9   0   32.37    0.66 
  -2   9   0   34.46    0.94 
   1  -9   0    0.34    0.20 
  -1   9   0    0.33    0.22 
   0  -9   0    2.64    0.21 
   0   9   0    2.42    0.21 
  -1  -9   0   29.29    0.69 
   1   9   0   25.93    0.63 
  -2  -9   0   60.60    1.32 
   2   9   0   54.34    1.09 
  -3  -9   0    2.43    0.18 
   3   9   0    2.18    0.11 
  -4  -9   0    0.03    0.09 
   4   9   0    0.03    0.06 
  -5  -9   0   10.02    0.51 
   5   9   0    8.85    0.18 
  -6  -9   0   21.58    0.74 
   6   9   0   20.36    0.42 
  -7  -9   0    5.56    0.39 
   7   9   0    4.99    0.22 
  -8  -9   0    1.13    0.23 
   8   9   0    0.81    0.15 
  -9  -9   0    2.51    0.30 
   9   9   0    2.53    0.22 
  10   9   0    1.03    0.26 
   5 -10   0    5.25    0.38 
  -5  10   0    5.22    0.52 
   4 -10   0    1.60    0.21 
  -4  10   0    1.78    0.34 
   3 -10   0    0.36    0.20 
  -3  10   0    0.48    0.18 
   2 -10   0   15.17    0.62 
  -2  10   0   18.96    0.78 
   1 -10   0   19.36    0.62 
  -1  10   0   17.63    0.64 
   0 -10   0   27.90    0.83 
   0  10   0   24.43    0.81 
  -1 -10   0    0.89    0.22 
   1  10   0    0.77    0.20 
  -2 -10   0    4.70    0.30 
   2  10   0    3.92    0.24 
  -3 -10   0   26.59    0.51 
   3  10   0   24.87    0.36 
  -4 -10   0   37.39    0.62 
   4  10   0   34.98    0.49 
  -5 -10   0    0.07    0.15 
   5  10   0    0.08    0.07 
  -6 -10   0    0.04    0.17 
   6  10   0    0.28    0.09 
  -7 -10   0    7.38    0.50 
   7  10   0    7.01    0.28 
  -8 -10   0    9.19    0.54 
   8  10   0    8.58    0.35 
  -9 -10   0    1.71    0.30 
   9  10   0    1.61    0.19 
 -10 -10   0    0.15    0.20 
  10  10   0    0.11    0.12 
   4 -11   0   16.27    0.68 
  -4  11   0   18.80    0.83 
   3 -11   0    4.63    0.50 
  -3  11   0    5.14    0.38 
   2 -11   0    0.90    0.54 
  -2  11   0    0.85    0.48 
   1 -11   0    4.64    0.39 
  -1  11   0    3.61    0.40 
   0 -11   0   18.41    0.63 
   0  11   0   16.70    0.61 
  -1 -11   0   17.59    0.64 
   1  11   0   16.28    0.61 
  -2 -11   0   13.96    0.98 
   2  11   0   14.90    0.64 
  -3 -11   0    3.22    0.23 
   3  11   0    2.97    0.17 
  -4 -11   0    4.35    0.27 
   4  11   0    4.30    0.20 
  -5 -11   0   17.32    0.66 
   5  11   0   16.14    0.32 
  -6 -11   0   17.40    0.66 
   6  11   0   15.10    0.36 
  -7 -11   0    0.36    0.22 
   7  11   0    0.29    0.14 
  -8 -11   0    0.18    0.21 
   8  11   0    0.36    0.13 
  -9 -11   0    3.29    0.36 
   9  11   0    3.83    0.28 
 -10 -11   0    2.66    0.34 
  10  11   0    1.53    0.54 
   3 -12   0    2.12    0.41 
  -3  12   0    2.47    0.51 
   2 -12   0   24.86    1.79 
  -2  12   0   21.27    1.04 
   1 -12   0    3.24    0.47 
  -1  12   0    1.87    0.48 
   0 -12   0    0.69    0.21 
   0  12   0    0.28    0.21 
  -1 -12   0    6.45    0.41 
   1  12   0    5.81    0.38 
  -2 -12   0   11.39    0.81 
   2  12   0   13.18    0.60 
  -3 -12   0   12.46    0.45 
   3  12   0   11.42    0.29 
  -4 -12   0    5.95    0.36 
   4  12   0    5.45    0.26 
  -5 -12   0    3.98    0.42 
   5  12   0    3.56    0.19 
  -6 -12   0    2.26    0.34 
   6  12   0    2.66    0.21 
  -7 -12   0    8.99    0.55 
   7  12   0    7.81    0.37 
  -8 -12   0    6.77    0.52 
   8  12   0    5.71    0.32 
  -9 -12   0    0.64    0.27 
   9  12   0    0.71    0.52 
 -10 -12   0    0.26    0.29 
   2 -13   0    0.83    5.80 
  -2  13   0    1.83    1.07 
   1 -13   0    5.64    1.00 
  -1  13   0    4.22    0.75 
   0 -13   0   19.61    0.89 
   0  13   0   18.48    0.86 
  -1 -13   0    1.70    0.50 
   1  13   0    0.68    0.46 
  -2 -13   0    0.00    0.51 
   2  13   0    0.00    0.53 
  -3 -13   0    8.51    0.42 
   3  13   0    8.66    0.43 
  -4 -13   0    8.61    0.47 
   4  13   0    7.95    0.37 
  -5 -13   0    5.63    0.61 
   5  13   0    5.85    0.30 
  -6 -13   0    1.07    0.31 
   6  13   0    1.04    0.21 
  -7 -13   0    2.54    0.39 
   7  13   0    2.54    0.26 
  -8 -13   0    1.12    0.28 
   8  13   0    1.08    0.23 
  -9 -13   0    3.29    0.42 
   0 -14   0    1.04    0.57 
   0  14   0    2.58    0.56 
  -1 -14   0    3.66    0.79 
   1  14   0    1.84    1.00 
  -2 -14   0   14.40    1.11 
   2  14   0   11.54    1.79 
  -3 -14   0    0.29    0.22 
   3  14   0    0.36    0.28 
  -4 -14   0    0.00    0.24 
   4  14   0    0.07    0.15 
  -5 -14   0    6.67    0.57 
   5  14   0    5.57    0.32 
  -6 -14   0    2.86    0.42 
   6  14   0    3.04    0.36 
  -7 -14   0    2.07    0.34 
   7  14   0    1.43    0.35 
  -8 -14   0    0.14    0.30 
   8  14   0    0.41    0.32 
  -2 -15   0    1.58    1.14 
   2  15   0    1.71    6.23 
  -3 -15   0    3.57    0.56 
   3  15   0    3.43    0.45 
  -4 -15   0    7.08    0.75 
   4  15   0    4.78    0.50 
  -5 -15   0    0.08    0.34 
   5  15   0    0.13    0.23 
  -6 -15   0    0.29    0.35 
   6  15   0    0.43    0.38 
   5  15  -1    6.42    0.70 
  -5 -15   1    7.19    1.10 
   4  15  -1    1.43    0.49 
  -3 -15   1    1.34    0.65 
   8  14  -1    1.82    0.44 
   7  14  -1    1.71    0.46 
  -7 -14   1    1.64    0.36 
   6  14  -1    0.43    0.29 
  -6 -14   1    1.34    0.41 
   5  14  -1    1.55    0.25 
  -5 -14   1    1.92    0.46 
   4  14  -1    5.14    0.38 
  -4 -14   1    5.41    0.66 
   3  14  -1    7.83    0.62 
  -3 -14   1   11.07    0.65 
   2  14  -1    0.00    0.89 
  -2 -14   1    1.44    0.74 
   1  14  -1    0.09    0.91 
  -1 -14   1    1.20    0.74 
   0  14  -1    1.58    0.87 
   0 -14   1    3.56    0.87 
  -9 -13   1    0.00    0.55 
   8  13  -1    0.05    0.22 
  -8 -13   1    0.23    0.28 
   7  13  -1    4.66    0.34 
  -7 -13   1    4.42    0.48 
   6  13  -1    3.38    0.36 
  -6 -13   1    3.17    0.41 
   5  13  -1    1.68    0.20 
  -5 -13   1    2.15    0.44 
   4  13  -1    0.40    0.16 
  -4 -13   1    0.24    0.25 
   3  13  -1    5.05    0.39 
  -3 -13   1    4.92    0.40 
   2  13  -1    9.32    0.85 
  -2 -13   1    8.40    0.90 
   1  13  -1    7.02    0.94 
  -1 -13   1   11.60    0.86 
   0  13  -1    0.68    0.33 
   0 -13   1    0.72    0.34 
  -1  13  -1    2.76    0.70 
   1 -13   1    4.00    0.91 
   9  12  -1    0.90    0.53 
  -9 -12   1    1.93    0.35 
   8  12  -1    4.45    0.27 
  -8 -12   1    4.33    0.44 
   7  12  -1    0.33    0.16 
  -7 -12   1    0.38    0.26 
   6  12  -1    0.83    0.15 
  -6 -12   1    1.19    0.30 
   5  12  -1   12.39    0.31 
  -5 -12   1   12.35    0.62 
   4  12  -1    5.54    0.26 
  -4 -12   1    5.99    0.40 
   3  12  -1    1.66    0.21 
  -3 -12   1    1.54    0.22 
   2  12  -1    0.00    0.38 
  -2 -12   1    0.60    0.45 
   1  12  -1   11.22    0.61 
  -1 -12   1   10.58    0.70 
   0  12  -1    9.35    0.59 
   0 -12   1    8.92    0.61 
  -1  12  -1   10.60    0.81 
   1 -12   1   14.12    0.96 
  -2  12  -1    0.00    0.70 
   2 -12   1    1.36    0.90 
  -3  12  -1    3.16    0.53 
   3 -12   1    3.46    0.69 
 -10 -11   1    0.99    0.30 
   9  11  -1    3.85    0.36 
  -9 -11   1    3.91    0.40 
   8  11  -1    0.79    0.14 
  -8 -11   1    1.09    0.27 
   7  11  -1    5.22    0.31 
  -7 -11   1    5.76    0.46 
   6  11  -1    4.97    0.21 
  -6 -11   1    4.64    0.42 
   5  11  -1    1.87    0.14 
  -5 -11   1    2.02    0.31 
   4  11  -1    3.61    0.19 
  -4 -11   1    3.88    0.25 
   3  11  -1   20.27    0.39 
  -3 -11   1   23.37    0.57 
   2  11  -1    6.52    0.32 
  -2 -11   1    5.40    0.46 
   1  11  -1    0.21    0.24 
  -1 -11   1    0.29    0.28 
   0  11  -1    1.13    0.23 
   0 -11   1    1.31    0.23 
  -1  11  -1   13.14    0.69 
   1 -11   1   13.29    0.62 
  -2  11  -1    6.04    0.85 
   2 -11   1    6.56    0.87 
  -3  11  -1    7.61    0.55 
   3 -11   1    6.23    0.57 
  -4  11  -1    0.13    0.37 
   4 -11   1    0.48    0.30 
 -11 -10   1    1.00    0.32 
  10  10  -1    1.01    0.22 
 -10 -10   1    0.88    0.26 
   9  10  -1    1.09    0.19 
  -9 -10   1    0.80    0.23 
   8  10  -1    0.73    0.16 
  -8 -10   1    0.66    0.22 
   7  10  -1   12.91    0.36 
  -7 -10   1   15.27    0.59 
   6  10  -1    2.30    0.16 
  -6 -10   1    2.09    0.29 
   5  10  -1   12.30    0.26 
  -5 -10   1   13.27    0.55 
   4  10  -1    2.66    0.16 
  -4 -10   1    2.61    0.20 
   3  10  -1    6.57    0.20 
  -3 -10   1    7.40    0.30 
   2  10  -1   10.72    0.53 
  -2 -10   1   10.79    0.55 
   1  10  -1   28.48    0.78 
  -1 -10   1   31.26    0.86 
   0  10  -1    3.96    0.32 
   0 -10   1    3.82    0.33 
  -1  10  -1    0.64    0.27 
   1 -10   1    0.43    0.25 
  -2  10  -1    3.30    0.43 
   2 -10   1    4.00    0.39 
  -3  10  -1   13.60    0.50 
   3 -10   1   12.36    0.54 
  -4  10  -1    3.22    0.53 
   4 -10   1    2.86    0.26 
  -5  10  -1    2.94    0.56 
   5 -10   1    2.60    0.38 
 -11  -9   1    0.10    0.38 
  10   9  -1    0.78    0.15 
 -10  -9   1    1.19    0.24 
   9   9  -1    4.69    0.29 
  -9  -9   1    4.87    0.39 
   8   9  -1    2.13    0.20 
  -8  -9   1    2.03    0.31 
   7   9  -1    1.78    0.16 
  -7  -9   1    1.69    0.29 
   6   9  -1    0.11    0.07 
  -6  -9   1    0.11    0.16 
   5   9  -1   36.03    0.43 
  -5  -9   1   39.14    0.92 
   4   9  -1    5.18    0.18 
  -4  -9   1    5.74    0.25 
   3   9  -1   20.03    0.31 
  -3  -9   1   21.37    0.44 
   2   9  -1    0.00    0.25 
  -2  -9   1    0.00    0.29 
   1   9  -1   17.88    0.58 
  -1  -9   1   16.91    0.64 
   0   9  -1   14.77    0.54 
   0  -9   1   17.39    0.55 
  -1   9  -1   28.95    0.85 
   1  -9   1   28.07    0.80 
  -2   9  -1    0.92    0.44 
   2  -9   1    0.55    0.33 
  -3   9  -1    0.85    0.19 
   3  -9   1    0.89    0.14 
  -4   9  -1    5.50    0.40 
   4  -9   1    5.38    0.31 
  -5   9  -1    7.83    0.73 
   5  -9   1    7.80    0.36 
  -6   9  -1    1.19    0.42 
   6  -9   1    1.47    0.48 
  10   8  -1    0.98    0.27 
   9   8  -1    1.21    0.15 
  -9  -8   1    1.37    0.20 
   8   8  -1    3.34    0.23 
  -8  -8   1    3.81    0.31 
   7   8  -1   14.46    0.29 
  -7  -8   1   16.96    0.59 
   6   8  -1    3.80    0.19 
  -6  -8   1    3.98    0.34 
   5   8  -1    2.32    0.12 
  -5  -8   1    1.94    0.22 
   4   8  -1    2.84    0.13 
  -4  -8   1    3.16    0.18 
   3   8  -1   70.64    0.64 
  -3  -8   1   76.22    0.79 
   2   8  -1    8.87    0.31 
  -2  -8   1    9.82    0.36 
   1   8  -1   20.74    0.48 
  -1  -8   1   20.90    0.51 
   0   8  -1    1.52    0.17 
   0  -8   1    1.89    0.17 
  -1   8  -1   23.79    0.63 
   1  -8   1   20.74    0.60 
  -2   8  -1   17.14    0.54 
   2  -8   1   16.29    0.54 
  -3   8  -1   18.66    0.49 
   3  -8   1   18.05    0.35 
  -4   8  -1    0.07    0.16 
   4  -8   1    0.02    0.11 
  -5   8  -1    1.66    0.33 
   5  -8   1    1.71    0.17 
  -6   8  -1    6.47    0.67 
   6  -8   1    5.00    0.42 
  -7   8  -1    3.10    0.87 
   7  -8   1    3.25    0.62 
  10   7  -1    2.65    0.35 
   9   7  -1    4.30    0.21 
  -9  -7   1    5.47    0.73 
   8   7  -1    2.28    0.18 
  -8  -7   1    2.40    0.53 
   7   7  -1    6.86    0.17 
  -7  -7   1    7.58    0.31 
   6   7  -1   13.96    0.30 
  -6  -7   1   15.94    0.53 
   5   7  -1   36.91    0.42 
  -5  -7   1   41.01    0.76 
   4   7  -1    3.40    0.12 
  -4  -7   1    3.89    0.16 
   3   7  -1    2.01    0.08 
  -3  -7   1    2.22    0.12 
   2   7  -1   18.15    0.79 
  -2  -7   1   22.24    0.41 
   1   7  -1   97.10    1.63 
  -1  -7   1  109.81    1.85 
   0   7  -1   11.10    0.35 
   0  -7   1   10.27    0.35 
  -1   7  -1   14.04    0.50 
   1  -7   1   13.91    0.48 
  -2   7  -1    7.86    0.29 
   2  -7   1    7.56    0.25 
  -3   7  -1   25.10    0.49 
   3  -7   1   23.83    0.36 
  -4   7  -1   13.18    0.38 
   4  -7   1   11.61    0.29 
  -5   7  -1    9.11    0.55 
   5  -7   1    8.75    0.26 
  -6   7  -1    0.52    0.26 
   6  -7   1    0.30    0.17 
  -7   7  -1    1.53    0.35 
   7  -7   1    1.36    0.26 
  11   6  -1    0.32    0.14 
  10   6  -1    0.02    0.15 
   9   6  -1    6.23    0.38 
   8   6  -1    8.77    0.21 
  -8  -6   1    9.80    0.77 
   7   6  -1   10.39    0.23 
  -7  -6   1   11.72    0.81 
   6   6  -1    2.87    0.11 
  -6  -6   1    3.40    0.50 
   5   6  -1   25.40    0.27 
  -5  -6   1   27.73    0.45 
   4   6  -1   40.18    0.36 
  -4  -6   1   43.02    0.49 
   3   6  -1   68.76    0.57 
  -3  -6   1   74.33    0.68 
   2   6  -1    0.24    0.15 
  -2  -6   1    0.74    0.08 
   1   6  -1    0.70    0.10 
  -1  -6   1    0.85    0.11 
   0   6  -1   49.04    0.83 
   0  -6   1   52.31    0.84 
  -1   6  -1  103.93    1.81 
   1  -6   1  109.68    1.66 
  -2   6  -1    7.63    0.35 
   2  -6   1    7.50    0.31 
  -3   6  -1    4.58    0.22 
   3  -6   1    4.37    0.15 
  -4   6  -1   11.54    0.33 
   4  -6   1   10.84    0.26 
  -5   6  -1   19.39    0.68 
   5  -6   1   17.61    0.33 
  -6   6  -1    7.31    0.50 
   6  -6   1    5.94    0.27 
  -7   6  -1    2.83    0.40 
   7  -6   1    2.93    0.27 
  -8   6  -1    0.94    0.27 
   8  -6   1    1.12    0.35 
  10   5  -1    4.11    0.28 
   9   5  -1    0.52    0.15 
   8   5  -1    1.26    0.09 
  -8  -5   1    1.35    0.38 
   7   5  -1   22.90    0.34 
  -7  -5   1   26.01    1.14 
   6   5  -1   21.77    0.27 
  -6  -5   1   22.18    0.99 
   5   5  -1   20.23    0.25 
  -5  -5   1   22.78    0.54 
   4   5  -1    1.04    0.05 
  -4  -5   1    1.13    0.06 
   3   5  -1   71.13    0.59 
  -3  -5   1   75.19    0.64 
   2   5  -1   87.41    1.23 
  -2  -5   1   91.16    0.86 
   1   5  -1   83.47    1.17 
  -1  -5   1   91.44    1.30 
   0   5  -1    1.26    0.10 
   0  -5   1    1.10    0.10 
  -1   5  -1    0.10    0.11 
   1  -5   1    0.15    0.10 
  -2   5  -1   68.94    0.76 
   2  -5   1   69.45    0.81 
  -3   5  -1   68.64    0.72 
   3  -5   1   64.52    0.59 
  -4   5  -1    2.57    0.17 
   4  -5   1    2.39    0.12 
  -5   5  -1    0.66    0.19 
   5  -5   1    0.73    0.09 
  -6   5  -1    9.97    0.51 
   6  -5   1    9.81    0.29 
  -7   5  -1    9.90    0.56 
   7  -5   1    9.30    0.38 
  -8   5  -1    2.89    0.39 
   8  -5   1    2.72    0.25 
  10   4  -1    1.16    0.16 
 -10  -4   1    0.76    0.43 
   9   4  -1    7.72    0.22 
   8   4  -1   11.02    0.21 
  -8  -4   1   12.24    0.79 
   7   4  -1    0.17    0.04 
  -7  -4   1    0.08    0.22 
   6   4  -1    6.98    0.13 
  -6  -4   1    7.36    0.54 
   5   4  -1   62.62    0.49 
  -5  -4   1   71.31    0.91 
   4   4  -1   41.51    0.30 
  -4  -4   1   44.17    0.44 
   3   4  -1   30.49    0.23 
  -3  -4   1   32.71    0.30 
   2   4  -1    0.33    0.04 
  -2  -4   1    0.29    0.05 
   1   4  -1  115.05    1.88 
  -1  -4   1  125.44    2.06 
   0   4  -1  125.97    1.99 
   0  -4   1  139.01    2.03 
  -1   4  -1   71.82    1.29 
   1  -4   1   74.78    1.19 
  -2   4  -1    5.13    0.14 
   2  -4   1    5.05    0.15 
  -3   4  -1    1.41    0.10 
   3  -4   1    1.50    0.06 
  -4   4  -1   56.89    0.73 
   4  -4   1   53.78    0.56 
  -5   4  -1   31.30    0.76 
   5  -4   1   30.60    0.37 
  -6   4  -1    0.18    0.17 
   6  -4   1    0.27    0.08 
  -7   4  -1    0.11    0.19 
   7  -4   1    0.03    0.11 
  -8   4  -1    7.10    0.50 
   8  -4   1    6.62    0.28 
  -9   4  -1    3.97    0.44 
  11   3  -1    0.75    0.20 
  10   3  -1    1.64    0.22 
 -10  -3   1    2.14    0.58 
   9   3  -1    2.67    0.25 
  -9  -3   1    4.26    0.62 
   8   3  -1    3.88    0.12 
  -8  -3   1    3.98    0.50 
   7   3  -1   22.33    0.28 
   6   3  -1   19.57    0.24 
  -6  -3   1   21.52    0.89 
   5   3  -1    0.72    0.05 
  -5  -3   1    0.73    0.08 
   4   3  -1   27.57    0.22 
  -4  -3   1   30.08    0.40 
   3   3  -1  144.79    0.90 
  -3  -3   1  157.50    1.34 
   2   3  -1   45.83    0.36 
  -2  -3   1   48.03    0.41 
   1   3  -1   31.61    0.42 
  -1  -3   1   36.47    0.44 
   0   3  -1    9.94    0.20 
   0  -3   1   10.00    0.20 
  -1   3  -1  144.99    2.03 
   1  -3   1  152.52    1.92 
  -2   3  -1  110.24    0.99 
   2  -3   1  105.78    1.30 
  -3   3  -1   27.01    0.34 
   3  -3   1   25.85    0.25 
  -4   3  -1    6.62    0.19 
   4  -3   1    6.24    0.14 
  -5   3  -1    2.89    0.29 
   5  -3   1    2.66    0.12 
  -6   3  -1   33.63    0.96 
   6  -3   1   30.64    0.52 
  -7   3  -1   12.49    0.61 
   7  -3   1   11.24    0.32 
  -8   3  -1    0.05    0.20 
   8  -3   1    0.02    0.10 
  -9   3  -1    0.21    0.23 
   9  -3   1    0.19    0.17 
  11   2  -1    3.13    0.82 
  10   2  -1    1.54    0.25 
 -10  -2   1    2.98    0.63 
   9   2  -1    2.75    0.28 
  -9  -2   1    2.53    0.57 
   8   2  -1    0.57    0.15 
  -8  -2   1    0.86    0.38 
   7   2  -1   12.02    0.30 
   6   2  -1   10.24    0.22 
  -6  -2   1   11.70    0.40 
   5   2  -1   45.53    0.47 
  -5  -2   1   53.02    1.21 
   4   2  -1   27.38    0.29 
  -4  -2   1   32.12    0.75 
   3   2  -1   10.25    0.09 
  -3  -2   1   11.07    0.15 
   2   2  -1   58.91    0.40 
  -2  -2   1   61.99    0.59 
   1   2  -1  269.30    4.41 
  -1  -2   1  310.54    3.00 
   0   2  -1   19.62    0.29 
   0  -2   1   19.24    0.29 
  -1   2  -1   17.92    0.44 
   1  -2   1   21.10    0.42 
  -2   2  -1   27.72    0.27 
   2  -2   1   26.18    0.23 
  -3   2  -1   87.79    0.72 
   3  -2   1   81.68    0.55 
  -4   2  -1   55.09    0.54 
   4  -2   1   52.12    0.43 
  -5   2  -1    5.82    0.23 
   5  -2   1    5.19    0.12 
  -6   2  -1    5.26    0.33 
   6  -2   1    5.12    0.20 
  -7   2  -1    2.24    0.29 
   7  -2   1    1.85    0.15 
  -8   2  -1   15.16    0.65 
   8  -2   1   14.36    0.43 
  -9   2  -1    2.76    0.32 
   9  -2   1    3.26    0.28 
 -10   2  -1    0.18    0.27 
  10   1  -1    0.22    0.19 
 -10  -1   1    0.00    0.40 
   9   1  -1   10.40    0.49 
  -9  -1   1   12.69    0.97 
   8   1  -1    3.10    0.28 
  -8  -1   1    4.63    0.63 
   7   1  -1    4.94    0.29 
  -7  -1   1    5.57    0.59 
   6   1  -1    0.21    0.07 
  -6  -1   1    0.42    0.14 
   5   1  -1   41.63    0.55 
   4   1  -1   18.29    0.23 
   3   1  -1   75.28    0.60 
  -3  -1   1   81.24    1.22 
   2   1  -1   34.80    0.25 
  -2  -1   1   38.36    0.49 
   1   1  -1   50.14    0.40 
  -1  -1   1   50.57    0.44 
   0   1  -1   78.76    1.09 
   0  -1   1   73.63    1.09 
  -1   1  -1  283.34    2.81 
   1  -1   1  315.46    4.45 
  -2   1  -1    1.89    0.06 
   2  -1   1    1.94    0.06 
  -3   1  -1    1.61    0.09 
   3  -1   1    1.45    0.05 
  -4   1  -1   30.69    0.41 
   4  -1   1   28.76    0.24 
  -5   1  -1   41.46    0.86 
   5  -1   1   36.32    0.44 
  -6   1  -1   21.37    1.01 
   6  -1   1   18.50    0.29 
  -7   1  -1    0.42    0.14 
   7  -1   1    0.23    0.08 
  -8   1  -1    2.91    0.31 
   8  -1   1    2.93    0.22 
  -9   1  -1    0.93    0.25 
   9  -1   1    0.97    0.17 
 -10   1  -1    4.51    0.45 
  10  -1   1    4.27    0.35 
  10   0  -1    1.53    0.28 
 -10   0   1    1.68    0.59 
   9   0  -1    0.01    0.09 
  -9   0   1    0.19    0.42 
   8   0  -1    1.53    0.11 
  -8   0   1    2.00    0.48 
   7   0  -1   28.75    0.41 
  -7   0   1   33.03    0.83 
   6   0  -1    7.20    0.13 
  -6   0   1    7.71    0.58 
   5   0  -1    6.09    0.10 
  -5   0   1    6.89    0.23 
   4   0  -1   11.15    0.18 
  -4   0   1   12.44    0.30 
   3   0  -1  107.46    1.06 
  -3   0   1  117.43    1.82 
   2   0  -1   15.20    0.13 
  -2   0   1   15.75    0.20 
   1   0  -1   74.81    0.72 
  -1   0   1   63.31    0.77 
   0   0  -1    0.01    0.01 
   0   0   1    0.00    0.01 
  -1   0  -1   78.09    0.65 
   1   0   1   75.38    0.52 
  -2   0  -1   84.59    0.71 
   2   0   1   79.07    0.56 
  -3   0  -1  109.36    1.02 
   3   0   1  102.03    0.64 
  -4   0  -1    0.45    0.05 
   4   0   1    0.36    0.04 
  -5   0  -1    0.57    0.08 
   5   0   1    0.48    0.05 
  -6   0  -1   20.83    0.96 
   6   0   1   18.65    0.24 
  -7   0  -1   13.49    0.83 
   7   0   1   11.98    0.21 
  -8   0  -1    6.07    0.69 
   8   0   1    4.76    0.24 
  -9   0  -1    0.17    0.15 
   9   0   1    0.18    0.12 
 -10   0  -1    1.14    0.29 
  10   0   1    0.89    0.15 
 -11   0  -1    0.00    0.27 
  10  -1  -1    0.40    0.13 
 -10   1   1    0.59    0.23 
   9  -1  -1    1.53    0.18 
  -9   1   1    1.93    0.27 
   8  -1  -1    1.85    0.17 
  -8   1   1    1.11    0.46 
   7  -1  -1    0.85    0.08 
  -7   1   1    0.97    0.39 
   6  -1  -1    9.87    0.19 
  -6   1   1   11.04    0.72 
   5  -1  -1   65.53    0.65 
  -5   1   1   67.22    2.01 
   4  -1  -1    8.78    0.13 
  -4   1   1    9.23    0.19 
   3  -1  -1    3.26    0.05 
  -3   1   1    3.48    0.10 
   2  -1  -1   75.25    0.53 
  -2   1   1   78.22    0.78 
   1  -1  -1  220.18    1.28 
  -1   1   1  227.30    1.65 
   0  -1  -1    0.00    0.01 
   0   1   1    0.00    0.01 
  -1  -1  -1   39.47    0.50 
   1   1   1   41.90    0.36 
  -2  -1  -1    4.78    0.10 
   2   1   1    4.41    0.05 
  -3  -1  -1   57.32    0.88 
   3   1   1   52.41    0.42 
  -4  -1  -1   59.14    0.70 
   4   1   1   54.51    0.45 
  -5  -1  -1   32.46    0.52 
   5   1   1   28.86    0.23 
  -6  -1  -1    2.91    0.18 
   6   1   1    2.37    0.08 
  -7  -1  -1    2.18    0.41 
   7   1   1    1.78    0.10 
  -8  -1  -1    9.21    0.76 
   8   1   1    8.28    0.20 
  -9  -1  -1    3.85    0.63 
   9   1   1    3.47    0.20 
  10   1   1    0.83    0.22 
 -11  -1  -1    0.07    0.38 
  10  -2  -1    0.00    0.39 
 -10   2   1    0.08    0.22 
   9  -2  -1   11.25    0.39 
  -9   2   1   11.76    0.60 
   8  -2  -1    2.00    0.19 
  -8   2   1    2.12    0.23 
   7  -2  -1    4.95    0.20 
  -7   2   1    5.44    0.32 
   6  -2  -1    0.16    0.08 
  -6   2   1    0.32    0.10 
   5  -2  -1    6.89    0.17 
  -5   2   1    7.85    0.61 
   4  -2  -1   36.97    0.29 
  -4   2   1   39.33    0.45 
   3  -2  -1  111.03    0.80 
  -3   2   1  117.22    0.98 
   2  -2  -1    5.69    0.08 
  -2   2   1    6.12    0.10 
   1  -2  -1    0.60    0.05 
  -1   2   1    0.59    0.04 
   0  -2  -1  217.11    2.61 
   0   2   1  195.82    2.59 
  -1  -2  -1  267.12    1.94 
   1   2   1  258.61    1.49 
  -2  -2  -1    4.85    0.09 
   2   2   1    4.74    0.05 
  -3  -2  -1   15.11    0.40 
   3   2   1   14.00    0.14 
  -4  -2  -1   22.77    0.56 
   4   2   1   19.16    0.35 
  -5  -2  -1   30.29    0.71 
   5   2   1   26.85    0.40 
  -6  -2  -1   26.24    1.01 
   6   2   1   23.34    0.32 
  -7  -2  -1    7.32    0.59 
   7   2   1    5.81    0.12 
  -8  -2  -1    3.51    0.53 
   8   2   1    2.90    0.10 
  -9  -2  -1    1.86    0.48 
   9   2   1    1.56    0.22 
  10   2   1    2.75    0.31 
 -10   3   1    1.57    0.37 
   9  -3  -1    0.51    0.17 
  -9   3   1    1.13    0.30 
   8  -3  -1    1.54    0.20 
  -8   3   1    1.38    0.24 
   7  -3  -1   31.42    0.54 
  -7   3   1   33.72    0.98 
   6  -3  -1    5.24    0.21 
  -6   3   1    5.60    0.36 
   5  -3  -1   10.31    0.19 
  -5   3   1   10.99    0.44 
   4  -3  -1    2.09    0.08 
  -4   3   1    2.14    0.12 
   3  -3  -1   22.24    0.23 
  -3   3   1   23.98    0.27 
   2  -3  -1   87.28    0.62 
  -2   3   1   90.21    0.73 
   1  -3  -1  127.47    1.04 
  -1   3   1  127.88    1.08 
   0  -3  -1    1.74    0.08 
   0   3   1    1.50    0.08 
  -1  -3  -1   10.16    0.13 
   1   3   1   10.08    0.11 
  -2  -3  -1  231.51    2.03 
   2   3   1  218.83    1.36 
  -3  -3  -1  151.45    2.34 
   3   3   1  136.57    1.33 
  -4  -3  -1    3.50    0.12 
   4   3   1    3.21    0.06 
   5   3   1    1.25    0.08 
   6   3   1   19.83    0.24 
  -7  -3  -1   11.31    0.68 
   7   3   1   10.18    0.16 
  -8  -3  -1    9.06    0.70 
   8   3   1    8.34    0.31 
  -9  -3  -1    0.78    0.37 
   9   3   1    0.42    0.15 
  10   3   1    1.39    0.22 
   9  -4  -1    3.47    0.52 
  -9   4   1    5.65    0.58 
   8  -4  -1    2.59    0.20 
  -8   4   1    2.08    0.29 
   7  -4  -1    0.92    0.14 
  -7   4   1    0.97    0.22 
   6  -4  -1    7.69    0.27 
  -6   4   1    8.30    0.49 
   5  -4  -1   66.16    0.69 
  -5   4   1   72.47    1.61 
   4  -4  -1   11.02    0.20 
  -4   4   1   11.65    0.29 
   3  -4  -1   12.73    0.17 
  -3   4   1   12.92    0.21 
   2  -4  -1   21.00    0.25 
  -2   4   1   21.96    0.26 
   1  -4  -1   46.37    0.78 
  -1   4   1   47.99    0.91 
   0  -4  -1  133.91    1.84 
   0   4   1  124.75    1.83 
  -1  -4  -1   80.27    0.76 
   1   4   1   80.69    0.80 
  -2  -4  -1    1.32    0.06 
   2   4   1    1.27    0.05 
  -3  -4  -1   10.70    0.16 
   3   4   1   10.11    0.10 
  -4  -4  -1  158.03    2.12 
   4   4   1   85.35    0.92 
  -5  -4  -1   57.47    1.45 
   5   4   1   50.08    0.56 
  -6  -4  -1    3.68    0.25 
   6   4   1    2.94    0.13 
   7   4   1    0.01    0.06 
  -8  -4  -1   12.23    0.76 
   8   4   1   11.71    0.19 
   9   4   1    2.95    0.12 
  10   4   1    2.15    0.24 
  11   4   1    0.14    0.13 
  -9   5   1    1.10    0.33 
   8  -5  -1    4.60    0.31 
  -8   5   1    4.12    0.35 
   7  -5  -1   11.44    0.37 
  -7   5   1   13.19    0.56 
   6  -5  -1    2.48    0.19 
  -6   5   1    3.06    0.37 
   5  -5  -1    0.75    0.08 
  -5   5   1    0.66    0.22 
   4  -5  -1   27.23    0.36 
  -4   5   1   29.39    0.52 
   3  -5  -1  111.01    0.81 
  -3   5   1  118.08    1.06 
   2  -5  -1   17.43    0.23 
  -2   5   1   16.68    0.25 
   1  -5  -1    7.16    0.14 
  -1   5   1    7.40    0.18 
   0  -5  -1   55.72    0.83 
   0   5   1   50.21    0.82 
  -1  -5  -1   59.99    0.91 
   1   5   1   60.59    0.77 
  -2  -5  -1   97.52    0.78 
   2   5   1   94.28    0.66 
  -3  -5  -1   34.79    0.33 
   3   5   1   32.48    0.28 
  -4  -5  -1    6.56    0.13 
   4   5   1    5.88    0.08 
  -5  -5  -1    8.48    0.33 
   5   5   1    7.56    0.13 
  -6  -5  -1   85.25    1.67 
   6   5   1   78.43    1.07 
   7   5   1   13.48    0.33 
  -8  -5  -1    2.66    0.51 
   8   5   1    2.85    0.24 
  -9  -5  -1    0.32    0.35 
   9   5   1    0.61    0.15 
   8  -6  -1    0.12    0.18 
  -8   6   1    0.18    0.23 
   7  -6  -1    5.49    0.34 
  -7   6   1    5.26    0.39 
   6  -6  -1   10.25    0.30 
  -6   6   1   11.40    0.55 
   5  -6  -1   22.09    0.34 
  -5   6   1   23.40    0.86 
   4  -6  -1    1.44    0.11 
  -4   6   1    1.57    0.16 
   3  -6  -1    0.07    0.05 
  -3   6   1    0.12    0.08 
   2  -6  -1   61.34    0.72 
  -2   6   1   62.03    0.68 
   1  -6  -1  137.62    1.66 
  -1   6   1  143.25    1.87 
   0  -6  -1   17.22    0.34 
   0   6   1   15.20    0.34 
  -1  -6  -1    0.73    0.18 
   1   6   1    0.64    0.14 
  -2  -6  -1   56.78    0.52 
   2   6   1   54.51    0.46 
  -3  -6  -1   56.70    0.54 
   3   6   1   53.31    0.43 
  -4  -6  -1   48.73    0.52 
   4   6   1   45.29    0.37 
  -5  -6  -1    7.85    0.60 
   5   6   1    7.73    0.17 
  -6  -6  -1    4.79    0.54 
   6   6   1    5.04    0.12 
  -7  -6  -1    3.51    0.54 
   7   6   1    4.20    0.16 
  -8  -6  -1   42.72    1.70 
   8   6   1   34.34    0.86 
  -9  -6  -1    3.40    0.62 
   9   6   1    2.92    0.28 
  10   6   1    1.58    0.21 
   8  -7  -1    3.20    0.50 
  -8   7   1    3.48    0.46 
   7  -7  -1    2.54    0.27 
  -7   7   1    2.66    0.33 
   6  -7  -1    0.12    0.15 
  -6   7   1    0.21    0.20 
   5  -7  -1   13.92    0.30 
  -5   7   1   14.82    0.62 
   4  -7  -1   17.41    0.33 
  -4   7   1   17.84    0.42 
   3  -7  -1   29.03    0.37 
  -3   7   1   31.43    0.54 
   2  -7  -1    0.00    0.19 
  -2   7   1    0.17    0.10 
   1  -7  -1    1.01    0.14 
  -1   7   1    0.91    0.16 
   0  -7  -1   89.59    1.33 
   0   7   1   83.33    1.32 
  -1  -7  -1   97.72    1.90 
   1   7   1   99.46    1.64 
  -2  -7  -1    8.87    0.19 
   2   7   1    8.54    0.18 
  -3  -7  -1    1.74    0.10 
   3   7   1    1.40    0.07 
  -4  -7  -1   42.06    0.60 
   4   7   1   39.62    0.36 
  -5  -7  -1   30.94    0.77 
   5   7   1   28.19    0.30 
  -6  -7  -1   16.59    0.92 
   6   7   1   16.05    0.27 
  -7  -7  -1    1.14    0.42 
   7   7   1    0.65    0.08 
  -8  -7  -1    3.05    0.57 
   8   7   1    2.42    0.11 
  -9  -7  -1    0.98    0.46 
   9   7   1    1.18    0.21 
 -10  -7  -1   16.02    1.17 
  10   7   1   15.51    0.59 
  11   7   1    0.26    0.18 
   7  -8  -1    6.14    0.71 
  -7   8   1    6.33    0.48 
   6  -8  -1    4.52    0.35 
  -6   8   1    4.95    0.41 
   5  -8  -1    2.43    0.17 
  -5   8   1    3.08    0.32 
   4  -8  -1    1.39    0.15 
  -4   8   1    1.94    0.19 
   3  -8  -1   25.03    0.37 
  -3   8   1   27.16    0.52 
   2  -8  -1   24.48    0.54 
  -2   8   1   24.58    0.60 
   1  -8  -1   26.04    0.50 
  -1   8   1   26.69    0.61 
   0  -8  -1    1.70    0.15 
   0   8   1    1.23    0.14 
  -1  -8  -1    2.39    0.16 
   1   8   1    2.40    0.14 
  -2  -8  -1   78.11    0.80 
   2   8   1   75.23    0.79 
  -3  -8  -1   55.52    0.59 
   3   8   1   53.19    0.48 
  -4  -8  -1    2.07    0.16 
   4   8   1    1.88    0.10 
  -5  -8  -1    2.86    0.27 
   5   8   1    2.78    0.11 
  -6  -8  -1   25.28    0.72 
   6   8   1   22.42    0.41 
  -7  -8  -1   11.34    0.89 
   7   8   1   10.52    0.26 
  -8  -8  -1    5.88    0.79 
   8   8   1    4.55    0.22 
  -9  -8  -1    0.00    0.38 
   9   8   1    0.11    0.16 
 -10  -8  -1    0.46    0.49 
  10   8   1    0.77    0.22 
  11   8   1    0.27    0.50 
   6  -9  -1    3.59    0.40 
  -6   9   1    4.08    0.47 
   5  -9  -1   11.82    0.40 
  -5   9   1   13.73    0.67 
   4  -9  -1    3.61    0.22 
  -4   9   1    4.33    0.30 
   3  -9  -1    2.03    0.15 
  -3   9   1    2.12    0.22 
   2  -9  -1    7.87    0.49 
  -2   9   1    9.09    0.57 
   1  -9  -1   33.00    0.73 
  -1   9   1   31.36    0.83 
   0  -9  -1   22.55    0.56 
   0   9   1   21.53    0.54 
  -1  -9  -1   13.94    0.62 
   1   9   1   13.61    0.48 
  -2  -9  -1    5.35    0.21 
   2   9   1    4.77    0.19 
  -3  -9  -1    3.85    0.21 
   3   9   1    3.62    0.12 
  -4  -9  -1   46.02    0.71 
   4   9   1   43.14    0.49 
  -5  -9  -1   22.05    0.75 
   5   9   1   19.61    0.27 
  -6  -9  -1    0.04    0.15 
   6   9   1    0.08    0.09 
  -7  -9  -1    2.62    0.30 
   7   9   1    2.41    0.17 
  -8  -9  -1   10.34    0.46 
   8   9   1    9.72    0.33 
  -9  -9  -1    2.89    0.65 
   9   9   1    2.90    0.22 
 -10  -9  -1    0.46    0.49 
  10   9   1    0.83    0.24 
  11   9   1    0.20    0.56 
  -6  10   1    0.30    0.51 
   5 -10  -1    1.46    0.21 
  -5  10   1    1.15    0.35 
   4 -10  -1    6.92    0.37 
  -4  10   1    6.52    0.39 
   3 -10  -1   16.37    0.46 
  -3  10   1   17.89    0.49 
   2 -10  -1    2.00    0.29 
  -2  10   1    2.13    0.35 
   1 -10  -1    0.34    0.21 
  -1  10   1    0.51    0.22 
   0 -10  -1   16.85    0.52 
   0  10   1   15.46    0.51 
  -1 -10  -1   29.46    0.84 
   1  10   1   25.34    0.71 
  -2 -10  -1   15.64    0.61 
   2  10   1   13.23    0.52 
  -3 -10  -1    3.23    0.21 
   3  10   1    2.56    0.13 
  -4 -10  -1    6.10    0.26 
   4  10   1    5.52    0.18 
  -5 -10  -1    3.32    0.36 
   5  10   1    2.97    0.14 
  -6 -10  -1   19.08    0.73 
   6  10   1   17.60    0.41 
  -7 -10  -1    6.13    0.45 
   7  10   1    5.34    0.25 
  -8 -10  -1    0.27    0.17 
   8  10   1    0.08    0.12 
  -9 -10  -1    1.42    0.27 
   9  10   1    1.61    0.18 
 -10 -10  -1    3.61    0.36 
  10  10   1    2.91    0.20 
   5 -11  -1    1.89    0.47 
  -5  11   1    3.65    0.85 
   4 -11  -1    0.07    0.22 
  -4  11   1    0.41    0.28 
   3 -11  -1    4.74    0.46 
  -3  11   1    4.53    0.36 
   2 -11  -1   12.04    0.73 
  -2  11   1   13.71    0.64 
   1 -11  -1   16.75    0.57 
  -1  11   1   15.82    0.58 
   0 -11  -1    0.09    0.12 
   0  11   1    0.05    0.12 
  -1 -11  -1    0.21    0.22 
   1  11   1    0.02    0.20 
  -2 -11  -1   20.41    0.58 
   2  11   1   20.53    0.48 
  -3 -11  -1   15.71    0.41 
   3  11   1   13.60    0.29 
  -4 -11  -1    5.62    0.28 
   4  11   1    5.97    0.23 
  -5 -11  -1    0.03    0.17 
   5  11   1    0.05    0.07 
  -6 -11  -1    4.13    0.44 
   6  11   1    4.16    0.20 
  -7 -11  -1    2.14    0.35 
   7  11   1    1.53    0.17 
  -8 -11  -1    5.23    0.39 
   8  11   1    5.52    0.32 
  -9 -11  -1    0.98    0.28 
   9  11   1    0.90    0.17 
 -10 -11  -1    0.09    0.23 
  10  11   1    0.41    0.40 
   4 -12  -1    0.08    0.43 
  -4  12   1    0.26    0.61 
   3 -12  -1    1.66    0.37 
  -3  12   1    2.22    0.36 
   2 -12  -1    0.00    0.66 
  -2  12   1    0.35    0.58 
   1 -12  -1    7.18    0.60 
  -1  12   1    8.86    0.54 
   0 -12  -1   13.25    0.54 
   0  12   1   11.09    0.52 
  -1 -12  -1   12.09    0.59 
   1  12   1   11.50    0.56 
  -2 -12  -1    0.00    0.36 
   2  12   1    0.03    0.28 
  -3 -12  -1    0.56    0.17 
   3  12   1    0.38    0.11 
  -4 -12  -1   18.15    0.48 
   4  12   1   17.00    0.41 
  -5 -12  -1    6.32    0.47 
   5  12   1    5.45    0.21 
  -6 -12  -1    1.32    0.29 
   6  12   1    0.82    0.15 
  -7 -12  -1    0.36    0.21 
   7  12   1    0.30    0.15 
  -8 -12  -1    2.29    0.29 
   8  12   1    2.19    0.22 
  -9 -12  -1    0.49    0.25 
   9  12   1    0.58    0.18 
 -10 -12  -1    1.10    0.29 
  10  12   1    0.65    0.47 
  -3  13   1    8.44    1.03 
   2 -13  -1    0.30    0.88 
  -2  13   1    0.12    0.68 
   1 -13  -1    0.73    0.55 
  -1  13   1    0.48    0.55 
   0 -13  -1    1.80    0.37 
   0  13   1    3.01    0.36 
  -1 -13  -1    8.36    0.55 
   1  13   1    9.14    0.58 
  -2 -13  -1    9.48    0.67 
   2  13   1   10.35    0.70 
  -3 -13  -1    4.29    0.31 
   3  13   1    3.49    0.25 
  -4 -13  -1    1.76    0.25 
   4  13   1    1.67    0.17 
  -5 -13  -1    1.10    0.25 
   5  13   1    1.00    0.14 
  -6 -13  -1    9.97    0.51 
   6  13   1    9.28    0.43 
  -7 -13  -1    1.74    0.29 
   7  13   1    1.33    0.22 
  -8 -13  -1    0.32    0.22 
   8  13   1    0.02    0.15 
  -9 -13  -1    0.82    0.29 
   1 -14  -1   11.98    8.56 
  -1  14   1    9.74    1.38 
   0 -14  -1    0.30    0.29 
   0  14   1    0.23    0.28 
  -1 -14  -1    0.42    0.58 
   1  14   1    0.29    0.54 
  -2 -14  -1    4.47    0.62 
   2  14   1    5.02    0.65 
  -3 -14  -1    6.36    0.42 
   3  14   1    6.53    0.50 
  -4 -14  -1    7.94    0.58 
   4  14   1    6.67    0.37 
  -5 -14  -1    0.22    0.28 
   5  14   1    0.64    0.17 
  -6 -14  -1    2.09    0.33 
   6  14   1    1.59    0.29 
  -7 -14  -1    0.83    0.28 
   7  14   1    1.06    0.26 
  -8 -14  -1    4.85    0.43 
   8  14   1    5.51    0.64 
  -1 -15  -1    8.29    1.47 
   1  15   1    7.84    9.20 
  -2 -15  -1    0.27    0.72 
   2  15   1    0.22    0.88 
  -3 -15  -1    0.10    0.31 
   3  15   1    0.00    0.25 
  -4 -15  -1    6.04    0.56 
   4  15   1    5.25    0.46 
  -5 -15  -1    3.57    0.46 
   5  15   1    3.67    0.38 
  -6 -15  -1    3.40    0.56 
   6  15   1    3.22    0.62 
  -7 -15  -1    0.00    0.32 
   7  15   1    0.00    0.28 
  -7 -14   2    2.22    0.80 
   6  14  -2    6.18    0.76 
  -6 -14   2    5.22    0.67 
   5  14  -2    0.76    0.28 
  -5 -14   2    0.82    0.41 
   4  14  -2    2.32    0.41 
  -4 -14   2    2.80    0.52 
   3  14  -2    0.85    0.34 
  -3 -14   2    0.63    0.42 
   2  14  -2    7.55    1.40 
  -2 -14   2    6.16    1.50 
   8  13  -2    4.19    0.55 
  -8 -13   2    3.36    0.44 
   7  13  -2    0.41    0.24 
  -7 -13   2    0.24    0.26 
   6  13  -2    1.65    0.33 
  -6 -13   2    1.56    0.42 
   5  13  -2    3.62    0.28 
  -5 -13   2    2.99    0.52 
   4  13  -2    8.46    0.40 
  -4 -13   2    8.66    0.74 
   3  13  -2    0.16    0.25 
  -3 -13   2    0.22    0.25 
   2  13  -2    0.72    0.84 
  -2 -13   2    1.42    0.67 
   1  13  -2    3.17    1.02 
  -1 -13   2    4.06    1.15 
   0  13  -2    8.56    0.73 
   0 -13   2    8.74    0.75 
  -9 -12   2    0.03    0.24 
   8  12  -2    1.83    0.22 
  -8 -12   2    1.88    0.35 
   7  12  -2    3.49    0.28 
  -7 -12   2    3.54    0.42 
   6  12  -2    7.91    0.33 
  -6 -12   2    7.88    0.55 
   5  12  -2    0.24    0.11 
  -5 -12   2    0.10    0.23 
   4  12  -2    4.57    0.28 
  -4 -12   2    5.30    0.40 
   3  12  -2    9.29    0.41 
  -3 -12   2    9.73    0.43 
   2  12  -2   10.56    0.84 
  -2 -12   2   10.92    0.93 
   1  12  -2    0.05    0.40 
  -1 -12   2    0.58    0.36 
   0  12  -2    0.04    0.21 
   0 -12   2    0.00    0.22 
  -1  12  -2    4.75    1.08 
   1 -12   2    4.99    1.02 
  -2  12  -2    9.70    1.42 
   2 -12   2   10.21    1.40 
 -10 -11   2    2.92    0.44 
  -9 -11   2    1.63    0.31 
   8  11  -2    0.03    0.11 
  -8 -11   2    0.08    0.22 
   7  11  -2    0.06    0.14 
  -7 -11   2    0.35    0.24 
   6  11  -2    7.31    0.25 
  -6 -11   2    8.64    0.53 
   5  11  -2    5.62    0.22 
  -5 -11   2    5.99    0.47 
   4  11  -2   12.13    0.33 
  -4 -11   2   12.22    0.44 
   3  11  -2    0.69    0.12 
  -3 -11   2    1.02    0.21 
   2  11  -2   10.85    0.58 
  -2 -11   2    8.75    0.74 
   1  11  -2   15.84    0.71 
  -1 -11   2   17.52    0.75 
   0  11  -2    9.11    0.50 
   0 -11   2    8.84    0.51 
  -1  11  -2    0.00    0.35 
   1 -11   2    0.55    0.41 
  -2  11  -2    0.00    0.63 
   2 -11   2    0.00    0.84 
  -3  11  -2    5.24    0.60 
   3 -11   2    5.68    0.55 
 -10 -10   2    1.19    0.31 
   9  10  -2    0.91    0.22 
  -9 -10   2    0.89    0.29 
   8  10  -2    9.11    0.42 
  -8 -10   2    9.31    0.51 
   7  10  -2    3.50    0.22 
  -7 -10   2    2.70    0.33 
   6  10  -2    0.64    0.10 
  -6 -10   2    0.14    0.20 
   5  10  -2    1.83    0.13 
  -5 -10   2    2.26    0.30 
   4  10  -2   18.82    0.36 
  -4 -10   2   20.00    0.47 
   3  10  -2    7.34    0.24 
  -3 -10   2    7.85    0.31 
   2  10  -2   12.07    0.43 
  -2 -10   2   11.22    0.44 
   1  10  -2    5.31    0.41 
  -1 -10   2    4.54    0.39 
   0  10  -2   13.30    0.60 
   0 -10   2   16.05    0.61 
  -1  10  -2   19.55    0.74 
   1 -10   2   21.28    0.73 
  -2  10  -2    5.88    0.87 
   2 -10   2    6.80    0.86 
  -3  10  -2    0.69    0.26 
   3 -10   2    0.29    0.27 
  -4  10  -2    1.44    0.44 
   4 -10   2    1.16    0.27 
  -5  10  -2    5.02    0.95 
   5 -10   2    4.52    0.62 
 -11  -9   2    0.59    0.29 
  10   9  -2    3.63    0.29 
 -10  -9   2    4.28    0.42 
   9   9  -2    0.36    0.16 
  -9  -9   2    0.31    0.22 
   8   9  -2    5.07    0.29 
  -8  -9   2    5.44    0.40 
   7   9  -2    3.09    0.18 
  -7  -9   2    3.29    0.32 
   6   9  -2   21.86    0.36 
  -6  -9   2   23.72    0.71 
   5   9  -2    2.79    0.14 
  -5  -9   2    2.84    0.29 
   4   9  -2    1.97    0.13 
  -4  -9   2    2.08    0.18 
   3   9  -2    9.99    0.24 
  -3  -9   2   10.78    0.32 
   2   9  -2   28.33    0.80 
  -2  -9   2   32.38    0.76 
   1   9  -2    7.17    0.34 
  -1  -9   2    7.61    0.36 
   0   9  -2    7.16    0.41 
   0  -9   2    8.74    0.42 
  -1   9  -2    8.02    0.39 
   1  -9   2    7.71    0.42 
  -2   9  -2   17.22    0.71 
   2  -9   2   16.07    0.60 
  -3   9  -2   17.25    0.52 
   3  -9   2   16.04    0.45 
  -4   9  -2    2.67    0.49 
   4  -9   2    2.15    0.22 
  -5   9  -2    1.61    0.47 
   5  -9   2    1.35    0.27 
 -11  -8   2    0.17    0.34 
  10   8  -2    3.82    0.25 
 -10  -8   2    2.98    0.33 
   9   8  -2    1.60    0.20 
  -9  -8   2    1.41    0.26 
   8   8  -2    8.42    0.35 
  -8  -8   2    8.21    0.39 
   7   8  -2    0.22    0.08 
  -7  -8   2    0.01    0.14 
   6   8  -2   14.51    0.28 
  -6  -8   2   15.67    0.42 
   5   8  -2    8.49    0.17 
  -5  -8   2    9.29    0.33 
   4   8  -2   40.93    0.47 
  -4  -8   2   44.26    0.65 
   3   8  -2    0.54    0.08 
  -3  -8   2    0.43    0.11 
   2   8  -2    4.56    0.35 
  -2  -8   2    6.35    0.38 
   1   8  -2   23.77    0.76 
  -1  -8   2   28.47    0.83 
   0   8  -2   31.66    0.79 
   0  -8   2   35.91    0.81 
  -1   8  -2    4.98    0.36 
   1  -8   2    5.05    0.35 
  -2   8  -2    4.07    0.44 
   2  -8   2    2.98    0.44 
  -3   8  -2   10.67    0.41 
   3  -8   2   10.35    0.29 
  -4   8  -2   14.42    0.54 
   4  -8   2   13.51    0.37 
  -5   8  -2    9.44    0.73 
   5  -8   2    8.85    0.36 
  -6   8  -2    0.93    0.39 
   6  -8   2    0.42    0.34 
 -11  -7   2    0.00    0.29 
  10   7  -2    0.35    0.10 
 -10  -7   2    0.27    0.16 
   9   7  -2    0.50    0.13 
  -9  -7   2    0.74    0.20 
   8   7  -2   10.39    0.35 
  -8  -7   2   11.04    0.44 
   7   7  -2    4.04    0.16 
  -7  -7   2    4.13    0.31 
   6   7  -2   13.19    0.30 
  -6  -7   2   13.76    0.35 
   5   7  -2    1.18    0.09 
  -5  -7   2    1.39    0.15 
   4   7  -2   34.81    0.40 
  -4  -7   2   38.46    0.50 
   3   7  -2   16.88    0.24 
  -3  -7   2   18.12    0.28 
   2   7  -2   53.58    0.94 
  -2  -7   2   59.41    0.88 
   1   7  -2    0.80    0.20 
  -1  -7   2    1.80    0.23 
   0   7  -2    9.41    0.33 
   0  -7   2    9.66    0.34 
  -1   7  -2   35.45    0.82 
   1  -7   2   37.94    0.79 
  -2   7  -2   25.70    0.75 
   2  -7   2   27.21    0.82 
  -3   7  -2    1.68    0.17 
   3  -7   2    1.69    0.13 
  -4   7  -2    0.17    0.14 
   4  -7   2    0.35    0.10 
  -5   7  -2    8.85    0.54 
   5  -7   2    8.04    0.26 
  -6   7  -2    7.73    0.56 
   6  -7   2    8.24    0.48 
  -7   7  -2    3.84    0.47 
   7  -7   2    3.48    0.55 
 -11  -6   2    0.72    0.31 
  10   6  -2    4.47    0.37 
   9   6  -2    0.24    0.10 
   8   6  -2    0.06    0.09 
  -8  -6   2    0.18    0.32 
   7   6  -2    4.97    0.17 
  -7  -6   2    5.18    0.58 
   6   6  -2   25.64    0.37 
  -6  -6   2   28.85    0.56 
   5   6  -2    7.31    0.15 
  -5  -6   2    8.00    0.28 
   4   6  -2   16.79    0.22 
  -4  -6   2   18.02    0.29 
   3   6  -2   12.55    0.16 
  -3  -6   2   13.51    0.22 
   2   6  -2   63.27    0.93 
  -2  -6   2   67.24    0.92 
   1   6  -2   21.08    0.49 
  -1  -6   2   24.20    0.53 
   0   6  -2   51.46    0.93 
   0  -6   2   55.10    0.94 
  -1   6  -2    6.85    0.23 
   1  -6   2    6.91    0.21 
  -2   6  -2   12.03    0.37 
   2  -6   2   12.89    0.36 
  -3   6  -2   36.61    0.59 
   3  -6   2   33.81    0.45 
  -4   6  -2   11.57    0.35 
   4  -6   2   11.41    0.27 
  -5   6  -2    0.13    0.20 
   5  -6   2    0.10    0.09 
  -6   6  -2    0.08    0.22 
   6  -6   2    0.30    0.13 
  -7   6  -2    5.19    0.49 
   7  -6   2    4.76    0.34 
  -8   6  -2    3.06    0.55 
   8  -6   2    4.29    0.56 
  10   5  -2    1.99    0.23 
   9   5  -2    3.43    0.19 
   8   5  -2   12.24    0.32 
  -8  -5   2   13.51    0.85 
   7   5  -2    0.05    0.06 
  -7  -5   2    0.00    0.24 
   6   5  -2    0.52    0.06 
  -6  -5   2    0.41    0.13 
   5   5  -2   21.08    0.22 
  -5  -5   2   23.24    0.38 
   4   5  -2   52.01    0.41 
  -4  -5   2   56.08    0.55 
   3   5  -2    7.57    0.13 
  -3  -5   2    8.28    0.15 
   2   5  -2   15.70    0.23 
  -2  -5   2   15.99    0.22 
   1   5  -2   43.19    1.06 
  -1  -5   2   48.92    1.12 
   0   5  -2   66.41    1.09 
   0  -5   2   75.49    1.11 
  -1   5  -2   22.55    0.52 
   1  -5   2   23.91    0.50 
  -2   5  -2   31.06    0.76 
   2  -5   2   34.40    0.95 
  -3   5  -2   14.63    0.28 
   3  -5   2   13.26    0.24 
  -4   5  -2   10.99    0.31 
   4  -5   2   10.09    0.24 
  -5   5  -2   23.32    0.72 
   5  -5   2   21.53    0.35 
  -6   5  -2    3.78    0.38 
   6  -5   2    3.19    0.18 
  -7   5  -2    0.10    0.23 
   7  -5   2    0.03    0.14 
  -8   5  -2    0.24    0.28 
   8  -5   2    0.30    0.19 
  11   4  -2    0.62    0.14 
  10   4  -2    1.61    0.19 
 -10  -4   2    2.06    0.30 
   9   4  -2    0.01    0.08 
   8   4  -2    8.17    0.25 
   7   4  -2   13.12    0.24 
  -7  -4   2   15.26    0.80 
   6   4  -2   23.42    0.31 
  -6  -4   2   24.82    1.00 
   5   4  -2    1.57    0.07 
  -5  -4   2    1.75    0.16 
   4   4  -2    6.53    0.10 
  -4  -4   2    7.06    0.11 
   3   4  -2   59.77    0.46 
  -3  -4   2   63.64    0.53 
   2   4  -2   71.64    0.69 
  -2  -4   2   77.97    0.70 
   1   4  -2    2.86    0.10 
  -1  -4   2    2.98    0.11 
   0   4  -2    7.83    0.20 
   0  -4   2    7.69    0.20 
  -1   4  -2   87.34    1.11 
   1  -4   2   89.16    1.08 
  -2   4  -2   53.07    0.84 
   2  -4   2   51.61    0.90 
  -3   4  -2   14.52    0.24 
   3  -4   2   14.01    0.20 
  -4   4  -2    8.27    0.25 
   4  -4   2    7.73    0.18 
  -5   4  -2   14.01    0.51 
   5  -4   2   12.65    0.23 
  -6   4  -2    7.44    0.43 
   6  -4   2    6.87    0.21 
  -7   4  -2   10.98    0.56 
   7  -4   2    9.91    0.37 
  -8   4  -2    0.41    0.25 
   8  -4   2    0.34    0.13 
  -9   4  -2    0.12    0.28 
  11   3  -2    0.63    0.60 
  10   3  -2    3.73    0.31 
 -10  -3   2    4.90    0.76 
   9   3  -2    1.53    0.13 
  -9  -3   2    1.82    0.26 
   8   3  -2    2.73    0.16 
   7   3  -2    3.35    0.11 
  -7  -3   2    3.47    0.41 
   6   3  -2   26.65    0.33 
  -6  -3   2   29.96    0.65 
   5   3  -2   36.90    0.30 
  -5  -3   2   40.95    0.79 
   4   3  -2   31.46    0.23 
  -4  -3   2   33.87    0.32 
   3   3  -2   14.19    0.14 
  -3  -3   2   15.46    0.16 
   2   3  -2   34.04    0.32 
  -2  -3   2   35.67    0.35 
   1   3  -2   84.82    1.53 
  -1  -3   2   98.88    1.58 
   0   3  -2   61.68    0.98 
   0  -3   2   69.28    0.98 
  -1   3  -2    0.12    0.10 
   1  -3   2    0.18    0.10 
  -2   3  -2    0.71    0.09 
   2  -3   2    0.50    0.14 
  -3   3  -2   90.38    0.79 
   3  -3   2   85.49    0.77 
  -4   3  -2   24.83    0.37 
   4  -3   2   22.70    0.30 
  -5   3  -2    6.30    0.27 
   5  -3   2    5.90    0.17 
  -6   3  -2    0.77    0.19 
   6  -3   2    0.54    0.09 
  -7   3  -2    9.58    0.48 
   7  -3   2    8.94    0.30 
  -8   3  -2    4.16    0.40 
   8  -3   2    3.48    0.25 
  -9   3  -2    3.58    0.40 
  11   2  -2    1.05    0.70 
 -11  -2   2    0.61    0.53 
  10   2  -2    1.87    0.26 
 -10  -2   2    2.57    0.65 
   9   2  -2    2.72    0.29 
  -9  -2   2    3.15    0.59 
   8   2  -2   12.77    0.24 
  -8  -2   2   15.73    0.60 
   7   2  -2    2.71    0.12 
  -7  -2   2    2.87    0.38 
   6   2  -2    2.50    0.09 
  -6  -2   2    2.96    0.19 
   5   2  -2   21.27    0.27 
  -5  -2   2   24.27    0.52 
   4   2  -2   68.12    0.44 
  -4  -2   2   74.33    0.70 
   3   2  -2   85.28    0.61 
  -3  -2   2   92.31    0.79 
   2   2  -2   25.66    0.20 
  -2  -2   2   26.87    0.24 
   1   2  -2   60.17    1.14 
  -1  -2   2   65.08    1.22 
   0   2  -2   92.52    1.25 
   0  -2   2   90.04    1.26 
  -1   2  -2  119.89    1.56 
   1  -2   2  131.41    1.56 
  -2   2  -2   32.04    0.39 
   2  -2   2   32.05    0.53 
  -3   2  -2    1.89    0.08 
   3  -2   2    2.00    0.08 
  -4   2  -2    1.07    0.09 
   4  -2   2    1.08    0.06 
  -5   2  -2   62.45    1.06 
   5  -2   2   57.74    0.60 
  -6   2  -2    7.28    0.28 
   6  -2   2    6.42    0.23 
  -7   2  -2    1.85    0.24 
   7  -2   2    1.66    0.13 
  -8   2  -2    0.16    0.19 
   8  -2   2    0.32    0.14 
  -9   2  -2    4.11    0.40 
   9  -2   2    4.96    0.39 
 -10   2  -2    1.80    0.49 
 -11  -1   2    0.83    0.58 
  10   1  -2    4.91    0.40 
 -10  -1   2    5.74    0.87 
   9   1  -2    0.25    0.17 
  -9  -1   2    0.90    0.47 
   8   1  -2    7.83    0.19 
  -8  -1   2    8.28    0.77 
   7   1  -2   13.45    0.24 
  -7  -1   2   15.49    0.60 
   6   1  -2   32.77    0.39 
  -6  -1   2   37.83    1.03 
   5   1  -2    2.83    0.08 
  -5  -1   2    3.43    0.17 
   4   1  -2    0.23    0.02 
  -4  -1   2    0.26    0.05 
   3   1  -2   80.70    0.56 
  -3  -1   2   86.80    0.80 
   2   1  -2  130.18    0.79 
  -2  -1   2  136.94    0.96 
   1   1  -2  144.21    1.15 
  -1  -1   2  148.28    1.25 
   0   1  -2   12.60    0.20 
   0  -1   2   12.23    0.20 
  -1   1  -2  105.60    1.22 
   1  -1   2  107.29    1.14 
  -2   1  -2   99.59    0.84 
   2  -1   2   96.21    0.66 
  -3   1  -2   82.43    0.68 
   3  -1   2   76.61    0.54 
  -4   1  -2    7.52    0.14 
   4  -1   2    6.95    0.11 
  -5   1  -2    4.30    0.19 
   5  -1   2    3.90    0.10 
  -6   1  -2    3.04    0.20 
   6  -1   2    2.84    0.16 
  -7   1  -2   32.63    0.89 
   7  -1   2   29.75    0.43 
  -8   1  -2    1.16    0.21 
   8  -1   2    0.86    0.15 
  -9   1  -2    0.35    0.21 
   9  -1   2    0.21    0.14 
 -10   1  -2    0.24    0.24 
 -11   0   2    0.58    0.54 
  10   0  -2    3.57    0.40 
 -10   0   2    4.93    0.82 
   9   0  -2    2.12    0.17 
  -9   0   2    2.82    0.66 
   8   0  -2   11.26    0.25 
  -8   0   2   12.61    0.96 
   7   0  -2    0.05    0.06 
  -7   0   2    0.09    0.15 
   6   0  -2   24.78    0.31 
  -6   0   2   26.56    0.85 
   5   0  -2   44.11    0.38 
  -5   0   2   48.21    0.76 
   4   0  -2   61.45    0.50 
  -4   0   2   67.14    0.74 
   3   0  -2    1.28    0.04 
  -3   0   2    1.43    0.05 
   2   0  -2    5.34    0.06 
  -2   0   2    5.66    0.08 
   1   0  -2  214.82    1.39 
  -1   0   2  223.06    1.50 
   0   0  -2  182.99    2.30 
   0   0   2  179.55    2.29 
  -1   0  -2  107.42    1.01 
   1   0   2  102.25    0.87 
  -2   0  -2    1.19    0.05 
   2   0   2    1.12    0.05 
  -3   0  -2   95.82    0.83 
   3   0   2   88.83    0.67 
  -4   0  -2   62.01    0.55 
   4   0   2   57.21    0.39 
  -5   0  -2   41.77    0.84 
   5   0   2   37.51    0.36 
  -6   0  -2    0.05    0.12 
   6   0   2    0.21    0.05 
  -7   0  -2    2.95    0.22 
   7   0   2    2.69    0.12 
  -8   0  -2    2.83    0.28 
   8   0   2    3.13    0.23 
  -9   0  -2   12.78    0.49 
   9   0   2   12.14    0.40 
 -10   0  -2    0.15    0.21 
  10   0   2    0.00    0.14 
  10  -1  -2    0.03    0.11 
 -10   1   2    0.04    0.20 
   9  -1  -2    2.37    0.21 
  -9   1   2    2.38    0.27 
   8  -1  -2   13.40    0.37 
  -8   1   2   15.46    1.07 
   7  -1  -2    4.48    0.14 
  -7   1   2    5.59    0.37 
   6  -1  -2   22.67    0.32 
  -6   1   2   24.31    0.68 
   5  -1  -2    3.42    0.10 
  -5   1   2    2.96    0.29 
   4  -1  -2   63.87    0.47 
  -4   1   2   70.74    0.65 
   3  -1  -2  110.66    0.77 
  -3   1   2  118.16    1.02 
   2  -1  -2   84.92    0.55 
  -2   1   2   89.93    0.82 
   1  -1  -2    0.27    0.02 
  -1   1   2    0.30    0.03 
   0  -1  -2   45.76    0.61 
   0   1   2   43.40    0.61 
  -1  -1  -2  252.70    1.68 
   1   1   2  236.65    1.53 
  -2  -1  -2  133.01    0.99 
   2   1   2  124.39    0.79 
  -3  -1  -2   33.90    0.35 
   3   1   2   31.00    0.27 
  -4  -1  -2    0.44    0.04 
   4   1   2    0.38    0.02 
  -5  -1  -2   63.71    0.95 
   5   1   2   57.25    0.46 
  -6  -1  -2   28.11    1.08 
   6   1   2   25.79    0.29 
  -7  -1  -2   15.29    0.84 
   7   1   2   14.01    0.27 
  -8  -1  -2    1.10    0.39 
   8   1   2    0.66    0.12 
  -9  -1  -2    1.54    0.23 
   9   1   2    1.22    0.15 
 -10  -1  -2    1.63    0.26 
  10   1   2    1.80    0.19 
  10  -2  -2    4.66    0.84 
 -10   2   2    5.86    0.51 
   9  -2  -2    3.14    0.25 
  -9   2   2    4.14    0.40 
   8  -2  -2    0.08    0.12 
  -8   2   2    0.00    0.14 
   7  -2  -2    9.79    0.26 
  -7   2   2   10.18    0.35 
   6  -2  -2   34.37    0.52 
  -6   2   2   38.35    0.73 
   5  -2  -2    8.13    0.17 
  -5   2   2    8.66    0.39 
   4  -2  -2   33.05    0.26 
  -4   2   2   35.77    0.42 
   3  -2  -2   23.35    0.20 
  -3   2   2   24.88    0.27 
   2  -2  -2  134.94    0.88 
  -2   2   2  142.13    1.08 
   1  -2  -2  197.84    1.24 
  -1   2   2  204.26    1.41 
   0  -2  -2   69.46    0.89 
   0   2   2   68.05    0.88 
  -1  -2  -2    1.18    0.04 
   1   2   2    1.01    0.04 
  -2  -2  -2   61.19    0.51 
   2   2   2   57.20    0.36 
  -3  -2  -2  141.22    1.36 
   3   2   2  129.39    0.85 
  -4  -2  -2   54.32    0.57 
   4   2   2   50.27    0.35 
  -5  -2  -2    6.17    0.17 
   5   2   2    5.37    0.11 
  -6  -2  -2    1.47    0.28 
   6   2   2    1.37    0.08 
  -7  -2  -2   30.27    1.18 
   7   2   2   27.93    0.40 
  -8  -2  -2   11.40    0.77 
   8   2   2    9.39    0.26 
   9   2   2    3.94    0.21 
  10   2   2    1.07    0.25 
 -11  -2  -2    0.00    0.30 
 -10   3   2    0.75    0.30 
   9  -3  -2    1.06    0.19 
  -9   3   2    1.76    0.34 
   8  -3  -2   12.19    0.41 
  -8   3   2   13.40    0.51 
   7  -3  -2    3.35    0.20 
  -7   3   2    4.11    0.30 
   6  -3  -2    0.35    0.10 
  -6   3   2    0.63    0.14 
   5  -3  -2   31.22    0.34 
  -5   3   2   33.19    0.85 
   4  -3  -2   68.30    0.53 
  -4   3   2   73.84    0.75 
   3  -3  -2    8.14    0.12 
  -3   3   2    8.47    0.14 
   2  -3  -2   41.70    0.30 
  -2   3   2   43.18    0.39 
   1  -3  -2   79.23    0.74 
  -1   3   2   82.58    0.62 
   0  -3  -2  174.30    2.25 
   0   3   2  166.55    2.22 
  -1  -3  -2  178.82    1.19 
   1   3   2  175.71    1.11 
  -2  -3  -2   32.60    0.34 
   2   3   2   30.94    0.23 
  -3  -3  -2   11.41    0.14 
   3   3   2   10.56    0.10 
  -4  -3  -2   40.48    0.58 
   4   3   2   36.78    0.31 
  -5  -3  -2   68.33    1.58 
   5   3   2   60.08    0.61 
  -6  -3  -2   15.01    0.41 
   6   3   2   12.85    0.19 
  -7  -3  -2    0.38    0.22 
   7   3   2    0.27    0.05 
  -8  -3  -2    1.07    0.34 
   8   3   2    1.37    0.10 
   9   3   2   10.27    0.28 
  10   3   2    2.87    0.33 
 -11  -3  -2    0.70    0.33 
   9  -4  -2    0.25    0.16 
  -9   4   2    0.33    0.29 
   8  -4  -2    3.88    0.24 
  -8   4   2    4.24    0.37 
   7  -4  -2    3.31    0.22 
  -7   4   2    4.27    0.34 
   6  -4  -2   22.50    0.45 
  -6   4   2   24.36    0.64 
   5  -4  -2    1.49    0.10 
  -5   4   2    1.76    0.24 
   4  -4  -2    2.98    0.11 
  -4   4   2    3.46    0.18 
   3  -4  -2   77.91    0.61 
  -3   4   2   82.03    0.75 
   2  -4  -2   93.68    0.65 
  -2   4   2   96.21    0.79 
   1  -4  -2    2.40    0.09 
  -1   4   2    2.51    0.10 
   0  -4  -2   29.11    0.45 
   0   4   2   26.53    0.45 
  -1  -4  -2  109.52    0.77 
   1   4   2  107.18    0.86 
  -2  -4  -2  111.82    0.78 
   2   4   2  107.69    0.70 
  -3  -4  -2   75.07    0.72 
   3   4   2   71.07    0.52 
  -4  -4  -2    9.38    0.17 
   4   4   2    8.80    0.13 
  -5  -4  -2   14.21    0.35 
   5   4   2   12.30    0.15 
  -6  -4  -2   21.01    0.65 
   6   4   2   17.28    0.24 
  -7  -4  -2   25.89    1.00 
   7   4   2   23.57    0.31 
   8   4   2    2.21    0.10 
   9   4   2    0.05    0.08 
  10   4   2    0.58    0.16 
  11   4   2    2.35    0.30 
  -9   5   2    1.50    0.40 
   8  -5  -2    2.15    0.21 
  -8   5   2    2.34    0.33 
   7  -5  -2    3.19    0.22 
  -7   5   2    2.97    0.32 
   6  -5  -2   10.29    0.33 
  -6   5   2   10.76    0.47 
   5  -5  -2    6.96    0.17 
  -5   5   2    7.61    0.37 
   4  -5  -2   31.09    0.36 
  -4   5   2   33.58    0.56 
   3  -5  -2    0.17    0.05 
  -3   5   2    0.15    0.06 
   2  -5  -2    8.85    0.17 
  -2   5   2    9.52    0.17 
   1  -5  -2  134.53    1.98 
  -1   5   2  139.84    2.20 
   0  -5  -2   74.85    1.12 
   0   5   2   68.67    1.10 
  -1  -5  -2    0.20    0.07 
   1   5   2    0.27    0.07 
  -2  -5  -2    1.08    0.06 
   2   5   2    1.12    0.05 
  -3  -5  -2   80.70    0.66 
   3   5   2   75.99    0.53 
  -4  -5  -2   46.71    0.50 
   4   5   2   42.55    0.31 
  -5  -5  -2   22.29    0.53 
   5   5   2   19.88    0.24 
  -6  -5  -2    0.95    0.10 
   6   5   2    0.87    0.06 
   7   5   2    7.86    0.16 
   8   5   2    6.46    0.16 
   9   5   2    6.54    0.21 
  10   5   2    0.26    0.12 
   8  -6  -2    4.88    0.33 
  -8   6   2    5.27    0.41 
   7  -6  -2    2.05    0.21 
  -7   6   2    2.45    0.33 
   6  -6  -2    1.53    0.18 
  -6   6   2    1.49    0.27 
   5  -6  -2   12.03    0.24 
  -5   6   2   13.10    0.51 
   4  -6  -2   20.87    0.31 
  -4   6   2   22.97    0.47 
   3  -6  -2   10.83    0.18 
  -3   6   2   11.89    0.26 
   2  -6  -2   28.16    0.32 
  -2   6   2   28.86    0.40 
   1  -6  -2    6.92    0.31 
  -1   6   2    7.91    0.35 
   0  -6  -2   15.48    0.30 
   0   6   2   14.35    0.30 
  -1  -6  -2  155.94    2.21 
   1   6   2  157.39    1.96 
  -2  -6  -2   27.45    0.30 
   2   6   2   26.81    0.27 
  -3  -6  -2    0.05    0.04 
   3   6   2    0.08    0.03 
  -4  -6  -2    2.09    0.08 
   4   6   2    2.06    0.06 
  -5  -6  -2   46.30    1.59 
   5   6   2   42.73    0.46 
  -6  -6  -2   12.17    0.46 
   6   6   2   11.18    0.19 
  -7  -6  -2    4.04    0.59 
   7   6   2    3.97    0.13 
  -8  -6  -2    0.06    0.33 
   8   6   2    0.00    0.13 
  -9  -6  -2    2.95    0.58 
   9   6   2    3.57    0.30 
 -10  -6  -2    1.86    0.53 
  10   6   2    1.74    0.21 
   8  -7  -2    0.75    0.33 
  -8   7   2    0.12    0.28 
   7  -7  -2    6.47    0.38 
  -7   7   2    6.90    0.46 
   6  -7  -2    9.01    0.40 
  -6   7   2    9.77    0.47 
   5  -7  -2    2.81    0.15 
  -5   7   2    2.73    0.31 
   4  -7  -2    0.21    0.09 
  -4   7   2    0.22    0.12 
   3  -7  -2   34.48    0.38 
  -3   7   2   36.17    0.62 
   2  -7  -2   31.93    0.44 
  -2   7   2   31.74    0.43 
   1  -7  -2   10.02    0.24 
  -1   7   2   10.65    0.30 
   0  -7  -2   14.93    0.31 
   0   7   2   12.72    0.30 
  -1  -7  -2   19.64    0.36 
   1   7   2   19.57    0.30 
  -2  -7  -2   16.72    0.24 
   2   7   2   16.07    0.21 
  -3  -7  -2  100.79    0.90 
   3   7   2   95.18    0.69 
  -4  -7  -2    5.12    0.19 
   4   7   2    4.91    0.10 
  -5  -7  -2    1.08    0.11 
   5   7   2    1.04    0.07 
  -6  -7  -2    4.74    0.34 
   6   7   2    3.52    0.13 
  -7  -7  -2   21.79    0.68 
   7   7   2   18.76    0.32 
  -8  -7  -2    1.48    0.47 
   8   7   2    1.55    0.10 
  -9  -7  -2    0.21    0.43 
   9   7   2    0.20    0.16 
 -10  -7  -2    0.00    0.45 
  10   7   2    0.06    0.16 
  11   7   2    1.32    0.20 
   7  -8  -2    0.52    0.25 
  -7   8   2    0.29    0.24 
   6  -8  -2    1.49    0.24 
  -6   8   2    1.47    0.27 
   5  -8  -2   12.98    0.31 
  -5   8   2   14.68    0.55 
   4  -8  -2   12.77    0.30 
  -4   8   2   13.86    0.37 
   3  -8  -2    1.73    0.12 
  -3   8   2    1.56    0.16 
   2  -8  -2    1.09    0.19 
  -2   8   2    0.70    0.15 
   1  -8  -2   71.69    1.22 
  -1   8   2   76.94    1.38 
   0  -8  -2   31.93    0.60 
   0   8   2   27.22    0.59 
  -1  -8  -2    6.60    0.30 
   1   8   2    6.70    0.24 
  -2  -8  -2    1.49    0.10 
   2   8   2    1.30    0.14 
  -3  -8  -2   22.86    0.32 
   3   8   2   21.28    0.22 
  -4  -8  -2   13.18    0.32 
   4   8   2   12.38    0.20 
  -5  -8  -2   46.16    1.10 
   5   8   2   42.45    0.47 
  -6  -8  -2    0.11    0.10 
   6   8   2    0.07    0.08 
  -7  -8  -2    1.44    0.26 
   7   8   2    1.67    0.12 
  -8  -8  -2    3.69    0.64 
   8   8   2    2.76    0.19 
  -9  -8  -2    9.59    0.94 
   9   8   2    6.72    0.44 
 -10  -8  -2    0.00    0.42 
  10   8   2    0.00    0.17 
  11   8   2    0.13    0.51 
   6  -9  -2    1.12    0.28 
  -6   9   2    1.18    0.33 
   5  -9  -2    1.22    0.18 
  -5   9   2    1.10    0.29 
   4  -9  -2    5.88    0.30 
  -4   9   2    6.09    0.35 
   3  -9  -2   20.70    0.37 
  -3   9   2   22.68    0.50 
   2  -9  -2   13.68    0.38 
  -2   9   2   14.44    0.41 
   1  -9  -2    0.10    0.16 
  -1   9   2    0.38    0.17 
   0  -9  -2    4.34    0.22 
   0   9   2    4.34    0.21 
  -1  -9  -2   77.44    1.39 
   1   9   2   78.06    1.19 
  -2  -9  -2   17.18    0.32 
   2   9   2   15.66    0.38 
  -3  -9  -2    2.56    0.14 
   3   9   2    2.21    0.10 
  -4  -9  -2    1.04    0.14 
   4   9   2    0.71    0.08 
  -5  -9  -2   16.24    0.62 
   5   9   2   13.99    0.22 
  -6  -9  -2    7.19    0.41 
   6   9   2    6.83    0.25 
  -7  -9  -2   15.33    0.47 
   7   9   2   13.93    0.32 
  -8  -9  -2    0.57    0.16 
   8   9   2    0.36    0.12 
  -9  -9  -2    1.94    0.62 
   9   9   2    1.30    0.15 
 -10  -9  -2    1.33    0.61 
  10   9   2    1.31    0.27 
   6 -10  -2    5.69    0.76 
  -6  10   2    4.90    0.65 
   5 -10  -2    5.23    0.32 
  -5  10   2    4.83    0.49 
   4 -10  -2    0.73    0.20 
  -4  10   2    0.87    0.21 
   3 -10  -2    5.79    0.32 
  -3  10   2    6.06    0.32 
   2 -10  -2   13.64    0.56 
  -2  10   2   17.08    0.68 
   1 -10  -2   26.13    0.67 
  -1  10   2   26.01    0.69 
   0 -10  -2   10.18    0.35 
   0  10   2    8.17    0.35 
  -1 -10  -2    0.00    0.17 
   1  10   2    0.49    0.16 
  -2 -10  -2    7.96    0.24 
   2  10   2    7.27    0.22 
  -3 -10  -2   73.87    0.96 
   3  10   2   69.84    0.64 
  -4 -10  -2    5.33    0.27 
   4  10   2    5.07    0.18 
  -5 -10  -2    0.26    0.20 
   5  10   2    0.21    0.07 
  -6 -10  -2    3.18    0.28 
   6  10   2    3.28    0.21 
  -7 -10  -2    7.72    0.39 
   7  10   2    7.11    0.27 
  -8 -10  -2    3.71    0.30 
   8  10   2    2.95    0.24 
  -9 -10  -2    4.40    0.37 
   9  10   2    3.66    0.25 
 -10 -10  -2    0.91    0.21 
  10  10   2    0.65    0.25 
   5 -11  -2    7.01    0.55 
  -5  11   2    7.32    0.77 
   4 -11  -2    8.19    0.41 
  -4  11   2    8.97    0.60 
   3 -11  -2    4.64    0.35 
  -3  11   2    6.22    0.40 
   2 -11  -2    0.27    0.31 
  -2  11   2    0.44    0.35 
   1 -11  -2   12.71    0.56 
  -1  11   2   11.61    0.58 
   0 -11  -2   20.02    0.63 
   0  11   2   17.26    0.61 
  -1 -11  -2   22.73    0.70 
   1  11   2   21.57    0.65 
  -2 -11  -2    3.17    0.42 
   2  11   2    3.43    0.37 
  -3 -11  -2    1.36    0.16 
   3  11   2    1.31    0.11 
  -4 -11  -2    9.07    0.30 
   4  11   2    8.51    0.24 
  -5 -11  -2   44.89    1.01 
   5  11   2   41.76    0.51 
  -6 -11  -2    1.04    0.23 
   6  11   2    1.01    0.15 
  -7 -11  -2    0.11    0.18 
   7  11   2    0.07    0.12 
  -8 -11  -2    3.88    0.36 
   8  11   2    3.37    0.27 
  -9 -11  -2    2.51    0.37 
   9  11   2    2.39    0.22 
 -10 -11  -2    1.27    0.29 
  10  11   2    1.10    0.20 
 -11 -11  -2    0.70    0.64 
   4 -12  -2    1.29    0.36 
  -4  12   2    0.95    0.38 
   3 -12  -2   12.88    0.74 
  -3  12   2   12.23    0.60 
   2 -12  -2    9.69    0.87 
  -2  12   2   11.66    0.76 
   1 -12  -2    4.63    0.39 
  -1  12   2    4.89    0.41 
   0 -12  -2    0.27    0.14 
   0  12   2    0.00    0.14 
  -1 -12  -2   17.14    0.59 
   1  12   2   14.60    0.54 
  -2 -12  -2   14.02    0.71 
   2  12   2   15.49    0.55 
  -3 -12  -2   13.77    0.41 
   3  12   2   12.18    0.28 
  -4 -12  -2    0.38    0.14 
   4  12   2    0.11    0.11 
  -5 -12  -2    1.13    0.23 
   5  12   2    1.36    0.13 
  -6 -12  -2    7.29    0.47 
   6  12   2    6.52    0.31 
  -7 -12  -2   21.67    0.73 
   7  12   2   18.82    0.47 
  -8 -12  -2    0.24    0.21 
   8  12   2    0.05    0.12 
  -9 -12  -2    0.08    0.24 
   9  12   2    0.35    0.16 
 -10 -12  -2    2.27    0.39 
  10  12   2    1.84    0.54 
   3 -13  -2    0.02    0.29 
  -3  13   2    0.00    0.33 
   2 -13  -2    3.05    1.06 
  -2  13   2    3.07    0.83 
   1 -13  -2   13.64    0.93 
  -1  13   2   15.58    0.93 
   0 -13  -2    9.37    0.60 
   0  13   2    8.99    0.58 
  -1 -13  -2    2.25    0.42 
   1  13   2    2.10    0.39 
  -2 -13  -2    0.00    0.36 
   2  13   2    0.27    0.30 
  -3 -13  -2   15.53    0.46 
   3  13   2   14.58    0.42 
  -4 -13  -2   10.56    0.44 
   4  13   2    9.24    0.35 
  -5 -13  -2    6.11    0.42 
   5  13   2    5.20    0.24 
  -6 -13  -2    0.25    0.21 
   6  13   2    0.25    0.17 
  -7 -13  -2    0.44    0.24 
   7  13   2    0.63    0.18 
  -8 -13  -2    3.88    0.36 
   8  13   2    4.11    0.31 
  -9 -13  -2    8.13    0.56 
   1 -14  -2    0.00    0.60 
  -1  14   2    0.45    0.61 
   0 -14  -2    3.70    0.59 
   0  14   2    6.29    0.58 
  -1 -14  -2   15.23    0.99 
   1  14   2   15.91    0.90 
  -2 -14  -2    5.33    0.80 
   2  14   2    5.84    0.85 
  -3 -14  -2    0.35    0.22 
   3  14   2    0.46    0.21 
  -4 -14  -2    1.31    0.28 
   4  14   2    1.00    0.20 
  -5 -14  -2   10.91    0.62 
   5  14   2   10.65    0.38 
  -6 -14  -2    4.02    0.39 
   6  14   2    3.81    0.38 
  -7 -14  -2    1.73    0.31 
   7  14   2    1.68    0.25 
  -8 -14  -2    0.26    0.25 
   8  14   2    0.92    0.34 
  -9 -14  -2    0.41    0.69 
   0 -15  -2    1.39    4.39 
   0  15   2    1.35    4.18 
  -1 -15  -2    0.86    0.64 
   1  15   2    1.51    0.59 
  -2 -15  -2    5.19    0.88 
   2  15   2    4.18    1.06 
  -3 -15  -2   11.27    0.61 
   3  15   2    9.08    0.66 
  -4 -15  -2    1.96    0.38 
   4  15   2    1.99    0.31 
  -5 -15  -2    0.15    0.27 
   5  15   2    0.00    0.18 
  -6 -15  -2    1.15    0.35 
   6  15   2    1.82    0.49 
  -7 -15  -2    6.02    0.70 
   7  15   2    4.07    0.60 
  -8 -15  -2    0.77    0.68 
   8  15   2    1.69    0.43 
  -3 -16  -2    1.54    0.67 
   4  16   2    3.94    0.63 
  -5 -16  -2    4.38    0.90 
   5  16   2    4.91    0.62 
   5  14  -3    1.68    0.46 
  -5 -14   3    1.71    0.46 
   4  14  -3    2.16    0.52 
  -4 -14   3    2.01    0.76 
  -3 -14   3    7.96    1.06 
   8  13  -3    0.71    0.33 
  -8 -13   3    0.82    0.60 
   7  13  -3    4.33    0.61 
  -7 -13   3    6.12    0.69 
   6  13  -3    2.41    0.54 
  -6 -13   3    2.81    0.50 
   5  13  -3    3.35    0.34 
  -5 -13   3    4.14    0.58 
   4  13  -3    4.00    0.38 
  -4 -13   3    5.03    0.63 
   3  13  -3    3.04    0.43 
  -3 -13   3    3.05    0.41 
   2  13  -3    5.45    1.19 
  -2 -13   3    5.24    1.38 
   1  13  -3    3.79    1.12 
  -1 -13   3    6.51    1.29 
   0  13  -3    0.00    0.36 
   0 -13   3    0.22    0.37 
   8  12  -3    0.00    0.25 
  -8 -12   3    0.21    0.26 
   7  12  -3    0.05    0.17 
  -7 -12   3    0.19    0.26 
   6  12  -3    3.44    0.39 
  -6 -12   3    3.14    0.41 
   5  12  -3    8.10    0.36 
  -5 -12   3    9.35    0.72 
   4  12  -3    3.07    0.27 
  -4 -12   3    2.92    0.39 
   3  12  -3    3.73    0.38 
  -3 -12   3    3.53    0.34 
   2  12  -3   15.29    1.09 
  -2 -12   3    8.76    1.21 
   1  12  -3    4.60    0.76 
  -1 -12   3    4.40    0.78 
   0  12  -3    8.02    0.84 
   0 -12   3    7.21    0.85 
  -1  12  -3    5.47    1.21 
   1 -12   3    6.34    1.11 
  -9 -11   3    1.71    0.39 
   8  11  -3    6.38    0.31 
  -8 -11   3    7.63    0.54 
   7  11  -3    4.06    0.28 
  -7 -11   3    3.41    0.38 
   6  11  -3    0.10    0.10 
  -6 -11   3    0.19    0.23 
   5  11  -3    0.07    0.10 
  -5 -11   3    0.09    0.21 
   4  11  -3    9.46    0.33 
  -4 -11   3   10.15    0.48 
   3  11  -3   12.63    0.33 
  -3 -11   3   13.44    0.47 
   2  11  -3    3.87    0.40 
  -2 -11   3    4.02    0.48 
   1  11  -3    2.38    0.42 
  -1 -11   3    1.38    0.38 
   0  11  -3   17.11    0.90 
   0 -11   3   15.86    0.93 
  -1  11  -3    5.76    0.73 
   1 -11   3    7.52    0.77 
  -2  11  -3    8.32    1.30 
   2 -11   3    6.11    1.19 
  -3  11  -3    1.39    0.57 
   3 -11   3    1.00    0.35 
 -10 -10   3    0.39    0.28 
   9  10  -3    1.94    0.28 
  -9 -10   3    2.04    0.36 
   8  10  -3    0.13    0.13 
  -8 -10   3    0.01    0.21 
   7  10  -3    6.63    0.28 
  -7 -10   3    6.68    0.48 
   6  10  -3   13.95    0.32 
  -6 -10   3   15.60    0.64 
   5  10  -3    6.59    0.22 
  -5 -10   3    6.02    0.45 
   4  10  -3    0.55    0.11 
  -4 -10   3    0.84    0.18 
   3  10  -3    1.18    0.12 
  -3 -10   3    1.68    0.23 
   2  10  -3   21.88    0.77 
  -2 -10   3   20.51    1.01 
   1  10  -3   11.17    0.58 
  -1 -10   3   12.99    0.57 
   0  10  -3    3.24    0.32 
   0 -10   3    3.05    0.33 
  -1  10  -3    1.66    0.38 
   1 -10   3    0.31    0.42 
  -2  10  -3   21.63    1.14 
   2 -10   3   15.41    1.12 
  -3  10  -3    5.71    0.48 
   3 -10   3    5.13    0.53 
  -4  10  -3    5.08    0.64 
   4 -10   3    4.81    0.51 
 -10  -9   3    0.32    0.25 
   9   9  -3    5.16    0.37 
  -9  -9   3    6.11    0.51 
   8   9  -3    1.04    0.23 
  -8  -9   3    1.27    0.26 
   7   9  -3    2.44    0.18 
  -7  -9   3    2.32    0.30 
   6   9  -3    0.37    0.09 
  -6  -9   3    0.66    0.22 
   5   9  -3   16.33    0.30 
  -5  -9   3   16.51    0.60 
   4   9  -3   24.38    0.40 
  -4  -9   3   26.56    0.52 
   3   9  -3    7.68    0.22 
  -3  -9   3    8.61    0.31 
   2   9  -3    2.93    0.45 
  -2  -9   3    4.60    0.46 
   1   9  -3    3.86    0.36 
  -1  -9   3    5.27    0.39 
   0   9  -3   25.34    0.86 
   0  -9   3   30.10    0.88 
  -1   9  -3    9.99    0.56 
   1  -9   3   10.27    0.59 
  -2   9  -3    1.27    0.46 
   2  -9   3    1.70    0.41 
  -3   9  -3    0.23    0.17 
   3  -9   3    0.00    0.19 
  -4   9  -3   16.23    0.93 
   4  -9   3   15.92    0.53 
  -5   9  -3    3.84    0.59 
   5  -9   3    3.30    0.40 
 -11  -8   3    4.48    0.45 
  10   8  -3    0.10    0.14 
 -10  -8   3    0.01    0.20 
   9   8  -3    0.17    0.15 
  -9  -8   3    0.49    0.24 
   8   8  -3    2.81    0.28 
  -8  -8   3    3.21    0.32 
   7   8  -3   13.18    0.30 
  -7  -8   3   14.54    0.53 
   6   8  -3    1.49    0.10 
  -6  -8   3    1.49    0.18 
   5   8  -3    1.55    0.11 
  -5  -8   3    1.84    0.20 
   4   8  -3    3.61    0.16 
  -4  -8   3    4.07    0.20 
   3   8  -3   31.23    0.42 
  -3  -8   3   33.75    0.54 
   2   8  -3   32.74    0.72 
  -2  -8   3   33.37    0.76 
   1   8  -3    5.85    0.29 
  -1  -8   3    6.48    0.31 
   0   8  -3    9.36    0.41 
   0  -8   3   10.03    0.41 
  -1   8  -3    8.16    0.38 
   1  -8   3    9.42    0.37 
  -2   8  -3   29.09    0.97 
   2  -8   3   25.17    0.79 
  -3   8  -3    2.92    0.25 
   3  -8   3    2.74    0.18 
  -4   8  -3    0.65    0.27 
   4  -8   3    0.46    0.17 
  -5   8  -3    0.80    0.39 
   5  -8   3    0.73    0.19 
  -6   8  -3   10.27    0.83 
   6  -8   3    7.93    0.81 
 -11  -7   3    0.87    0.23 
  10   7  -3    1.50    0.18 
 -10  -7   3    1.75    0.27 
   9   7  -3    8.93    0.37 
  -9  -7   3   10.32    0.49 
   8   7  -3    0.44    0.16 
  -8  -7   3    0.98    0.22 
   7   7  -3    1.65    0.13 
  -7  -7   3    2.37    0.25 
   6   7  -3   13.07    0.24 
  -6  -7   3   14.61    0.39 
   5   7  -3   26.68    0.37 
  -5  -7   3   28.58    0.58 
   4   7  -3    0.69    0.08 
  -4  -7   3    0.80    0.11 
   3   7  -3    0.09    0.06 
  -3  -7   3    0.05    0.07 
   2   7  -3   10.77    0.62 
  -2  -7   3   14.59    0.65 
   1   7  -3   43.14    0.89 
  -1  -7   3   43.83    0.98 
   0   7  -3   31.68    0.76 
   0  -7   3   33.87    0.77 
  -1   7  -3    2.38    0.31 
   1  -7   3    2.90    0.29 
  -2   7  -3   14.92    0.46 
   2  -7   3   16.37    0.46 
  -3   7  -3    8.82    0.34 
   3  -7   3    9.16    0.26 
  -4   7  -3   19.21    0.54 
   4  -7   3   17.28    0.40 
  -5   7  -3    0.66    0.27 
   5  -7   3    0.45    0.13 
  -6   7  -3    0.17    0.27 
   6  -7   3    0.05    0.24 
  -7   7  -3    1.53    0.46 
   7  -7   3    1.39    0.43 
 -11  -6   3    0.72    0.21 
  10   6  -3    0.15    0.11 
 -10  -6   3    0.39    0.18 
   9   6  -3    3.54    0.23 
  -9  -6   3    4.01    0.33 
   8   6  -3    5.27    0.26 
  -8  -6   3    6.44    0.35 
   7   6  -3   19.36    0.32 
  -7  -6   3   20.35    0.53 
   6   6  -3    4.18    0.15 
  -6  -6   3    4.89    0.22 
   5   6  -3    7.39    0.16 
  -5  -6   3    8.06    0.28 
   4   6  -3   36.13    0.40 
  -4  -6   3   39.51    0.50 
   3   6  -3   40.63    0.38 
  -3  -6   3   44.48    0.48 
   2   6  -3    0.00    0.26 
  -2  -6   3    0.33    0.18 
   1   6  -3    1.06    0.20 
  -1  -6   3    1.70    0.21 
   0   6  -3   26.38    0.65 
   0  -6   3   30.09    0.66 
  -1   6  -3   45.02    0.96 
   1  -6   3   42.33    0.91 
  -2   6  -3   25.62    0.74 
   2  -6   3   23.04    0.73 
  -3   6  -3    0.12    0.11 
   3  -6   3    0.17    0.08 
  -4   6  -3   15.75    0.41 
   4  -6   3   14.73    0.32 
  -5   6  -3    7.26    0.49 
   5  -6   3    7.16    0.24 
  -6   6  -3    8.32    0.55 
   6  -6   3    8.60    0.35 
  -7   6  -3    0.11    0.26 
   7  -6   3    0.08    0.20 
 -11  -5   3    2.46    0.29 
  10   5  -3    0.58    0.17 
 -10  -5   3    0.77    0.18 
   9   5  -3    1.10    0.14 
  -9  -5   3    1.16    0.18 
   8   5  -3    4.16    0.23 
  -8  -5   3    4.87    0.33 
   7   5  -3   10.04    0.44 
  -7  -5   3   11.72    0.41 
   6   5  -3   13.65    0.24 
  -6  -5   3   15.47    0.34 
   5   5  -3   27.15    0.30 
  -5  -5   3   29.16    0.51 
   4   5  -3   18.45    0.21 
  -4  -5   3   20.03    0.30 
   3   5  -3   23.28    0.24 
  -3  -5   3   25.37    0.31 
   2   5  -3   71.23    1.27 
  -2  -5   3   72.48    0.95 
   1   5  -3   45.80    0.73 
  -1  -5   3   45.13    0.68 
   0   5  -3    3.59    0.16 
   0  -5   3    3.89    0.16 
  -1   5  -3    5.85    0.21 
   1  -5   3    6.38    0.20 
  -2   5  -3   36.06    0.64 
   2  -5   3   37.90    0.63 
  -3   5  -3   25.49    0.44 
   3  -5   3   24.08    0.36 
  -4   5  -3   10.42    0.31 
   4  -5   3   10.14    0.25 
  -5   5  -3    0.36    0.21 
   5  -5   3    0.58    0.10 
  -6   5  -3   11.18    0.57 
   6  -5   3   10.59    0.29 
  -7   5  -3    5.03    0.47 
   7  -5   3    4.97    0.30 
  -8   5  -3    2.99    0.41 
   8  -5   3    2.52    0.43 
  11   4  -3    0.85    0.59 
 -11  -4   3    0.64    0.49 
  10   4  -3    1.38    0.14 
 -10  -4   3    1.73    0.21 
   9   4  -3    7.75    0.28 
  -9  -4   3    8.37    0.46 
   8   4  -3    0.63    0.11 
  -8  -4   3    0.74    0.16 
   7   4  -3    0.89    0.12 
  -7  -4   3    1.33    0.31 
   6   4  -3   22.55    0.29 
  -6  -4   3   25.58    0.41 
   5   4  -3   22.80    0.24 
  -5  -4   3   25.40    0.42 
   4   4  -3   29.28    0.29 
  -4  -4   3   31.76    0.31 
   3   4  -3   10.83    0.17 
  -3  -4   3   28.80    0.29 
   2   4  -3   54.62    0.83 
  -2  -4   3   55.86    0.69 
   1   4  -3   47.93    0.93 
  -1  -4   3   53.00    0.86 
   0   4  -3   84.67    1.33 
   0  -4   3   93.03    1.34 
  -1   4  -3   33.30    0.67 
   1  -4   3   31.19    0.74 
  -2   4  -3   12.12    0.25 
   2  -4   3   11.88    0.27 
  -3   4  -3    9.10    0.20 
   3  -4   3    8.58    0.19 
  -4   4  -3   26.79    0.43 
   4  -4   3   26.11    0.38 
  -5   4  -3    9.84    0.46 
   5  -4   3    8.85    0.21 
  -6   4  -3    4.33    0.38 
   6  -4   3    3.51    0.18 
  -7   4  -3    1.38    0.30 
   7  -4   3    1.71    0.18 
  -8   4  -3    5.82    0.62 
   8  -4   3    5.33    0.30 
  11   3  -3    3.09    0.84 
 -11  -3   3    2.30    0.71 
  10   3  -3    0.13    0.09 
 -10  -3   3    0.55    0.48 
   9   3  -3    4.31    0.21 
  -9  -3   3    4.76    0.41 
   8   3  -3    6.84    0.25 
  -8  -3   3    8.12    0.41 
   7   3  -3   17.16    0.39 
   6   3  -3    0.28    0.06 
  -6  -3   3    0.48    0.11 
   5   3  -3    0.09    0.02 
  -5  -3   3    0.09    0.04 
   4   3  -3   77.73    0.57 
  -4  -3   3   85.71    0.61 
   3   3  -3   36.01    0.32 
  -3  -3   3   38.14    0.34 
   2   3  -3   45.12    0.43 
  -2  -3   3   45.78    0.44 
   1   3  -3   15.74    0.23 
  -1  -3   3   16.40    0.22 
   0   3  -3   92.28    1.40 
   0  -3   3   98.62    1.41 
  -1   3  -3   54.92    0.85 
   1  -3   3   58.88    0.94 
  -2   3  -3   75.17    0.96 
   2  -3   3   72.88    1.29 
  -3   3  -3   11.36    0.20 
   3  -3   3   10.92    0.16 
  -4   3  -3   16.97    0.31 
   4  -3   3   15.66    0.25 
  -5   3  -3    7.81    0.31 
   5  -3   3    7.06    0.16 
  -6   3  -3   14.64    0.55 
   6  -3   3   13.76    0.27 
  -7   3  -3    2.53    0.31 
   7  -3   3    2.14    0.17 
  -8   3  -3    0.91    0.27 
   8  -3   3    0.71    0.16 
  -9   3  -3    1.55    0.40 
 -11  -2   3    2.36    0.61 
  10   2  -3    2.81    0.32 
 -10  -2   3    4.02    0.75 
   9   2  -3    6.27    0.24 
   8   2  -3    2.11    0.16 
  -8  -2   3    2.32    0.31 
   7   2  -3   12.31    0.26 
  -7  -2   3   13.30    0.51 
   6   2  -3   25.03    0.35 
  -6  -2   3   27.78    0.62 
   5   2  -3   28.45    0.21 
  -5  -2   3   31.27    0.65 
   4   2  -3    0.09    0.02 
  -4  -2   3    0.11    0.03 
   3   2  -3    2.65    0.07 
  -3  -2   3    2.80    0.07 
   2   2  -3  195.04    1.30 
  -2  -2   3  206.80    1.57 
   1   2  -3   35.05    0.42 
  -1  -2   3   32.55    0.47 
   0   2  -3   43.62    0.68 
   0  -2   3   44.21    0.69 
  -1   2  -3    2.76    0.22 
   1  -2   3    2.97    0.23 
  -2   2  -3  104.44    0.99 
   2  -2   3   99.64    1.07 
  -3   2  -3   38.01    0.40 
   3  -2   3   36.17    0.31 
  -4   2  -3   40.91    0.50 
   4  -2   3   37.37    0.40 
  -5   2  -3    1.27    0.15 
   5  -2   3    1.00    0.09 
  -6   2  -3   14.42    0.40 
   6  -2   3   13.31    0.25 
  -7   2  -3    3.92    0.33 
   7  -2   3    4.65    0.20 
  -8   2  -3    5.27    0.42 
   8  -2   3    4.93    0.35 
  -9   2  -3    0.31    0.29 
   9  -2   3    0.24    0.19 
 -11  -1   3    0.00    0.51 
  10   1  -3    0.55    0.23 
 -10  -1   3    1.47    0.57 
   9   1  -3    5.38    0.22 
  -9  -1   3    6.86    0.82 
   8   1  -3    6.25    0.24 
   7   1  -3   10.47    0.24 
  -7  -1   3   11.24    0.53 
   6   1  -3   11.93    0.22 
  -6  -1   3   12.75    0.31 
   5   1  -3   33.97    0.31 
  -5  -1   3   38.23    0.54 
   4   1  -3   65.80    0.43 
  -4  -1   3   70.93    0.61 
   3   1  -3   26.54    0.21 
  -3  -1   3   28.20    0.24 
   2   1  -3    2.39    0.06 
  -2  -1   3    2.72    0.08 
   1   1  -3   18.29    0.38 
  -1  -1   3   20.05    0.30 
   0   1  -3  301.62    3.96 
   0  -1   3  301.08    3.97 
  -1   1  -3   24.33    0.47 
   1  -1   3   21.57    0.42 
  -2   1  -3   25.63    0.30 
   2  -1   3   24.61    0.28 
  -3   1  -3    1.46    0.07 
   3  -1   3    0.78    0.06 
  -4   1  -3   75.67    0.66 
   4  -1   3   70.76    0.54 
  -5   1  -3   16.35    0.37 
   5  -1   3   14.82    0.21 
  -6   1  -3   18.26    0.42 
   6  -1   3   16.48    0.30 
  -7   1  -3    0.07    0.15 
   7  -1   3    0.05    0.07 
  -8   1  -3    8.23    0.43 
   8  -1   3    7.52    0.40 
  -9   1  -3    1.61    0.33 
   9  -1   3    2.25    0.26 
 -10   1  -3    1.17    0.34 
 -11   0   3    1.99    0.69 
  10   0  -3    0.15    0.20 
 -10   0   3    0.00    0.45 
   9   0  -3    0.06    0.10 
  -9   0   3    0.00    0.41 
   8   0  -3    5.16    0.24 
  -8   0   3    6.03    0.73 
   7   0  -3   14.37    0.28 
  -7   0   3   15.28    0.66 
   6   0  -3   10.87    0.20 
  -6   0   3   11.84    0.53 
   5   0  -3   11.34    0.16 
  -5   0   3   12.36    0.29 
   4   0  -3   46.89    0.34 
  -4   0   3   51.85    0.44 
   3   0  -3   76.21    0.52 
  -3   0   3   82.35    0.62 
   2   0  -3  129.87    0.79 
  -2   0   3  138.80    1.02 
   1   0  -3    4.79    0.08 
  -1   0   3    4.86    0.09 
   0   0  -3    7.18    0.14 
   0   0   3    6.57    0.14 
  -1   0  -3   47.52    0.43 
   1   0   3   46.35    0.43 
  -2   0  -3  217.35    1.64 
   2   0   3  205.90    1.30 
  -3   0  -3    7.35    0.11 
   3   0   3    6.71    0.10 
  -4   0  -3    7.30    0.12 
   4   0   3    6.51    0.11 
  -5   0  -3    5.38    0.21 
   5   0   3    4.85    0.10 
  -6   0  -3   41.90    0.76 
   6   0   3   37.07    0.45 
  -7   0  -3    4.78    0.28 
   7   0   3    4.21    0.16 
  -8   0  -3    6.57    0.36 
   8   0   3    5.54    0.32 
  -9   0  -3    0.39    0.23 
   9   0   3    0.92    0.18 
 -10   0  -3    2.90    0.41 
  10  -1  -3    4.23    0.25 
 -10   1   3    5.50    0.43 
   9  -1  -3    4.20    0.26 
  -9   1   3    4.75    0.35 
   8  -1  -3    0.07    0.11 
  -8   1   3    0.03    0.11 
   7  -1  -3    1.48    0.12 
  -7   1   3    2.07    0.27 
   6  -1  -3   18.02    0.26 
  -6   1   3   20.30    0.78 
   5  -1  -3   25.80    0.30 
  -5   1   3   31.71    0.98 
   4  -1  -3   14.51    0.14 
  -4   1   3   15.39    0.21 
   3  -1  -3    7.67    0.09 
  -3   1   3    8.14    0.14 
   2  -1  -3  133.38    0.88 
  -2   1   3  140.45    1.06 
   1  -1  -3  133.36    0.97 
  -1   1   3  135.58    0.95 
   0  -1  -3  178.86    2.27 
   0   1   3  166.92    2.26 
  -1  -1  -3    2.51    0.08 
   1   1   3    2.31    0.06 
  -2  -1  -3   14.63    0.16 
   2   1   3   13.48    0.12 
  -3  -1  -3   53.26    0.39 
   3   1   3   50.10    0.41 
  -4  -1  -3   94.64    0.72 
   4   1   3   87.59    0.62 
  -5  -1  -3    1.00    0.09 
   5   1   3    0.71    0.03 
  -6  -1  -3    0.99    0.11 
   6   1   3    0.80    0.06 
  -7  -1  -3    5.06    0.28 
   7   1   3    4.83    0.22 
  -8  -1  -3   16.41    0.48 
   8   1   3   15.39    0.46 
  -9  -1  -3    0.95    0.23 
   9   1   3    0.61    0.16 
 -10  -1  -3    1.64    0.30 
  10   1   3    1.48    0.20 
  10  -2  -3    0.27    0.44 
 -10   2   3    0.10    0.23 
   9  -2  -3    2.59    0.23 
  -9   2   3    2.92    0.35 
   8  -2  -3   11.96    0.38 
  -8   2   3   13.86    0.56 
   7  -2  -3    7.86    0.24 
  -7   2   3    8.97    0.34 
   6  -2  -3    2.86    0.14 
  -6   2   3    2.98    0.19 
   5  -2  -3    9.94    0.14 
  -5   2   3   10.76    0.24 
   4  -2  -3   46.82    0.36 
  -4   2   3   51.02    0.48 
   3  -2  -3   42.71    0.31 
  -3   2   3   45.25    0.42 
   2  -2  -3    7.82    0.10 
  -2   2   3    8.15    0.13 
   1  -2  -3    3.14    0.07 
  -1   2   3    3.14    0.08 
   0  -2  -3  228.02    2.89 
   0   2   3  214.39    2.89 
  -1  -2  -3  129.35    0.90 
   1   2   3  125.04    0.87 
  -2  -2  -3   95.83    0.72 
   2   2   3   90.61    0.57 
  -3  -2  -3    8.75    0.10 
   3   2   3    8.58    0.10 
  -4  -2  -3   17.77    0.23 
   4   2   3   16.40    0.15 
  -5  -2  -3   34.48    0.70 
   5   2   3   31.87    0.26 
  -6  -2  -3   32.03    0.70 
   6   2   3   28.93    0.33 
  -7  -2  -3    0.20    0.23 
   7   2   3    0.13    0.09 
   8   2   3    0.04    0.10 
  -9  -2  -3    2.98    0.27 
   9   2   3    2.86    0.22 
 -10  -2  -3    5.02    0.39 
  10   2   3    4.39    0.26 
 -11  -2  -3    0.14    0.22 
 -10   3   3    0.61    0.30 
   9  -3  -3    0.14    0.14 
  -9   3   3    0.34    0.24 
   8  -3  -3    1.79    0.21 
  -8   3   3    1.98    0.25 
   7  -3  -3    8.98    0.28 
  -7   3   3    9.31    0.39 
   6  -3  -3   22.93    0.43 
  -6   3   3   26.61    0.62 
   5  -3  -3   11.52    0.19 
  -5   3   3   12.23    0.37 
   4  -3  -3   17.04    0.19 
  -4   3   3   17.87    0.27 
   3  -3  -3   33.67    0.31 
  -3   3   3   35.32    0.35 
   2  -3  -3   86.48    0.61 
  -2   3   3   90.11    0.69 
   1  -3  -3   38.18    0.32 
  -1   3   3   38.70    0.33 
   0  -3  -3    0.37    0.04 
   0   3   3    0.30    0.04 
  -1  -3  -3    2.44    0.07 
   1   3   3    2.43    0.06 
  -2  -3  -3  171.43    1.34 
   2   3   3  162.97    1.06 
  -3  -3  -3   68.94    0.56 
   3   3   3   64.49    0.48 
  -4  -3  -3   29.12    0.28 
   4   3   3   26.53    0.20 
  -5  -3  -3   12.86    0.36 
   5   3   3   11.04    0.13 
  -6  -3  -3   12.98    0.38 
   6   3   3   11.57    0.21 
  -7  -3  -3   15.92    0.76 
   7   3   3   13.78    0.28 
   8   3   3    7.00    0.25 
   9   3   3    0.57    0.12 
 -10  -3  -3    0.12    0.16 
  10   3   3    0.00    0.10 
 -11  -3  -3    1.81    0.44 
   9  -4  -3    4.97    0.34 
  -9   4   3    5.28    0.54 
   8  -4  -3    0.75    0.15 
  -8   4   3    0.95    0.23 
   7  -4  -3    0.21    0.11 
  -7   4   3    0.10    0.16 
   6  -4  -3    9.30    0.29 
  -6   4   3    9.99    0.41 
   5  -4  -3   20.52    0.29 
  -5   4   3   21.13    0.55 
   4  -4  -3   38.16    0.40 
  -4   4   3   40.70    0.54 
   3  -4  -3   10.69    0.15 
  -3   4   3   10.88    0.18 
   2  -4  -3   58.33    0.47 
  -2   4   3   60.00    0.51 
   1  -4  -3   65.74    0.67 
  -1   4   3   66.11    0.69 
   0  -4  -3  123.21    1.66 
   0   4   3  111.31    1.64 
  -1  -4  -3   11.83    0.15 
   1   4   3   11.62    0.14 
  -2  -4  -3    0.27    0.04 
   2   4   3    0.28    0.03 
  -3  -4  -3   19.27    0.25 
   3   4   3   18.08    0.15 
  -4  -4  -3   88.48    0.75 
   4   4   3   81.20    0.54 
  -5  -4  -3   25.85    0.45 
   5   4   3   23.72    0.23 
  -6  -4  -3    5.07    0.24 
   6   4   3    4.89    0.15 
   7   4   3    9.44    0.19 
   8   4   3    6.12    0.23 
   9   4   3    5.38    0.23 
 -10  -4  -3    1.25    0.25 
  10   4   3    1.01    0.13 
 -11  -4  -3    0.18    0.27 
   9  -5  -3    0.98    0.51 
  -9   5   3    1.24    0.38 
   8  -5  -3    6.13    0.31 
  -8   5   3    6.13    0.45 
   7  -5  -3    9.52    0.34 
  -7   5   3   11.01    0.51 
   6  -5  -3    0.56    0.13 
  -6   5   3    0.87    0.21 
   5  -5  -3    2.03    0.10 
  -5   5   3    2.27    0.24 
   4  -5  -3   29.07    0.36 
  -4   5   3   31.36    0.49 
   3  -5  -3   36.74    0.37 
  -3   5   3   38.23    0.42 
   2  -5  -3   47.16    0.42 
  -2   5   3   49.20    0.48 
   1  -5  -3    4.57    0.13 
  -1   5   3    4.43    0.13 
   0  -5  -3  120.25    1.66 
   0   5   3  111.73    1.64 
  -1  -5  -3   71.33    0.72 
   1   5   3   70.79    0.69 
  -2  -5  -3   92.17    0.71 
   2   5   3   88.24    0.62 
  -3  -5  -3    0.32    0.04 
   3   5   3    0.39    0.03 
  -4  -5  -3    2.22    0.09 
   4   5   3    1.81    0.05 
  -5  -5  -3   21.58    0.53 
   5   5   3   19.11    0.23 
  -6  -5  -3   34.71    0.74 
   6   5   3   31.50    0.40 
  -7  -5  -3    7.29    0.37 
   7   5   3    6.90    0.18 
  -8  -5  -3    0.41    0.15 
   8   5   3    0.27    0.09 
  -9  -5  -3    6.06    0.39 
   9   5   3    5.23    0.21 
 -10  -5  -3    2.82    0.36 
  10   5   3    2.24    0.17 
 -11  -5  -3    1.24    0.28 
  11   5   3    1.18    0.18 
   8  -6  -3    1.21    0.19 
  -8   6   3    1.31    0.30 
   7  -6  -3    3.34    0.25 
  -7   6   3    4.97    0.43 
   6  -6  -3   17.11    0.45 
  -6   6   3   17.37    0.62 
   5  -6  -3   15.26    0.26 
  -5   6   3   17.24    0.57 
   4  -6  -3    0.10    0.07 
  -4   6   3    0.07    0.09 
   3  -6  -3   10.44    0.17 
  -3   6   3   11.23    0.23 
   2  -6  -3   58.17    0.68 
  -2   6   3   61.24    0.58 
   1  -6  -3   46.24    0.62 
  -1   6   3   45.19    0.63 
   0  -6  -3   39.55    0.63 
   0   6   3   36.15    0.63 
  -1  -6  -3    0.31    0.10 
   1   6   3    0.00    0.12 
  -2  -6  -3  120.73    0.92 
   2   6   3  112.88    0.79 
  -3  -6  -3   52.97    0.48 
   3   6   3   49.52    0.40 
  -4  -6  -3   46.06    0.43 
   4   6   3   43.07    0.36 
  -5  -6  -3    1.48    0.25 
   5   6   3    0.90    0.07 
  -6  -6  -3    3.41    0.34 
   6   6   3    3.07    0.11 
   7   6   3   11.40    0.23 
   8   6   3    9.20    0.21 
   9   6   3    1.42    0.13 
 -10  -6  -3    0.21    0.45 
  10   6   3    0.02    0.14 
  11   6   3    2.47    0.22 
   8  -7  -3    1.39    0.37 
  -8   7   3    2.22    0.33 
   7  -7  -3    3.46    0.27 
  -7   7   3    4.27    0.42 
   6  -7  -3    5.61    0.31 
  -6   7   3    5.31    0.44 
   5  -7  -3    8.88    0.23 
  -5   7   3    9.67    0.49 
   4  -7  -3   30.62    0.42 
  -4   7   3   33.06    0.56 
   3  -7  -3   17.91    0.26 
  -3   7   3   19.46    0.44 
   2  -7  -3    1.00    0.14 
  -2   7   3    0.78    0.10 
   1  -7  -3   28.30    0.58 
  -1   7   3   27.21    0.65 
   0  -7  -3   83.89    1.18 
   0   7   3   76.44    1.17 
  -1  -7  -3   28.06    0.63 
   1   7   3   25.46    0.60 
  -2  -7  -3   20.97    0.26 
   2   7   3   19.86    0.25 
  -3  -7  -3    2.82    0.11 
   3   7   3    2.64    0.09 
  -4  -7  -3   76.19    0.85 
   4   7   3   69.44    0.55 
  -5  -7  -3   26.40    0.46 
   5   7   3   24.66    0.26 
  -6  -7  -3   16.43    0.58 
   6   7   3   14.67    0.26 
  -7  -7  -3    3.09    0.31 
   7   7   3    2.11    0.13 
  -8  -7  -3    2.31    0.55 
   8   7   3    2.42    0.14 
  -9  -7  -3    4.28    0.71 
   9   7   3    5.11    0.19 
 -10  -7  -3    2.90    0.67 
  10   7   3    1.91    0.26 
  11   7   3    0.52    0.53 
   7  -8  -3    3.85    0.39 
  -7   8   3    3.84    0.38 
   6  -8  -3    3.74    0.31 
  -6   8   3    4.14    0.36 
   5  -8  -3    2.48    0.15 
  -5   8   3    3.22    0.31 
   4  -8  -3   12.54    0.30 
  -4   8   3   13.73    0.39 
   3  -8  -3   16.33    0.26 
  -3   8   3   16.90    0.39 
   2  -8  -3   44.05    0.61 
  -2   8   3   43.64    0.58 
   1  -8  -3   14.18    0.31 
  -1   8   3   13.42    0.34 
   0  -8  -3    5.52    0.21 
   0   8   3    4.77    0.21 
  -1  -8  -3   35.91    0.66 
   1   8   3   34.81    0.58 
  -2  -8  -3   75.73    0.69 
   2   8   3   72.63    0.76 
  -3  -8  -3    8.30    0.18 
   3   8   3    7.39    0.12 
  -4  -8  -3    7.82    0.23 
   4   8   3    7.70    0.16 
  -5  -8  -3    7.10    0.30 
   5   8   3    6.19    0.14 
  -6  -8  -3   36.25    0.73 
   6   8   3   31.87    0.51 
  -7  -8  -3   10.78    0.52 
   7   8   3    9.61    0.25 
  -8  -8  -3    3.20    0.64 
   8   8   3    3.61    0.21 
  -9  -8  -3    1.56    0.56 
   9   8   3    2.08    0.16 
 -10  -8  -3    1.66    0.62 
  10   8   3    1.28    0.25 
 -11  -8  -3    0.85    0.56 
  11   8   3    2.01    0.71 
   7  -9  -3    0.31    0.30 
  -7   9   3    0.31    0.37 
   6  -9  -3   13.39    0.62 
  -6   9   3   14.38    0.70 
   5  -9  -3    4.76    0.25 
  -5   9   3    5.27    0.41 
   4  -9  -3    6.26    0.28 
  -4   9   3    6.60    0.31 
   3  -9  -3    0.31    0.10 
  -3   9   3    0.35    0.14 
   2  -9  -3   25.56    0.60 
  -2   9   3   24.51    0.60 
   1  -9  -3   22.15    0.49 
  -1   9   3   20.25    0.53 
   0  -9  -3   42.80    0.79 
   0   9   3   38.78    0.78 
  -1  -9  -3    6.81    0.35 
   1   9   3    6.65    0.30 
  -2  -9  -3    9.96    0.24 
   2   9   3    9.68    0.21 
  -3  -9  -3   31.22    0.39 
   3   9   3   29.12    0.31 
  -4  -9  -3   45.99    0.64 
   4   9   3   42.24    0.47 
  -5  -9  -3    0.77    0.17 
   5   9   3    0.68    0.07 
  -6  -9  -3    2.12    0.22 
   6   9   3    2.04    0.16 
  -7  -9  -3    6.67    0.31 
   7   9   3    5.55    0.22 
  -8  -9  -3   13.08    0.50 
   8   9   3   11.67    0.36 
  -9  -9  -3    4.13    0.74 
   9   9   3    3.45    0.23 
 -10  -9  -3    0.20    0.52 
  10   9   3    0.65    0.23 
 -11  -9  -3    0.58    0.53 
   6 -10  -3    0.33    0.35 
  -6  10   3    0.00    0.33 
   5 -10  -3    1.01    0.19 
  -5  10   3    0.90    0.31 
   4 -10  -3   25.11    0.65 
  -4  10   3   26.97    0.66 
   3 -10  -3    5.52    0.29 
  -3  10   3    5.68    0.30 
   2 -10  -3    5.94    0.30 
  -2  10   3    6.25    0.40 
   1 -10  -3    1.45    0.23 
  -1  10   3    1.22    0.25 
   0 -10  -3   31.64    0.66 
   0  10   3   28.88    0.65 
  -1 -10  -3   19.60    0.54 
   1  10   3   17.53    0.48 
  -2 -10  -3   25.73    0.47 
   2  10   3   23.78    0.55 
  -3 -10  -3    0.99    0.14 
   3  10   3    0.95    0.09 
  -4 -10  -3   10.24    0.30 
   4  10   3    9.62    0.22 
  -5 -10  -3   20.39    0.60 
   5  10   3   18.74    0.27 
  -6 -10  -3   18.32    0.57 
   6  10   3   17.64    0.41 
  -7 -10  -3    0.27    0.15 
   7  10   3    0.14    0.11 
  -8 -10  -3    0.46    0.16 
   8  10   3    0.49    0.15 
  -9 -10  -3    3.31    0.34 
   9  10   3    2.96    0.23 
 -10 -10  -3    4.41    0.37 
  10  10   3    3.05    0.37 
 -11 -10  -3    0.87    0.63 
   5 -11  -3    1.64    0.33 
  -5  11   3    1.73    0.38 
   4 -11  -3    0.13    0.19 
  -4  11   3    0.15    0.33 
   3 -11  -3    3.80    0.34 
  -3  11   3    3.92    0.30 
   2 -11  -3   32.38    0.87 
  -2  11   3   37.00    0.95 
   1 -11  -3    3.27    0.30 
  -1  11   3    3.96    0.30 
   0 -11  -3    3.13    0.25 
   0  11   3    2.81    0.25 
  -1 -11  -3    4.11    0.25 
   1  11   3    3.87    0.23 
  -2 -11  -3   27.73    0.61 
   2  11   3   25.68    0.58 
  -3 -11  -3    9.20    0.30 
   3  11   3    8.85    0.20 
  -4 -11  -3   10.17    0.33 
   4  11   3   10.10    0.24 
  -5 -11  -3    0.00    0.16 
   5  11   3    0.02    0.07 
  -6 -11  -3    6.69    0.41 
   6  11   3    5.21    0.27 
  -7 -11  -3   10.71    0.48 
   7  11   3    9.88    0.33 
  -8 -11  -3    5.85    0.39 
   8  11   3    4.94    0.31 
  -9 -11  -3    0.33    0.23 
   9  11   3    0.42    0.15 
 -10 -11  -3    0.00    0.19 
  10  11   3    0.03    0.14 
 -11 -11  -3    0.96    0.74 
   4 -12  -3    5.38    0.53 
  -4  12   3    6.45    0.57 
   3 -12  -3    0.66    0.25 
  -3  12   3    0.33    0.26 
   2 -12  -3    0.81    0.48 
  -2  12   3    0.07    0.53 
   1 -12  -3    9.41    0.49 
  -1  12   3    9.60    0.51 
   0 -12  -3   29.40    0.86 
   0  12   3   28.45    0.84 
  -1 -12  -3    1.52    0.30 
   1  12   3    1.72    0.30 
  -2 -12  -3    0.53    0.41 
   2  12   3    0.29    0.29 
  -3 -12  -3    8.07    0.33 
   3  12   3    7.00    0.22 
  -4 -12  -3   18.32    0.43 
   4  12   3   16.83    0.34 
  -5 -12  -3    2.44    0.31 
   5  12   3    2.25    0.14 
  -6 -12  -3    3.23    0.35 
   6  12   3    3.19    0.24 
  -7 -12  -3    0.38    0.22 
   7  12   3    0.11    0.12 
  -8 -12  -3    2.55    0.33 
   8  12   3    2.49    0.20 
  -9 -12  -3    4.27    0.48 
   9  12   3    3.30    0.28 
 -10 -12  -3    0.66    0.29 
  10  12   3    0.68    0.49 
   3 -13  -3    2.76    0.52 
  -3  13   3    3.63    0.53 
   2 -13  -3    5.73    1.01 
  -2  13   3    6.30    0.82 
   1 -13  -3    0.06    0.44 
  -1  13   3    0.65    0.44 
   0 -13  -3    1.20    0.27 
   0  13   3    1.51    0.27 
  -1 -13  -3   10.47    0.53 
   1  13   3    9.12    0.48 
  -2 -13  -3   16.91    0.99 
   2  13   3   18.72    0.84 
  -3 -13  -3    0.17    0.15 
   3  13   3    0.14    0.15 
  -4 -13  -3    0.12    0.16 
   4  13   3    0.09    0.12 
  -5 -13  -3    7.68    0.45 
   5  13   3    6.71    0.25 
  -6 -13  -3    8.86    0.53 
   6  13   3    7.62    0.35 
  -7 -13  -3    0.51    0.24 
   7  13   3    0.34    0.15 
  -8 -13  -3    0.95    0.27 
   8  13   3    0.82    0.17 
  -9 -13  -3    0.26    0.29 
   9  13   3    0.23    0.37 
   1 -14  -3    4.87    0.74 
  -1  14   3    4.08    0.73 
   0 -14  -3    3.93    0.45 
   0  14   3    3.48    0.43 
  -1 -14  -3    0.94    0.47 
   1  14   3    1.50    0.43 
  -2 -14  -3    3.09    0.57 
   2  14   3    1.77    0.47 
  -3 -14  -3   10.22    0.47 
   3  14   3    9.95    0.46 
  -4 -14  -3    8.16    0.43 
   4  14   3    8.00    0.42 
  -5 -14  -3    0.07    0.24 
   5  14   3    0.17    0.14 
  -6 -14  -3    0.36    0.24 
   6  14   3    0.21    0.22 
  -7 -14  -3    5.55    0.44 
   7  14   3    4.93    0.36 
  -8 -14  -3    3.31    0.37 
   8  14   3    2.92    0.37 
  -9 -14  -3    0.15    0.27 
   0 -15  -3    9.39    0.91 
   0  15   3    8.35    0.89 
  -1 -15  -3    2.57    0.77 
   1  15   3    3.63    0.73 
  -2 -15  -3    1.44    0.87 
   2  15   3    0.00    1.01 
  -3 -15  -3    3.51    0.40 
   3  15   3    2.58    0.41 
  -4 -15  -3    1.81    0.37 
   4  15   3    1.55    0.29 
  -5 -15  -3    5.87    0.54 
   5  15   3    5.93    0.34 
  -6 -15  -3    2.12    0.39 
   6  15   3    1.97    0.35 
  -7 -15  -3    0.23    0.24 
   7  15   3    0.00    0.32 
  -8 -15  -3    0.35    0.57 
   8  15   3    0.20    0.28 
  -3 -16  -3    1.27    0.45 
   3  16   3    0.98    0.43 
  -4 -16  -3    0.55    0.37 
   4  16   3    0.36    0.28 
  -5 -16  -3    3.06    0.56 
   5  16   3    2.78    0.40 
  -6 -16  -3    1.20    0.60 
  -7 -13   4    0.61    0.58 
   6  13  -4    0.00    0.29 
  -6 -13   4    0.11    0.33 
   5  13  -4    8.21    0.58 
  -5 -13   4    8.67    0.80 
   4  13  -4   10.10    0.66 
  -4 -13   4    8.82    0.79 
   3  13  -4    0.20    0.39 
  -3 -13   4    0.17    0.46 
   2  13  -4    0.68    0.90 
  -2 -13   4    0.61    1.05 
   1  13  -4    5.62    7.88 
   8  12  -4    0.66    0.35 
  -8 -12   4    0.90    0.39 
   7  12  -4    3.67    0.43 
  -7 -12   4    3.69    0.46 
   6  12  -4    2.98    0.39 
  -6 -12   4    2.87    0.49 
   5  12  -4    0.21    0.15 
  -5 -12   4    0.13    0.31 
   4  12  -4    0.09    0.16 
  -4 -12   4    0.16    0.32 
   3  12  -4   14.16    0.67 
  -3 -12   4   16.84    0.97 
   2  12  -4    9.17    1.15 
  -2 -12   4    8.33    0.88 
   1  12  -4    0.74    0.73 
  -1 -12   4    0.05    0.83 
   0  12  -4    0.00    0.27 
   0 -12   4    0.00    0.28 
   1 -12   4    6.96    7.52 
  -9 -11   4    1.25    0.38 
   8  11  -4    1.31    0.29 
  -8 -11   4    0.73    0.35 
   7  11  -4    4.43    0.30 
  -7 -11   4    4.29    0.45 
   6  11  -4    2.94    0.19 
  -6 -11   4    3.17    0.41 
   5  11  -4    7.30    0.29 
  -5 -11   4    7.82    0.55 
   4  11  -4    1.66    0.21 
  -4 -11   4    1.73    0.32 
   3  11  -4    1.33    0.25 
  -3 -11   4    1.62    0.26 
   2  11  -4    0.00    0.53 
  -2 -11   4    0.30    0.61 
   1  11  -4   24.68    1.30 
  -1 -11   4   19.26    1.13 
   0  11  -4    8.04    0.62 
   0 -11   4    5.27    0.64 
  -1  11  -4    0.00    0.78 
   1 -11   4    0.00    0.73 
  -2  11  -4    0.36    0.99 
   2 -11   4    0.19    0.90 
  -9 -10   4    1.61    0.38 
   8  10  -4    2.68    0.33 
  -8 -10   4    2.14    0.39 
   7  10  -4    1.51    0.19 
  -7 -10   4    1.34    0.29 
   6  10  -4    0.68    0.12 
  -6 -10   4    1.07    0.28 
   5  10  -4   11.19    0.30 
  -5 -10   4   12.03    0.60 
   4  10  -4    6.02    0.28 
  -4 -10   4    6.55    0.36 
   3  10  -4   10.07    0.30 
  -3 -10   4   12.06    0.43 
   2  10  -4    0.53    0.35 
  -2 -10   4    0.64    0.43 
   1  10  -4    4.32    0.48 
  -1 -10   4    5.84    0.47 
   0  10  -4    0.91    0.23 
   0 -10   4    1.13    0.23 
  -1  10  -4   25.55    1.10 
   1 -10   4   19.69    1.32 
  -2  10  -4    3.27    0.83 
   2 -10   4    2.74    1.15 
  -3  10  -4    0.33    0.45 
   3 -10   4    0.08    0.39 
 -10  -9   4    1.81    0.35 
   9   9  -4    0.44    0.21 
  -9  -9   4    0.58    0.29 
   8   9  -4    0.65    0.22 
  -8  -9   4    0.95    0.31 
   7   9  -4    6.28    0.27 
  -7  -9   4    6.96    0.46 
   6   9  -4    3.66    0.17 
  -6  -9   4    4.19    0.31 
   5   9  -4    1.83    0.13 
  -5  -9   4    2.01    0.24 
   4   9  -4    0.02    0.08 
  -4  -9   4    0.01    0.14 
   3   9  -4   22.08    0.41 
  -3  -9   4   24.40    0.52 
   2   9  -4    8.47    0.45 
  -2  -9   4    9.53    0.46 
   1   9  -4   11.61    0.54 
  -1  -9   4    9.64    0.47 
   0   9  -4    0.39    0.15 
   0  -9   4    0.01    0.15 
  -1   9  -4    7.10    0.46 
   1  -9   4    8.51    0.49 
  -2   9  -4    1.52    0.57 
   2  -9   4    1.21    0.54 
  -3   9  -4   17.66    0.93 
   3  -9   4   17.31    0.92 
  -4   9  -4    0.36    0.34 
   4  -9   4    0.42    0.28 
  -5   9  -4    0.97    0.62 
   5  -9   4    0.79    0.43 
 -10  -8   4    2.11    0.34 
   9   8  -4    1.91    0.24 
  -9  -8   4    2.03    0.34 
   8   8  -4    2.94    0.31 
  -8  -8   4    3.05    0.38 
   7   8  -4    2.90    0.20 
  -7  -8   4    3.77    0.34 
   6   8  -4    3.76    0.16 
  -6  -8   4    4.53    0.29 
   5   8  -4   17.30    0.30 
  -5  -8   4   18.18    0.50 
   4   8  -4    3.80    0.17 
  -4  -8   4    4.11    0.21 
   3   8  -4    1.04    0.11 
  -3  -8   4    0.95    0.13 
   2   8  -4    2.53    0.42 
  -2  -8   4    2.63    0.44 
   1   8  -4   36.66    0.98 
  -1  -8   4   31.50    0.95 
   0   8  -4   10.67    0.48 
   0  -8   4   10.72    0.49 
  -1   8  -4    9.74    0.47 
   1  -8   4    7.88    0.55 
  -2   8  -4    3.09    0.41 
   2  -8   4    3.04    0.36 
  -3   8  -4    9.05    0.42 
   3  -8   4    8.72    0.31 
  -4   8  -4    1.31    0.39 
   4  -8   4    1.34    0.22 
  -5   8  -4    9.17    0.76 
   5  -8   4    9.44    0.51 
 -11  -7   4    0.14    0.23 
  10   7  -4    0.16    0.14 
 -10  -7   4    0.06    0.21 
   9   7  -4    2.31    0.25 
  -9  -7   4    2.94    0.36 
   8   7  -4    6.13    0.36 
  -8  -7   4    5.89    0.45 
   7   7  -4    5.51    0.23 
  -7  -7   4    5.45    0.35 
   6   7  -4    4.04    0.14 
  -6  -7   4    4.39    0.26 
   5   7  -4   12.40    0.21 
  -5  -7   4   12.89    0.39 
   4   7  -4   14.16    0.27 
  -4  -7   4   14.84    0.32 
   3   7  -4   31.68    0.40 
  -3  -7   4   33.93    0.47 
   2   7  -4    2.07    0.21 
  -2  -7   4    2.72    0.23 
   1   7  -4    0.00    0.20 
  -1  -7   4    0.00    0.19 
   0   7  -4    9.61    0.37 
   0  -7   4    9.90    0.38 
  -1   7  -4   40.79    0.94 
   1  -7   4   34.98    1.00 
  -2   7  -4    7.26    0.45 
   2  -7   4    8.38    0.46 
  -3   7  -4    3.26    0.25 
   3  -7   4    3.30    0.19 
  -4   7  -4    7.11    0.43 
   4  -7   4    5.83    0.29 
  -5   7  -4    8.21    0.70 
   5  -7   4    6.33    0.35 
  -6   7  -4    0.74    0.38 
   6  -7   4    0.28    0.34 
 -11  -6   4    3.30    0.37 
  10   6  -4    1.78    0.20 
 -10  -6   4    2.10    0.29 
   9   6  -4    0.00    0.11 
  -9  -6   4    0.00    0.18 
   8   6  -4    0.00    0.12 
  -8  -6   4    0.28    0.19 
   7   6  -4   12.76    0.28 
  -7  -6   4   14.00    0.47 
   6   6  -4   12.68    0.21 
  -6  -6   4   13.91    0.37 
   5   6  -4   10.21    0.21 
  -5  -6   4   11.61    0.34 
   4   6  -4    2.65    0.13 
  -4  -6   4    2.63    0.15 
   3   6  -4   31.32    0.38 
  -3  -6   4   33.06    0.41 
   2   6  -4   25.61    0.91 
  -2  -6   4   34.96    0.88 
   1   6  -4   39.94    0.85 
  -1  -6   4   38.49    0.85 
   0   6  -4    0.22    0.09 
   0  -6   4    0.39    0.09 
  -1   6  -4    0.74    0.19 
   1  -6   4    0.99    0.20 
  -2   6  -4   16.24    0.44 
   2  -6   4   15.05    0.43 
  -3   6  -4   29.21    0.55 
   3  -6   4   27.89    0.41 
  -4   6  -4    3.50    0.27 
   4  -6   4    3.28    0.20 
  -5   6  -4    1.10    0.29 
   5  -6   4    1.07    0.14 
  -6   6  -4    7.97    0.58 
   6  -6   4    6.97    0.32 
  -7   6  -4    3.73    0.45 
   7  -6   4    3.76    0.56 
 -11  -5   4    0.06    0.20 
  10   5  -4    3.11    0.23 
 -10  -5   4    3.31    0.35 
   9   5  -4    8.29    0.45 
  -9  -5   4    9.61    0.47 
   8   5  -4    5.39    0.37 
  -8  -5   4    5.45    0.36 
   7   5  -4    0.57    0.11 
  -7  -5   4    0.64    0.18 
   6   5  -4    0.46    0.06 
  -6  -5   4    0.81    0.12 
   5   5  -4   39.81    0.43 
  -5  -5   4   43.57    0.71 
   4   5  -4   19.77    0.25 
  -4  -5   4   21.53    0.33 
   3   5  -4   15.56    0.21 
  -3  -5   4   16.55    0.24 
   2   5  -4    0.09    0.20 
  -2  -5   4    0.44    0.22 
   1   5  -4   61.66    1.17 
  -1  -5   4   55.02    1.08 
   0   5  -4   50.21    0.85 
   0  -5   4   51.49    0.86 
  -1   5  -4   36.69    0.84 
   1  -5   4   34.04    0.86 
  -2   5  -4    0.53    0.23 
   2  -5   4    0.48    0.21 
  -3   5  -4    3.75    0.20 
   3  -5   4    3.32    0.15 
  -4   5  -4   14.92    0.35 
   4  -5   4   14.48    0.31 
  -5   5  -4   17.10    0.66 
   5  -5   4   15.00    0.33 
  -6   5  -4    1.01    0.29 
   6  -5   4    0.79    0.13 
  -7   5  -4    0.05    0.24 
   7  -5   4    0.13    0.15 
  -8   5  -4    5.99    0.69 
   8  -5   4    4.99    0.61 
 -11  -4   4    0.18    0.28 
  10   4  -4    1.27    0.15 
 -10  -4   4    1.53    0.24 
   9   4  -4    0.55    0.13 
  -9  -4   4    0.55    0.18 
   8   4  -4    9.27    0.32 
  -8  -4   4    9.78    0.41 
   7   4  -4   22.62    0.51 
  -7  -4   4   24.67    0.68 
   6   4  -4    9.01    0.17 
  -6  -4   4    9.77    0.27 
   5   4  -4    4.00    0.12 
  -5  -4   4    4.64    0.20 
   4   4  -4    5.66    0.11 
  -4  -4   4    6.37    0.14 
   3   4  -4   88.40    0.69 
  -3  -4   4   95.71    0.83 
   2   4  -4   22.39    0.30 
  -2  -4   4   23.01    0.30 
   1   4  -4   11.72    0.26 
  -1  -4   4   13.76    0.26 
   0   4  -4    1.69    0.12 
   0  -4   4    2.37    0.12 
  -1   4  -4   69.87    1.07 
   1  -4   4   61.87    1.18 
  -2   4  -4   53.10    0.88 
   2  -4   4   58.07    0.92 
  -3   4  -4   16.10    0.28 
   3  -4   4   15.51    0.26 
  -4   4  -4    2.68    0.17 
   4  -4   4    2.58    0.14 
  -5   4  -4    4.40    0.30 
   5  -4   4    4.68    0.18 
  -6   4  -4    9.49    0.52 
   6  -4   4    9.51    0.25 
  -7   4  -4    6.95    0.51 
   7  -4   4    5.83    0.31 
  -8   4  -4    0.51    0.28 
   8  -4   4    0.24    0.26 
 -11  -3   4    1.87    0.31 
  10   3  -4    4.08    0.23 
 -10  -3   4    4.39    0.46 
   9   3  -4    1.67    0.17 
  -9  -3   4    1.81    0.22 
   8   3  -4    2.38    0.18 
  -8  -3   4    2.22    0.24 
   7   3  -4    4.89    0.23 
  -7  -3   4    5.94    0.29 
   6   3  -4   24.39    0.29 
  -6  -3   4   26.36    0.45 
   5   3  -4   51.87    0.47 
  -5  -3   4   57.42    0.81 
   4   3  -4   10.39    0.15 
  -4  -3   4   10.98    0.16 
   3   3  -4   16.05    0.16 
  -3  -3   4   17.36    0.21 
   2   3  -4   22.11    0.31 
  -2  -3   4   23.09    0.39 
   1   3  -4  130.75    2.08 
  -1  -3   4  131.98    2.02 
   0   3  -4   13.70    0.30 
   0  -3   4   14.39    0.30 
  -1   3  -4    5.77    0.25 
   1  -3   4    7.49    0.26 
  -2   3  -4    7.91    0.22 
   2  -3   4    7.91    0.21 
  -3   3  -4   55.89    0.61 
   3  -3   4   52.79    0.54 
  -4   3  -4   33.18    0.48 
   4  -3   4   31.69    0.42 
  -5   3  -4    4.62    0.28 
   5  -3   4    4.56    0.16 
  -6   3  -4    3.97    0.29 
   6  -3   4    3.84    0.16 
  -7   3  -4    3.28    0.36 
   7  -3   4    3.35    0.22 
  -8   3  -4    5.60    0.49 
   8  -3   4    5.51    0.34 
  -9   3  -4    1.71    0.43 
 -11  -2   4    0.05    0.52 
  10   2  -4    0.05    0.09 
 -10  -2   4    0.08    0.17 
   9   2  -4    6.43    0.27 
  -9  -2   4    6.95    0.43 
   8   2  -4   10.46    0.33 
  -8  -2   4   11.45    0.40 
   7   2  -4    2.77    0.18 
  -7  -2   4    1.98    0.19 
   6   2  -4    1.78    0.10 
  -6  -2   4    1.69    0.14 
   5   2  -4   23.10    0.25 
  -5  -2   4   25.80    0.42 
   4   2  -4   49.31    0.43 
  -4  -2   4   53.87    0.44 
   3   2  -4   82.98    0.66 
  -3  -2   4  105.28    0.80 
   2   2  -4    2.86    0.10 
  -2  -2   4    3.43    0.12 
   1   2  -4   38.21    0.70 
  -1  -2   4   41.10    0.77 
   0   2  -4   41.77    0.67 
   0  -2   4   41.54    0.67 
  -1   2  -4  146.75    2.00 
   1  -2   4  144.47    2.09 
  -2   2  -4    3.23    0.17 
   2  -2   4    3.06    0.16 
  -3   2  -4    0.54    0.06 
   3  -2   4    0.55    0.05 
  -4   2  -4    9.79    0.24 
   4  -2   4    9.43    0.20 
  -5   2  -4   33.53    0.65 
   5  -2   4   30.45    0.40 
  -6   2  -4   15.74    0.45 
   6  -2   4   14.28    0.26 
  -7   2  -4    1.03    0.24 
   7  -2   4    0.87    0.13 
  -8   2  -4    3.39    0.44 
   8  -2   4    3.38    0.34 
  -9   2  -4    2.86    0.45 
 -11  -1   4    2.78    0.72 
  10   1  -4    2.16    0.18 
 -10  -1   4    2.14    0.30 
   9   1  -4    0.70    0.13 
  -9  -1   4    0.83    0.18 
   8   1  -4    0.56    0.13 
  -8  -1   4    0.83    0.16 
   7   1  -4   20.59    0.46 
  -7  -1   4   23.50    0.57 
   6   1  -4   19.88    0.26 
  -6  -1   4   21.39    0.42 
   5   1  -4    1.96    0.07 
  -5  -1   4    2.21    0.12 
   4   1  -4    0.09    0.03 
  -4  -1   4    0.13    0.03 
   3   1  -4   68.56    0.49 
  -3  -1   4   73.77    0.58 
   2   1  -4   70.87    0.53 
  -2  -1   4   75.80    0.66 
   1   1  -4  145.38    1.77 
  -1  -1   4  147.50    1.85 
   0   1  -4    1.26    0.08 
   0  -1   4    1.16    0.08 
  -1   1  -4   56.97    0.76 
   1  -1   4   59.39    0.70 
  -2   1  -4   50.81    0.54 
   2  -1   4   47.67    0.43 
  -3   1  -4   84.38    0.73 
   3  -1   4   78.03    0.61 
  -4   1  -4    0.08    0.06 
   4  -1   4    0.06    0.04 
  -5   1  -4    0.29    0.11 
   5  -1   4    0.22    0.06 
  -6   1  -4    6.64    0.29 
   6  -1   4    5.93    0.15 
  -7   1  -4   15.88    0.55 
   7  -1   4   14.25    0.34 
  -8   1  -4    5.42    0.50 
   8  -1   4    5.37    0.38 
  -9   1  -4    0.07    0.26 
   9  -1   4    0.00    0.16 
 -11   0   4    0.87    0.61 
  10   0  -4    1.35    0.16 
 -10   0   4    1.86    0.28 
   9   0  -4    8.21    0.32 
  -9   0   4    9.65    0.45 
   8   0  -4    3.37    0.22 
  -8   0   4    3.21    0.28 
   7   0  -4    4.02    0.21 
  -7   0   4    4.23    0.40 
   6   0  -4    5.14    0.13 
  -6   0   4    5.89    0.20 
   5   0  -4   55.30    0.47 
  -5   0   4   61.12    0.97 
   4   0  -4   29.05    0.27 
  -4   0   4   31.97    0.28 
   3   0  -4    0.07    0.03 
  -3   0   4    0.15    0.03 
   2   0  -4    1.63    0.06 
  -2   0   4    1.97    0.07 
   1   0  -4  128.68    1.10 
  -1   0   4  131.97    1.24 
   0   0  -4   66.65    0.96 
   0   0   4   63.19    0.95 
  -1   0  -4  127.72    1.85 
   1   0   4  124.62    1.74 
  -2   0  -4   12.69    0.18 
   2   0   4   11.33    0.14 
  -3   0  -4   45.85    0.41 
   3   0   4   42.93    0.31 
  -4   0  -4   39.40    0.40 
   4   0   4   36.78    0.38 
  -5   0  -4   35.01    0.59 
   5   0   4   30.77    0.34 
  -6   0  -4    1.28    0.15 
   6   0   4    1.29    0.09 
  -7   0  -4    1.09    0.20 
   7   0   4    0.95    0.11 
  -8   0  -4    2.99    0.37 
   8   0   4    1.97    0.24 
  -9   0  -4    5.95    0.51 
   9   0   4    5.81    0.38 
 -10   0  -4    1.14    0.33 
  10  -1  -4    0.65    0.15 
 -10   1   4    0.85    0.25 
   9  -1  -4    5.14    0.29 
  -9   1   4    5.55    0.40 
   8  -1  -4    4.65    0.25 
  -8   1   4    5.11    0.34 
   7  -1  -4   19.97    0.45 
  -7   1   4   21.31    0.70 
   6  -1  -4    2.37    0.12 
  -6   1   4    2.39    0.18 
   5  -1  -4   15.98    0.19 
  -5   1   4   17.86    0.46 
   4  -1  -4   19.82    0.22 
  -4   1   4   21.41    0.27 
   3  -1  -4  113.74    0.78 
  -3   1   4  122.21    0.96 
   2  -1  -4   27.48    0.22 
  -2   1   4   28.52    0.28 
   1  -1  -4    4.19    0.09 
  -1   1   4    4.31    0.10 
   0  -1  -4   15.64    0.28 
   0   1   4   15.37    0.28 
  -1  -1  -4  136.80    1.27 
   1   1   4  133.54    1.12 
  -2  -1  -4   34.92    0.38 
   2   1   4   32.68    0.28 
  -3  -1  -4   52.25    0.44 
   3   1   4   44.22    0.38 
  -4  -1  -4   22.87    0.23 
   4   1   4   21.10    0.23 
  -5  -1  -4   24.73    0.44 
   5   1   4   23.58    0.26 
  -6  -1  -4   19.94    0.40 
   6   1   4   18.06    0.25 
  -7  -1  -4   10.03    0.37 
   7   1   4    8.77    0.21 
  -8  -1  -4    2.00    0.27 
   8   1   4    1.97    0.22 
  -9  -1  -4    0.63    0.24 
   9   1   4    0.71    0.18 
 -10  -1  -4    0.89    0.29 
  10  -2  -4    1.51    0.67 
 -10   2   4    0.71    0.28 
   9  -2  -4    0.96    0.17 
  -9   2   4    1.42    0.29 
   8  -2  -4    0.01    0.12 
  -8   2   4    0.20    0.18 
   7  -2  -4   16.15    0.35 
  -7   2   4   18.23    0.51 
   6  -2  -4   12.43    0.26 
  -6   2   4   13.55    0.40 
   5  -2  -4   35.01    0.35 
  -5   2   4   41.29    0.89 
   4  -2  -4    0.13    0.04 
  -4   2   4    0.17    0.05 
   3  -2  -4   50.08    0.39 
  -3   2   4   53.00    0.50 
   2  -2  -4   41.76    0.33 
  -2   2   4   42.79    0.39 
   1  -2  -4  172.16    1.21 
  -1   2   4  174.10    1.37 
   0  -2  -4    9.59    0.20 
   0   2   4    8.67    0.20 
  -1  -2  -4   11.75    0.16 
   1   2   4   11.41    0.13 
  -2  -2  -4   40.31    0.36 
   2   2   4   38.74    0.32 
  -3  -2  -4   87.35    0.67 
   3   2   4   79.57    0.59 
  -4  -2  -4   12.54    0.14 
   4   2   4   11.35    0.14 
  -5  -2  -4   15.26    0.30 
   5   2   4   12.87    0.16 
  -6  -2  -4   20.45    0.39 
   6   2   4   19.42    0.29 
  -7  -2  -4   10.42    0.41 
   7   2   4    9.78    0.32 
  -8  -2  -4    7.31    0.39 
   8   2   4    6.20    0.28 
  -9  -2  -4    1.91    0.27 
   9   2   4    1.80    0.20 
 -10  -2  -4    1.93    0.31 
  10   2   4    1.94    0.22 
 -10   3   4    2.65    0.42 
   9  -3  -4    5.13    0.32 
  -9   3   4    5.81    0.51 
   8  -3  -4    1.29    0.19 
  -8   3   4    1.45    0.23 
   7  -3  -4    1.58    0.15 
  -7   3   4    1.69    0.22 
   6  -3  -4    1.55    0.12 
  -6   3   4    1.48    0.19 
   5  -3  -4   39.44    0.43 
  -5   3   4   43.08    0.83 
   4  -3  -4   25.43    0.26 
  -4   3   4   27.25    0.40 
   3  -3  -4   54.03    0.42 
  -3   3   4   58.92    0.56 
   2  -3  -4    3.75    0.08 
  -2   3   4    4.12    0.10 
   1  -3  -4  109.31    0.85 
  -1   3   4  110.62    0.85 
   0  -3  -4   54.85    0.84 
   0   3   4   51.92    0.84 
  -1  -3  -4  144.46    1.17 
   1   3   4  142.97    1.03 
  -2  -3  -4    0.20    0.04 
   2   3   4    0.17    0.03 
  -3  -3  -4   11.06    0.13 
   3   3   4   10.64    0.11 
  -4  -3  -4   45.60    0.37 
   4   3   4   42.38    0.34 
  -5  -3  -4   34.06    0.46 
   5   3   4   30.80    0.30 
  -6  -3  -4    3.27    0.15 
   6   3   4    2.92    0.10 
  -7  -3  -4    2.96    0.22 
   7   3   4    2.32    0.18 
  -8  -3  -4   12.15    0.61 
   8   3   4   10.24    0.33 
  -9  -3  -4    3.78    0.33 
   9   3   4    3.60    0.24 
 -10  -3  -4    2.18    0.29 
  10   3   4    1.83    0.19 
 -11  -3  -4    0.29    0.23 
   9  -4  -4    0.75    0.19 
  -9   4   4    1.29    0.35 
   8  -4  -4    6.15    0.36 
  -8   4   4    7.59    0.45 
   7  -4  -4   14.55    0.38 
  -7   4   4   16.12    0.56 
   6  -4  -4    1.67    0.14 
  -6   4   4    1.29    0.21 
   5  -4  -4    0.91    0.08 
  -5   4   4    1.20    0.18 
   4  -4  -4   11.53    0.20 
  -4   4   4   12.48    0.29 
   3  -4  -4   71.84    0.57 
  -3   4   4   75.91    0.67 
   2  -4  -4   38.50    0.34 
  -2   4   4   38.95    0.39 
   1  -4  -4   58.71    0.56 
  -1   4   4   58.15    0.52 
   0  -4  -4   22.47    0.39 
   0   4   4   21.99    0.39 
  -1  -4  -4  135.24    1.01 
   1   4   4  130.65    1.04 
  -2  -4  -4   49.86    0.44 
   2   4   4   48.04    0.37 
  -3  -4  -4   66.09    0.59 
   3   4   4   62.34    0.44 
  -4  -4  -4    5.75    0.10 
   4   4   4    5.58    0.09 
  -5  -4  -4    7.47    0.17 
   5   4   4    7.60    0.09 
  -6  -4  -4   31.70    0.70 
   6   4   4   27.20    0.36 
  -7  -4  -4    8.61    0.46 
   7   4   4    7.37    0.26 
  -8  -4  -4    0.59    0.14 
   8   4   4    0.57    0.12 
  -9  -4  -4    0.18    0.15 
   9   4   4    0.07    0.10 
 -10  -4  -4    5.71    0.53 
  10   4   4    4.72    0.25 
 -11  -4  -4    1.23    0.25 
   9  -5  -4    3.38    0.76 
  -9   5   4    2.42    0.45 
   8  -5  -4    1.32    0.18 
  -8   5   4    1.48    0.29 
   7  -5  -4    5.06    0.28 
  -7   5   4    4.64    0.38 
   6  -5  -4   16.65    0.37 
  -6   5   4   18.17    0.59 
   5  -5  -4   28.19    0.35 
  -5   5   4   30.00    0.73 
   4  -5  -4    0.56    0.08 
  -4   5   4    0.70    0.11 
   3  -5  -4    0.04    0.04 
  -3   5   4    0.02    0.06 
   2  -5  -4   38.20    0.37 
  -2   5   4   38.86    0.41 
   1  -5  -4   85.62    1.12 
  -1   5   4   88.43    1.02 
   0  -5  -4   36.36    0.57 
   0   5   4   32.29    0.56 
  -1  -5  -4   31.63    0.38 
   1   5   4   31.48    0.41 
  -2  -5  -4   37.76    0.37 
   2   5   4   35.79    0.30 
  -3  -5  -4   90.96    0.78 
   3   5   4   85.19    0.61 
  -4  -5  -4   30.87    0.34 
   4   5   4   28.21    0.26 
  -5  -5  -4   19.16    0.52 
   5   5   4   18.31    0.19 
  -6  -5  -4    9.00    0.34 
   6   5   4    7.48    0.14 
  -7  -5  -4    5.33    0.40 
   7   5   4    4.08    0.21 
  -8  -5  -4   15.09    0.69 
   8   5   4   12.60    0.35 
  -9  -5  -4    1.26    0.18 
   9   5   4    0.93    0.13 
 -10  -5  -4    0.28    0.18 
  10   5   4    0.14    0.10 
 -11  -5  -4    0.13    0.18 
   8  -6  -4    4.46    0.30 
  -8   6   4    5.04    0.45 
   7  -6  -4    3.53    0.25 
  -7   6   4    3.35    0.36 
   6  -6  -4    0.63    0.12 
  -6   6   4    0.72    0.22 
   5  -6  -4   13.69    0.25 
  -5   6   4   14.80    0.53 
   4  -6  -4   34.19    0.44 
  -4   6   4   35.74    0.56 
   3  -6  -4   40.21    0.39 
  -3   6   4   43.09    0.48 
   2  -6  -4    0.13    0.07 
  -2   6   4    0.09    0.06 
   1  -6  -4    2.70    0.23 
  -1   6   4    3.04    0.22 
   0  -6  -4   65.49    0.97 
   0   6   4   59.39    0.96 
  -1  -6  -4   77.44    0.98 
   1   6   4   71.52    1.11 
  -2  -6  -4   14.55    0.20 
   2   6   4   13.83    0.18 
  -3  -6  -4    7.81    0.15 
   3   6   4    7.53    0.12 
  -4  -6  -4   36.28    0.41 
   4   6   4   32.14    0.28 
  -5  -6  -4   45.34    1.33 
   5   6   4   41.87    0.39 
  -6  -6  -4   12.35    0.60 
   6   6   4   10.72    0.19 
  -7  -6  -4    3.80    0.39 
   7   6   4    2.96    0.19 
  -8  -6  -4    6.12    0.49 
   8   6   4    5.19    0.23 
  -9  -6  -4    2.34    0.36 
   9   6   4    1.75    0.15 
  10   6   4    4.46    0.22 
 -11  -6  -4    0.02    0.20 
  11   6   4    0.75    0.60 
   8  -7  -4    0.27    0.30 
  -8   7   4    0.64    0.30 
   7  -7  -4    6.89    0.35 
  -7   7   4    7.89    0.53 
   6  -7  -4    6.68    0.34 
  -6   7   4    7.33    0.48 
   5  -7  -4    3.90    0.16 
  -5   7   4    4.36    0.37 
   4  -7  -4    0.04    0.07 
  -4   7   4    0.05    0.11 
   3  -7  -4   27.60    0.34 
  -3   7   4   29.82    0.50 
   2  -7  -4   53.38    0.62 
  -2   7   4   54.62    0.59 
   1  -7  -4   38.58    0.58 
  -1   7   4   38.41    0.60 
   0  -7  -4    3.28    0.15 
   0   7   4    3.28    0.15 
  -1  -7  -4   11.15    0.22 
   1   7   4   11.24    0.23 
  -2  -7  -4   55.52    0.51 
   2   7   4   53.02    0.47 
  -3  -7  -4   43.38    0.44 
   3   7   4   41.18    0.38 
  -4  -7  -4    2.03    0.13 
   4   7   4    2.11    0.08 
  -5  -7  -4    1.09    0.14 
   5   7   4    1.00    0.06 
  -6  -7  -4   25.66    0.95 
   6   7   4   22.04    0.34 
  -7  -7  -4   18.20    0.79 
   7   7   4   15.05    0.37 
   8   7   4    3.26    0.21 
   9   7   4    0.11    0.10 
 -10  -7  -4    2.58    0.27 
  10   7   4    2.23    0.16 
 -11  -7  -4    1.38    0.62 
  11   7   4    1.48    0.67 
   7  -8  -4    2.05    0.26 
  -7   8   4    2.39    0.37 
   6  -8  -4    1.65    0.21 
  -6   8   4    1.95    0.33 
   5  -8  -4   17.04    0.34 
  -5   8   4   17.28    0.66 
   4  -8  -4    6.22    0.22 
  -4   8   4    6.49    0.31 
   3  -8  -4    2.54    0.14 
  -3   8   4    2.75    0.19 
   2  -8  -4    3.35    0.23 
  -2   8   4    3.72    0.22 
   1  -8  -4   42.19    0.72 
  -1   8   4   41.99    0.80 
   0  -8  -4   58.02    0.99 
   0   8   4   54.80    0.97 
  -1  -8  -4   21.89    0.61 
   1   8   4   20.67    0.58 
  -2  -8  -4    9.24    0.19 
   2   8   4    8.87    0.17 
  -3  -8  -4   17.40    0.26 
   3   8   4   16.03    0.18 
  -4  -8  -4   33.62    0.50 
   4   8   4   30.94    0.36 
  -5  -8  -4   15.58    0.45 
   5   8   4   14.41    0.23 
  -6  -8  -4    0.08    0.10 
   6   8   4    0.00    0.07 
  -7  -8  -4    0.11    0.10 
   7   8   4    0.18    0.08 
  -8  -8  -4   12.01    1.02 
   8   8   4   10.53    0.33 
  -9  -8  -4    4.13    0.76 
   9   8   4    4.20    0.23 
 -10  -8  -4    1.76    0.67 
  10   8   4    0.99    0.25 
 -11  -8  -4    0.00    0.54 
   7  -9  -4    6.81    0.75 
  -7   9   4    6.29    0.71 
   6  -9  -4    1.21    0.29 
  -6   9   4    1.76    0.31 
   5  -9  -4    5.66    0.25 
  -5   9   4    5.82    0.41 
   4  -9  -4    5.47    0.25 
  -4   9   4    5.44    0.28 
   3  -9  -4   27.82    0.44 
  -3   9   4   28.97    0.54 
   2  -9  -4    3.79    0.20 
  -2   9   4    3.77    0.23 
   1  -9  -4    0.70    0.17 
  -1   9   4    0.10    0.19 
   0  -9  -4   12.00    0.33 
   0   9   4    9.80    0.33 
  -1  -9  -4   37.95    0.82 
   1   9   4   37.78    0.72 
  -2  -9  -4   43.73    0.51 
   2   9   4   40.57    0.55 
  -3  -9  -4    6.48    0.18 
   3   9   4    6.17    0.14 
  -4  -9  -4   13.11    0.31 
   4   9   4   11.47    0.22 
  -5  -9  -4   13.95    0.46 
   5   9   4   12.93    0.20 
  -6  -9  -4   15.69    0.49 
   6   9   4   13.61    0.30 
  -7  -9  -4    3.05    0.25 
   7   9   4    3.06    0.19 
  -8  -9  -4    0.42    0.17 
   8   9   4    0.60    0.13 
  -9  -9  -4    0.07    0.14 
   9   9   4    0.02    0.11 
 -10  -9  -4    4.29    0.33 
  10   9   4    4.29    0.43 
 -11  -9  -4    0.37    0.54 
   6 -10  -4    1.85    0.50 
  -6  10   4    2.19    0.40 
   5 -10  -4    9.92    0.39 
  -5  10   4   11.22    0.65 
   4 -10  -4    0.13    0.17 
  -4  10   4    0.45    0.19 
   3 -10  -4   11.61    0.31 
  -3  10   4   12.71    0.42 
   2 -10  -4   11.93    0.44 
  -2  10   4   13.38    0.64 
   1 -10  -4   34.70    0.67 
  -1  10   4   32.60    0.72 
   0 -10  -4    0.67    0.11 
   0  10   4    0.39    0.11 
  -1 -10  -4    0.39    0.19 
   1  10   4    0.00    0.17 
  -2 -10  -4   16.05    0.34 
   2  10   4   15.16    0.28 
  -3 -10  -4   25.10    0.47 
   3  10   4   23.53    0.31 
  -4 -10  -4   20.76    0.42 
   4  10   4   19.31    0.32 
  -5 -10  -4    0.66    0.18 
   5  10   4    0.86    0.09 
  -6 -10  -4   11.29    0.45 
   6  10   4    9.79    0.28 
  -7 -10  -4    7.67    0.39 
   7  10   4    6.57    0.27 
  -8 -10  -4    5.92    0.35 
   8  10   4    4.51    0.28 
  -9 -10  -4    0.14    0.18 
   9  10   4    0.06    0.12 
 -10 -10  -4    0.75    0.22 
  10  10   4    0.19    0.12 
 -11 -10  -4    0.00    0.52 
   5 -11  -4    7.10    0.56 
  -5  11   4    7.34    0.60 
   4 -11  -4    2.93    0.30 
  -4  11   4    3.14    0.41 
   3 -11  -4   12.81    0.54 
  -3  11   4   12.94    0.44 
   2 -11  -4    0.79    0.35 
  -2  11   4    0.00    0.47 
   1 -11  -4   18.62    0.58 
  -1  11   4   18.10    0.56 
   0 -11  -4   16.91    0.52 
   0  11   4   15.32    0.51 
  -1 -11  -4   26.95    0.72 
   1  11   4   25.02    0.65 
  -2 -11  -4    0.24    0.18 
   2  11   4    0.00    0.13 
  -3 -11  -4    2.55    0.20 
   3  11   4    2.26    0.13 
  -4 -11  -4   13.27    0.37 
   4  11   4   12.32    0.26 
  -5 -11  -4   11.73    0.49 
   5  11   4   11.21    0.23 
  -6 -11  -4    6.20    0.39 
   6  11   4    6.22    0.29 
  -7 -11  -4    0.07    0.17 
   7  11   4    0.01    0.11 
  -8 -11  -4    7.48    0.43 
   8  11   4    6.43    0.34 
  -9 -11  -4    3.07    0.40 
   9  11   4    2.48    0.25 
 -10 -11  -4    1.12    0.27 
  10  11   4    1.28    0.21 
 -11 -11  -4    0.10    0.25 
   4 -12  -4    4.23    0.49 
  -4  12   4    4.82    0.49 
   3 -12  -4   12.99    0.64 
  -3  12   4   11.97    0.59 
   2 -12  -4    2.92    0.62 
  -2  12   4    2.44    0.52 
   1 -12  -4   12.38    0.46 
  -1  12   4   11.62    0.50 
   0 -12  -4    4.52    0.31 
   0  12   4    4.68    0.31 
  -1 -12  -4   18.10    0.56 
   1  12   4   17.29    0.57 
  -2 -12  -4   14.74    0.66 
   2  12   4   15.25    0.43 
  -3 -12  -4   13.17    0.42 
   3  12   4   13.18    0.30 
  -4 -12  -4    1.49    0.20 
   4  12   4    1.01    0.12 
  -5 -12  -4    3.53    0.35 
   5  12   4    3.81    0.17 
  -6 -12  -4    7.82    0.47 
   6  12   4    6.67    0.32 
  -7 -12  -4    3.93    0.36 
   7  12   4    3.61    0.25 
  -8 -12  -4    1.47    0.27 
   8  12   4    1.28    0.17 
  -9 -12  -4    0.33    0.25 
   9  12   4    0.07    0.15 
 -10 -12  -4    3.25    0.44 
  10  12   4    3.36    0.80 
   3 -13  -4    0.11    0.35 
  -3  13   4    0.85    0.38 
   2 -13  -4    9.70    1.52 
  -2  13   4    9.44    0.91 
   1 -13  -4   15.39    0.83 
  -1  13   4   13.94    0.85 
   0 -13  -4    2.03    0.27 
   0  13   4    1.02    0.27 
  -1 -13  -4    7.72    0.51 
   1  13   4    7.05    0.45 
  -2 -13  -4    9.98    0.49 
   2  13   4    8.24    0.34 
  -3 -13  -4   12.76    0.44 
   3  13   4   12.73    0.43 
  -4 -13  -4   11.49    0.44 
   4  13   4   10.62    0.33 
  -5 -13  -4    4.15    0.40 
   5  13   4    3.89    0.19 
  -6 -13  -4    1.95    0.31 
   6  13   4    2.00    0.22 
  -7 -13  -4    3.90    0.40 
   7  13   4    3.55    0.26 
  -8 -13  -4    3.37    0.38 
   8  13   4    3.18    0.25 
  -9 -13  -4    1.04    0.36 
   9  13   4    0.61    0.45 
   2 -14  -4    0.22    5.35 
  -2  14   4    0.12    0.96 
   1 -14  -4    1.53    0.82 
  -1  14   4    0.99    0.61 
   0 -14  -4   14.28    0.76 
   0  14   4   13.78    0.74 
  -1 -14  -4   12.60    0.90 
   1  14   4    9.04    0.80 
  -2 -14  -4    0.54    0.55 
   2  14   4    0.00    0.61 
  -3 -14  -4    3.11    0.29 
   3  14   4    2.90    0.37 
  -4 -14  -4   10.17    0.46 
   4  14   4    9.43    0.42 
  -5 -14  -4    6.51    0.51 
   5  14   4    6.30    0.32 
  -6 -14  -4    4.69    0.40 
   6  14   4    5.04    0.36 
  -7 -14  -4    0.93    0.30 
   7  14   4    0.91    0.19 
  -8 -14  -4    1.66    0.33 
   8  14   4    1.69    0.27 
  -9 -14  -4    2.05    0.44 
   9  14   4    2.22    0.66 
   0 -15  -4    0.01    0.34 
   0  15   4    0.01    0.32 
  -1 -15  -4    1.10    0.64 
   1  15   4    0.59    0.82 
  -2 -15  -4   15.71    0.96 
   2  15   4   14.93    1.52 
  -3 -15  -4    6.43    0.44 
   3  15   4    5.33    0.50 
  -4 -15  -4    0.38    0.27 
   4  15   4    0.05    0.18 
  -5 -15  -4    0.45    0.30 
   5  15   4    0.34    0.17 
  -6 -15  -4    6.84    0.56 
   6  15   4    5.29    0.45 
  -7 -15  -4    2.48    0.35 
   7  15   4    2.59    0.52 
  -8 -15  -4    1.36    0.37 
   8  15   4    2.32    0.46 
  -2 -16  -4    0.01    1.02 
   2  16   4    0.10    5.74 
  -3 -16  -4    0.75    0.41 
   3  16   4    1.03    0.45 
  -4 -16  -4   11.81    0.85 
   4  16   4   11.74    0.71 
  -5 -16  -4    1.65    0.45 
   5  16   4    1.99    0.34 
  -6 -16  -4    0.06    0.32 
   6  16   4    0.00    0.34 
   5  13  -5    0.76    0.42 
  -5 -13   5    0.26    0.49 
  -3 -13   5    1.49    8.73 
   7  12  -5    0.08    0.31 
  -7 -12   5    0.22    0.27 
   6  12  -5    8.77    0.85 
  -6 -12   5    8.32    0.75 
   5  12  -5    1.17    0.25 
  -5 -12   5    1.23    0.41 
   4  12  -5    1.38    0.34 
  -4 -12   5    1.61    0.42 
   3  12  -5    0.08    0.33 
  -3 -12   5    0.00    0.87 
   2  12  -5    1.74    1.14 
  -2 -12   5    3.05    1.32 
   1  12  -5    3.05    1.14 
  -1 -12   5    5.23    7.66 
   0  12  -5    6.02    7.15 
   0 -12   5    5.81    6.82 
  -8 -11   5    5.02    0.61 
   7  11  -5    2.17    0.34 
  -7 -11   5    1.85    0.35 
   6  11  -5    0.08    0.12 
  -6 -11   5    0.00    0.23 
   5  11  -5    1.35    0.18 
  -5 -11   5    1.47    0.40 
   4  11  -5   17.26    0.52 
  -4 -11   5   18.04    0.94 
   3  11  -5    1.80    0.27 
  -3 -11   5    2.57    0.37 
   2  11  -5    1.18    0.56 
  -2 -11   5    1.12    0.61 
   1  11  -5    0.58    0.54 
  -1 -11   5    0.15    0.83 
   0  11  -5    5.91    0.72 
   0 -11   5    4.57    0.73 
  -1  11  -5    5.90    7.31 
   1 -11   5    8.36    1.14 
  -9 -10   5    0.24    0.32 
   8  10  -5    1.79    0.32 
  -8 -10   5    1.90    0.42 
   7  10  -5    1.47    0.20 
  -7 -10   5    1.90    0.34 
   6  10  -5   12.96    0.33 
  -6 -10   5   13.66    0.65 
   5  10  -5    1.96    0.15 
  -5 -10   5    2.01    0.33 
   4  10  -5    0.07    0.13 
  -4 -10   5    0.19    0.21 
   3  10  -5    5.89    0.26 
  -3 -10   5    6.31    0.43 
   2  10  -5   34.30    1.14 
  -2 -10   5   28.27    1.34 
   1  10  -5    1.77    0.53 
  -1 -10   5    2.17    0.39 
   0  10  -5    0.37    0.26 
   0 -10   5    0.42    0.27 
  -1  10  -5    2.16    0.78 
   1 -10   5    0.92    0.55 
  -2  10  -5    8.68    1.25 
   2 -10   5    8.28    1.14 
  -3  10  -5    4.79    8.33 
  -9  -9   5    3.17    0.45 
   8   9  -5    2.01    0.30 
  -8  -9   5    1.71    0.38 
   7   9  -5    0.17    0.13 
  -7  -9   5    0.17    0.23 
   6   9  -5    7.00    0.24 
  -6  -9   5    7.54    0.40 
   5   9  -5    3.62    0.18 
  -5  -9   5    4.62    0.35 
   4   9  -5   23.18    0.44 
  -4  -9   5   24.40    0.53 
   3   9  -5    0.70    0.13 
  -3  -9   5    0.96    0.20 
   2   9  -5    0.00    0.29 
  -2  -9   5    0.91    0.39 
   1   9  -5   11.89    0.73 
  -1  -9   5   14.20    0.70 
   0   9  -5   33.34    1.01 
   0  -9   5   32.09    1.03 
  -1   9  -5    1.12    0.38 
   1  -9   5    1.76    0.54 
  -2   9  -5    0.00    0.58 
   2  -9   5    0.42    0.58 
  -3   9  -5    3.07    0.51 
   3  -9   5    1.97    0.47 
  -4   9  -5    8.42    1.03 
   4  -9   5    7.20    0.61 
 -10  -8   5    0.73    0.31 
   9   8  -5    0.11    0.16 
  -9  -8   5    0.03    0.25 
   8   8  -5   13.78    0.57 
  -8  -8   5   14.04    0.73 
   7   8  -5    5.94    0.28 
  -7  -8   5    5.86    0.53 
   6   8  -5    3.58    0.18 
  -6  -8   5    4.03    0.30 
   5   8  -5    0.07    0.07 
  -5  -8   5    0.04    0.15 
   4   8  -5   16.34    0.33 
  -4  -8   5   17.77    0.43 
   3   8  -5    8.61    0.24 
  -3  -8   5    8.98    0.29 
   2   8  -5   27.86    0.74 
  -2  -8   5   32.07    0.76 
   1   8  -5    0.12    0.28 
  -1  -8   5    0.25    0.22 
   0   8  -5    1.09    0.18 
   0  -8   5    0.33    0.18 
  -1   8  -5   19.47    0.68 
   1  -8   5   21.41    0.74 
  -2   8  -5   31.11    1.26 
   2  -8   5   21.27    1.18 
  -3   8  -5    0.12    0.26 
   3  -8   5    0.49    0.21 
  -4   8  -5    0.28    0.32 
   4  -8   5    0.09    0.17 
  -5   8  -5    3.63    0.56 
   5  -8   5    2.60    0.38 
 -10  -7   5    2.68    0.38 
   9   7  -5    1.57    0.23 
  -9  -7   5    1.48    0.31 
   8   7  -5    0.94    0.20 
  -8  -7   5    0.52    0.25 
   7   7  -5    1.06    0.14 
  -7  -7   5    1.27    0.28 
   6   7  -5   31.85    0.45 
  -6  -7   5   33.32    0.69 
   5   7  -5    8.30    0.19 
  -5  -7   5    9.10    0.36 
   4   7  -5    6.10    0.20 
  -4  -7   5    6.65    0.24 
   3   7  -5    2.92    0.15 
  -3  -7   5    3.46    0.21 
   2   7  -5   27.90    0.81 
  -2  -7   5   29.70    0.77 
   1   7  -5   14.34    0.53 
  -1  -7   5   13.28    0.52 
   0   7  -5   25.86    0.82 
   0  -7   5   28.95    0.84 
  -1   7  -5    0.28    0.22 
   1  -7   5    0.00    0.28 
  -2   7  -5    1.23    0.37 
   2  -7   5    1.86    0.30 
  -3   7  -5   19.59    0.57 
   3  -7   5   18.61    0.42 
  -4   7  -5   19.10    0.75 
   4  -7   5   18.31    0.53 
  -5   7  -5    0.00    0.28 
   5  -7   5    0.13    0.15 
  -6   7  -5    0.23    0.33 
   6  -7   5    0.24    0.34 
 -11  -6   5    0.81    0.40 
  10   6  -5    1.59    0.21 
 -10  -6   5    1.39    0.30 
   9   6  -5    2.51    0.24 
  -9  -6   5    2.72    0.35 
   8   6  -5    7.06    0.34 
  -8  -6   5    7.52    0.49 
   7   6  -5    2.38    0.15 
  -7  -6   5    2.16    0.30 
   6   6  -5    0.04    0.06 
  -6  -6   5    0.06    0.12 
   5   6  -5    4.92    0.17 
  -5  -6   5    5.07    0.27 
   4   6  -5   58.55    0.61 
  -4  -6   5   62.17    0.75 
   3   6  -5    8.68    0.20 
  -3  -6   5    9.35    0.21 
   2   6  -5    6.05    0.24 
  -2  -6   5    6.68    0.25 
   1   6  -5   11.29    0.62 
  -1  -6   5   14.89    0.61 
   0   6  -5   33.75    0.74 
   0  -6   5   33.91    0.74 
  -1   6  -5   15.17    0.52 
   1  -6   5   13.44    0.55 
  -2   6  -5   16.59    0.75 
   2  -6   5   18.79    0.76 
  -3   6  -5    1.63    0.21 
   3  -6   5    1.83    0.16 
  -4   6  -5    1.51    0.24 
   4  -6   5    1.51    0.18 
  -5   6  -5   14.09    0.66 
   5  -6   5   13.24    0.35 
  -6   6  -5    8.97    0.74 
   6  -6   5    9.53    0.60 
  -7   6  -5    0.97    0.56 
 -11  -5   5    0.67    0.25 
  10   5  -5    1.83    0.20 
 -10  -5   5    2.67    0.35 
   9   5  -5    0.67    0.21 
  -9  -5   5    0.28    0.21 
   8   5  -5    4.71    0.38 
  -8  -5   5    6.46    0.43 
   7   5  -5    7.98    0.22 
  -7  -5   5    7.94    0.45 
   6   5  -5   13.78    0.23 
  -6  -5   5   15.31    0.39 
   5   5  -5    1.22    0.09 
  -5  -5   5    1.19    0.15 
   4   5  -5    0.67    0.07 
  -4  -5   5    0.65    0.09 
   3   5  -5   15.05    0.24 
  -3  -5   5   15.76    0.26 
   2   5  -5   77.70    1.19 
  -2  -5   5   85.56    1.12 
   1   5  -5    4.78    0.23 
  -1  -5   5    5.35    0.21 
   0   5  -5    3.59    0.20 
   0  -5   5    3.76    0.20 
  -1   5  -5   25.77    0.61 
   1  -5   5   28.49    0.64 
  -2   5  -5   30.08    0.76 
   2  -5   5   29.15    0.83 
  -3   5  -5   10.51    0.30 
   3  -5   5   10.01    0.25 
  -4   5  -5    4.70    0.26 
   4  -5   5    4.61    0.22 
  -5   5  -5    2.85    0.35 
   5  -5   5    2.67    0.16 
  -6   5  -5    0.93    0.28 
   6  -5   5    0.84    0.14 
  -7   5  -5    7.37    0.57 
   7  -5   5    7.11    0.53 
 -11  -4   5    0.26    0.31 
  10   4  -5    3.27    0.25 
 -10  -4   5    3.69    0.38 
   9   4  -5    1.14    0.17 
  -9  -4   5    1.33    0.25 
   8   4  -5    3.43    0.24 
  -8  -4   5    3.77    0.34 
   7   4  -5    0.06    0.10 
  -7  -4   5    0.03    0.15 
   6   4  -5   17.27    0.25 
  -6  -4   5   19.19    0.48 
   5   4  -5   18.06    0.29 
  -5  -4   5   20.17    0.43 
   4   4  -5   21.00    0.27 
  -4  -4   5   22.62    0.34 
   3   4  -5    0.35    0.05 
  -3  -4   5    0.29    0.06 
   2   4  -5    5.19    0.27 
  -2  -4   5    5.33    0.29 
   1   4  -5   28.04    0.70 
  -1  -4   5   29.95    0.67 
   0   4  -5   75.63    1.19 
   0  -4   5   76.24    1.20 
  -1   4  -5    1.39    0.21 
   1  -4   5    1.68    0.23 
  -2   4  -5    0.95    0.25 
   2  -4   5    1.16    0.24 
  -3   4  -5   30.25    0.48 
   3  -4   5   28.99    0.39 
  -4   4  -5   16.17    0.36 
   4  -4   5   14.99    0.32 
  -5   4  -5    4.83    0.33 
   5  -4   5    4.73    0.19 
  -6   4  -5    0.48    0.25 
   6  -4   5    0.34    0.11 
  -7   4  -5    2.14    0.35 
   7  -4   5    2.60    0.24 
  -8   4  -5    0.34    0.34 
 -11  -3   5    1.37    0.30 
  10   3  -5    0.21    0.13 
 -10  -3   5    0.28    0.26 
   9   3  -5    2.52    0.22 
  -9  -3   5    3.44    0.35 
   8   3  -5    8.98    0.34 
  -8  -3   5    9.50    0.44 
   7   3  -5    1.99    0.19 
  -7  -3   5    1.79    0.22 
   6   3  -5    3.64    0.11 
  -6  -3   5    3.80    0.22 
   5   3  -5    2.38    0.11 
  -5  -3   5    3.27    0.18 
   4   3  -5   44.48    0.41 
  -4  -3   5   48.65    0.48 
   3   3  -5   30.91    0.32 
  -3  -3   5   33.43    0.35 
   2   3  -5   22.73    0.26 
  -2  -3   5   24.80    0.30 
   1   3  -5    8.43    0.37 
  -1  -3   5   12.36    0.38 
   0   3  -5   14.78    0.31 
   0  -3   5   14.12    0.31 
  -1   3  -5   40.39    0.67 
   1  -3   5   42.52    0.69 
  -2   3  -5   46.59    0.96 
   2  -3   5   47.67    1.20 
  -3   3  -5    0.09    0.06 
   3  -3   5    0.06    0.06 
  -4   3  -5    0.09    0.09 
   4  -3   5    0.11    0.07 
  -5   3  -5   23.91    0.59 
   5  -3   5   21.49    0.34 
  -6   3  -5    7.18    0.37 
   6  -3   5    6.29    0.22 
  -7   3  -5    1.48    0.30 
   7  -3   5    1.45    0.18 
  -8   3  -5    0.01    0.30 
   8  -3   5    0.06    0.20 
 -11  -2   5    1.08    0.29 
  10   2  -5    1.77    0.19 
 -10  -2   5    2.74    0.45 
   9   2  -5    1.09    0.16 
  -9  -2   5    1.12    0.29 
   8   2  -5    2.53    0.20 
  -8  -2   5    2.63    0.29 
   7   2  -5   11.33    0.36 
  -7  -2   5   12.69    0.47 
   6   2  -5   21.61    0.26 
  -6  -2   5   23.50    0.51 
   5   2  -5    2.05    0.10 
  -5  -2   5    2.38    0.18 
   4   2  -5    0.97    0.07 
  -4  -2   5    1.09    0.07 
   3   2  -5   14.83    0.17 
  -3  -2   5   15.89    0.21 
   2   2  -5   87.73    0.79 
  -2  -2   5   90.52    0.91 
   1   2  -5   35.01    0.51 
  -1  -2   5   36.49    0.50 
   0   2  -5   14.66    0.30 
   0  -2   5   15.84    0.30 
  -1   2  -5   24.41    0.38 
   1  -2   5   27.78    0.37 
  -2   2  -5   20.31    0.34 
   2  -2   5   19.41    0.28 
  -3   2  -5   33.42    0.40 
   3  -2   5   30.49    0.36 
  -4   2  -5   15.59    0.31 
   4  -2   5   13.76    0.24 
  -5   2  -5    0.76    0.16 
   5  -2   5    0.73    0.07 
  -6   2  -5    0.57    0.17 
   6  -2   5    0.68    0.09 
  -7   2  -5   12.46    0.56 
   7  -2   5   11.22    0.35 
  -8   2  -5    2.29    0.42 
   8  -2   5    2.15    0.30 
  -9   2  -5    0.36    0.33 
 -11  -1   5    0.00    0.20 
  10   1  -5    4.51    0.26 
 -10  -1   5    5.61    0.44 
   9   1  -5    2.39    0.22 
  -9  -1   5    2.91    0.40 
   8   1  -5    5.23    0.27 
  -8  -1   5    5.37    0.44 
   7   1  -5    0.78    0.14 
  -7  -1   5    0.74    0.13 
   6   1  -5   10.83    0.19 
  -6  -1   5   12.24    0.35 
   5   1  -5   35.95    0.39 
  -5  -1   5   40.47    0.73 
   4   1  -5   38.83    0.34 
  -4  -1   5   41.79    0.38 
   3   1  -5    0.45    0.04 
  -3  -1   5    0.47    0.05 
   2   1  -5    0.90    0.06 
  -2  -1   5    1.03    0.08 
   1   1  -5   42.29    0.86 
  -1  -1   5   42.97    0.87 
   0   1  -5  108.21    1.56 
   0  -1   5  106.69    1.56 
  -1   1  -5   24.65    0.50 
   1  -1   5   26.51    0.50 
  -2   1  -5    4.18    0.18 
   2  -1   5    4.94    0.15 
  -3   1  -5   38.04    0.39 
   3  -1   5   35.31    0.33 
  -4   1  -5   15.72    0.29 
   4  -1   5   14.79    0.22 
  -5   1  -5   19.52    0.46 
   5  -1   5   17.58    0.27 
  -6   1  -5    2.55    0.22 
   6  -1   5    1.88    0.12 
  -7   1  -5    1.27    0.25 
   7  -1   5    1.00    0.14 
  -8   1  -5    0.86    0.30 
   8  -1   5    0.98    0.23 
  -9   1  -5    4.10    0.50 
 -11   0   5    1.16    0.38 
  10   0  -5    0.13    0.12 
 -10   0   5    0.00    0.19 
   9   0  -5    0.11    0.12 
  -9   0   5    0.07    0.17 
   8   0  -5   16.73    0.47 
  -8   0   5   18.55    0.79 
   7   0  -5    4.84    0.18 
  -7   0   5    5.77    0.31 
   6   0  -5   10.97    0.22 
  -6   0   5   12.45    0.35 
   5   0  -5    0.04    0.04 
  -5   0   5    0.04    0.09 
   4   0  -5   37.75    0.35 
  -4   0   5   40.91    0.40 
   3   0  -5   84.57    0.58 
  -3   0   5   90.67    0.71 
   2   0  -5   51.10    0.39 
  -2   0   5   53.18    0.44 
   1   0  -5    1.35    0.19 
  -1   0   5    1.81    0.15 
   0   0  -5    9.83    0.23 
   0   0   5    9.64    0.23 
  -1   0  -5   70.63    0.88 
   1   0   5   68.17    0.85 
  -2   0  -5   85.65    0.88 
   2   0   5   79.93    0.69 
  -3   0  -5    8.99    0.16 
   3   0   5    7.92    0.13 
  -4   0  -5    0.25    0.07 
   4   0   5    0.29    0.05 
  -5   0  -5   31.94    0.59 
   5   0   5   29.22    0.37 
  -6   0  -5    9.07    0.31 
   6   0   5    8.20    0.18 
  -7   0  -5    8.09    0.50 
   7   0   5    7.02    0.24 
  -8   0  -5    0.38    0.24 
   8   0   5    0.05    0.16 
  -9   0  -5    0.95    0.31 
   9   0   5    0.81    0.22 
 -10   0  -5    1.30    0.50 
  10  -1  -5    5.97    0.38 
 -10   1   5    5.70    0.50 
   9  -1  -5    1.35    0.19 
  -9   1   5    1.52    0.29 
   8  -1  -5    0.09    0.11 
  -8   1   5    0.00    0.15 
   7  -1  -5    3.05    0.17 
  -7   1   5    3.30    0.27 
   6  -1  -5   41.39    0.53 
  -6   1   5   47.06    1.02 
   5  -1  -5    9.18    0.17 
  -5   1   5   10.27    0.37 
   4  -1  -5   14.78    0.20 
  -4   1   5   15.75    0.23 
   3  -1  -5    4.14    0.07 
  -3   1   5    4.39    0.11 
   2  -1  -5   97.28    0.70 
  -2   1   5  102.52    0.81 
   1  -1  -5  135.61    1.34 
  -1   1   5  138.33    1.44 
   0  -1  -5   48.04    0.72 
   0   1   5   42.47    0.71 
  -1  -1  -5   11.57    0.18 
   1   1   5   11.76    0.17 
  -2  -1  -5   19.92    0.22 
   2   1   5   19.06    0.19 
  -3  -1  -5   64.88    0.55 
   3   1   5   60.08    0.43 
  -4  -1  -5   42.13    0.42 
   4   1   5   38.14    0.42 
  -5  -1  -5    1.50    0.14 
   5   1   5    1.24    0.08 
  -6  -1  -5    0.42    0.12 
   6   1   5    0.37    0.06 
  -7  -1  -5   17.97    0.66 
   7   1   5   16.93    0.32 
  -8  -1  -5    3.76    0.40 
   8   1   5    4.23    0.32 
  -9  -1  -5    2.41    0.36 
   9   1   5    2.21    0.26 
 -10  -1  -5    0.03    0.27 
  10  -2  -5    2.70    0.78 
 -10   2   5    1.94    0.35 
   9  -2  -5    2.27    0.23 
  -9   2   5    3.05    0.38 
   8  -2  -5   14.82    0.44 
  -8   2   5   17.24    0.56 
   7  -2  -5    0.89    0.11 
  -7   2   5    1.10    0.18 
   6  -2  -5    0.11    0.08 
  -6   2   5    0.14    0.13 
   5  -2  -5   16.12    0.24 
  -5   2   5   18.23    0.54 
   4  -2  -5   85.13    0.65 
  -4   2   5   91.48    0.88 
   3  -2  -5   11.90    0.16 
  -3   2   5   12.50    0.20 
   2  -2  -5   12.05    0.15 
  -2   2   5   12.27    0.18 
   1  -2  -5   18.74    0.26 
  -1   2   5   19.14    0.26 
   0  -2  -5  166.17    2.31 
   0   2   5  150.25    2.31 
  -1  -2  -5  133.72    1.42 
   1   2   5  128.87    1.30 
  -2  -2  -5   24.19    0.27 
   2   2   5   23.63    0.23 
  -3  -2  -5   21.19    0.23 
   3   2   5   19.68    0.18 
  -4  -2  -5   17.92    0.21 
   4   2   5   16.76    0.19 
  -5  -2  -5   42.08    0.65 
   5   2   5   37.50    0.41 
  -6  -2  -5   12.92    0.45 
   6   2   5   10.99    0.18 
  -7  -2  -5    0.00    0.15 
   7   2   5    0.10    0.08 
  -8  -2  -5    0.54    0.21 
   8   2   5    0.98    0.16 
  -9  -2  -5    7.46    0.50 
   9   2   5    7.24    0.38 
 -10  -2  -5    1.89    0.34 
 -10   3   5    1.85    0.38 
   9  -3  -5    0.07    0.15 
  -9   3   5    0.19    0.24 
   8  -3  -5    6.03    0.33 
  -8   3   5    7.23    0.41 
   7  -3  -5    7.67    0.24 
  -7   3   5    8.09    0.39 
   6  -3  -5   30.44    0.47 
  -6   3   5   33.51    0.75 
   5  -3  -5    0.02    0.05 
  -5   3   5    0.09    0.11 
   4  -3  -5    1.53    0.08 
  -4   3   5    1.52    0.12 
   3  -3  -5   53.53    0.44 
  -3   3   5   56.53    0.55 
   2  -3  -5  124.51    0.91 
  -2   3   5  129.47    1.02 
   1  -3  -5    6.18    0.12 
  -1   3   5    6.46    0.13 
   0  -3  -5    5.62    0.16 
   0   3   5    4.94    0.16 
  -1  -3  -5   37.33    0.40 
   1   3   5   36.82    0.37 
  -2  -3  -5  130.92    1.00 
   2   3   5  122.63    0.85 
  -3  -3  -5   76.37    0.61 
   3   3   5   72.09    0.48 
  -4  -3  -5    8.28    0.13 
   4   3   5    7.32    0.12 
  -5  -3  -5   21.16    0.46 
   5   3   5   19.96    0.26 
  -6  -3  -5    9.33    0.30 
   6   3   5    8.81    0.15 
  -7  -3  -5   19.54    0.61 
   7   3   5   18.81    0.46 
  -8  -3  -5    2.51    0.29 
   8   3   5    2.03    0.19 
  -9  -3  -5    0.04    0.19 
   9   3   5    0.08    0.11 
 -10  -3  -5    0.64    0.25 
  10   3   5    0.60    0.17 
   9  -4  -5    1.80    0.24 
  -9   4   5    2.96    0.46 
   8  -4  -5    4.10    0.32 
  -8   4   5    4.35    0.37 
   7  -4  -5    0.50    0.11 
  -7   4   5    0.44    0.20 
   6  -4  -5   16.19    0.30 
  -6   4   5   16.80    0.54 
   5  -4  -5   17.55    0.28 
  -5   4   5   18.81    0.53 
   4  -4  -5   47.25    0.48 
  -4   4   5   50.69    0.65 
   3  -4  -5    3.11    0.08 
  -3   4   5    3.20    0.12 
   2  -4  -5    5.74    0.12 
  -2   4   5    5.88    0.14 
   1  -4  -5  110.04    1.27 
  -1   4   5  114.81    1.55 
   0  -4  -5  126.37    1.76 
   0   4   5  120.68    1.75 
  -1  -4  -5    0.66    0.09 
   1   4   5    0.88    0.09 
  -2  -4  -5    0.24    0.05 
   2   4   5    0.23    0.04 
  -3  -4  -5   40.84    0.39 
   3   4   5   37.70    0.31 
  -4  -4  -5   68.12    0.59 
   4   4   5   61.90    0.49 
  -5  -4  -5   30.13    0.58 
   5   4   5   27.23    0.28 
  -6  -4  -5    1.19    0.14 
   6   4   5    0.98    0.05 
  -7  -4  -5   13.45    0.46 
   7   4   5   12.66    0.36 
  -8  -4  -5    3.64    0.30 
   8   4   5    3.33    0.23 
  -9  -4  -5    8.06    0.45 
   9   4   5    6.77    0.31 
 -10  -4  -5    0.09    0.19 
  10   4   5    0.46    0.14 
 -11  -4  -5    0.06    0.23 
   9  -5  -5    0.88    0.55 
  -9   5   5    1.40    0.41 
   8  -5  -5    6.32    0.32 
  -8   5   5    6.68    0.47 
   7  -5  -5    4.21    0.27 
  -7   5   5    4.51    0.38 
   6  -5  -5    5.03    0.19 
  -6   5   5    5.13    0.35 
   5  -5  -5    6.01    0.16 
  -5   5   5    6.11    0.35 
   4  -5  -5   31.06    0.38 
  -4   5   5   33.58    0.51 
   3  -5  -5   32.30    0.32 
  -3   5   5   33.57    0.42 
   2  -5  -5   47.32    0.43 
  -2   5   5   51.18    0.48 
   1  -5  -5   15.51    0.43 
  -1   5   5   17.57    0.46 
   0  -5  -5   12.49    0.27 
   0   5   5   11.43    0.26 
  -1  -5  -5  125.87    1.60 
   1   5   5  125.89    1.33 
  -2  -5  -5   75.68    0.65 
   2   5   5   72.24    0.57 
  -3  -5  -5    0.37    0.05 
   3   5   5    0.20    0.03 
  -4  -5  -5    0.90    0.07 
   4   5   5    0.83    0.06 
  -5  -5  -5   27.46    0.55 
   5   5   5   25.48    0.27 
  -6  -5  -5   26.14    0.54 
   6   5   5   22.42    0.34 
  -7  -5  -5   10.45    0.39 
   7   5   5    9.16    0.31 
  -8  -5  -5    0.00    0.14 
   8   5   5    0.04    0.10 
  -9  -5  -5    6.81    0.39 
   9   5   5    6.65    0.30 
 -10  -5  -5    1.52    0.27 
  10   5   5    1.21    0.16 
 -11  -5  -5    2.08    0.31 
   8  -6  -5    0.46    0.16 
  -8   6   5    0.13    0.24 
   7  -6  -5    4.51    0.29 
  -7   6   5    5.21    0.43 
   6  -6  -5   12.96    0.30 
  -6   6   5   14.48    0.58 
   5  -6  -5    4.58    0.16 
  -5   6   5    5.63    0.37 
   4  -6  -5    3.80    0.16 
  -4   6   5    4.34    0.22 
   3  -6  -5   24.00    0.31 
  -3   6   5   25.61    0.35 
   2  -6  -5   45.90    0.49 
  -2   6   5   49.51    0.52 
   1  -6  -5   42.74    0.69 
  -1   6   5   42.33    0.74 
   0  -6  -5   29.46    0.50 
   0   6   5   26.18    0.50 
  -1  -6  -5   31.48    0.46 
   1   6   5   33.47    0.43 
  -2  -6  -5   16.73    0.22 
   2   6   5   15.97    0.19 
  -3  -6  -5   82.50    0.75 
   3   6   5   77.04    0.58 
  -4  -6  -5   27.98    0.36 
   4   6   5   26.23    0.26 
  -5  -6  -5    2.47    0.21 
   5   6   5    2.15    0.09 
  -6  -6  -5    1.26    0.16 
   6   6   5    1.13    0.11 
  -7  -6  -5   13.78    0.37 
   7   6   5   11.55    0.35 
  -8  -6  -5    7.32    0.36 
   8   6   5    6.27    0.27 
  -9  -6  -5    3.13    0.31 
   9   6   5    2.43    0.20 
 -10  -6  -5    0.14    0.23 
  10   6   5    0.33    0.12 
 -11  -6  -5    2.13    0.40 
   8  -7  -5    1.96    0.35 
  -8   7   5    2.26    0.39 
   7  -7  -5    0.06    0.14 
  -7   7   5    0.00    0.21 
   6  -7  -5    3.38    0.23 
  -6   7   5    3.78    0.38 
   5  -7  -5   11.29    0.25 
  -5   7   5   12.45    0.54 
   4  -7  -5   20.84    0.35 
  -4   7   5   22.18    0.45 
   3  -7  -5    2.91    0.13 
  -3   7   5    3.00    0.19 
   2  -7  -5    1.18    0.11 
  -2   7   5    1.27    0.13 
   1  -7  -5   54.39    1.04 
  -1   7   5   52.34    1.06 
   0  -7  -5   48.96    0.78 
   0   7   5   45.02    0.78 
  -1  -7  -5   40.51    0.75 
   1   7   5   38.17    0.68 
  -2  -7  -5    7.18    0.16 
   2   7   5    6.38    0.15 
  -3  -7  -5   35.25    0.39 
   3   7   5   33.53    0.31 
  -4  -7  -5   14.39    0.31 
   4   7   5   12.41    0.20 
  -5  -7  -5   39.55    0.90 
   5   7   5   35.65    0.40 
  -6  -7  -5    6.04    0.30 
   6   7   5    5.58    0.18 
  -7  -7  -5    3.24    0.42 
   7   7   5    3.11    0.13 
  -8  -7  -5    0.82    0.21 
   8   7   5    0.99    0.15 
  -9  -7  -5    4.98    0.41 
   9   7   5    4.42    0.25 
 -10  -7  -5    1.15    0.28 
  10   7   5    0.85    0.14 
 -11  -7  -5    0.73    0.26 
   7  -8  -5    7.49    0.39 
  -7   8   5    8.32    0.58 
   6  -8  -5    3.60    0.28 
  -6   8   5    3.98    0.41 
   5  -8  -5    0.54    0.10 
  -5   8   5    0.30    0.22 
   4  -8  -5   11.04    0.27 
  -4   8   5   11.70    0.36 
   3  -8  -5   21.99    0.35 
  -3   8   5   23.04    0.49 
   2  -8  -5   22.58    0.35 
  -2   8   5   23.84    0.39 
   1  -8  -5    0.54    0.16 
  -1   8   5    0.66    0.16 
   0  -8  -5    0.00    0.06 
   0   8   5    0.06    0.06 
  -1  -8  -5   73.47    1.08 
   1   8   5   68.66    1.03 
  -2  -8  -5   28.94    0.38 
   2   8   5   27.53    0.36 
  -3  -8  -5   24.04    0.32 
   3   8   5   22.60    0.25 
  -4  -8  -5    0.08    0.08 
   4   8   5    0.16    0.06 
  -5  -8  -5   25.46    0.61 
   5   8   5   22.97    0.31 
  -6  -8  -5    6.87    0.32 
   6   8   5    6.20    0.20 
  -7  -8  -5   15.18    0.46 
   7   8   5   12.75    0.26 
  -8  -8  -5    0.52    0.17 
   8   8   5    0.44    0.13 
  -9  -8  -5    2.62    0.31 
   9   8   5    2.34    0.21 
 -10  -8  -5    0.55    0.21 
  10   8   5    0.56    0.12 
 -11  -8  -5    1.20    0.26 
   7  -9  -5    0.62    0.35 
  -7   9   5    0.72    0.39 
   6  -9  -5    7.61    0.45 
  -6   9   5    8.35    0.58 
   5  -9  -5   10.81    0.29 
  -5   9   5   11.73    0.59 
   4  -9  -5    4.45    0.22 
  -4   9   5    4.99    0.29 
   3  -9  -5    3.50    0.18 
  -3   9   5    4.15    0.26 
   2  -9  -5   24.77    0.58 
  -2   9   5   24.39    0.69 
   1  -9  -5   32.53    0.69 
  -1   9   5   34.37    0.76 
   0  -9  -5   15.76    0.41 
   0   9   5   15.17    0.40 
  -1  -9  -5    0.03    0.16 
   1   9   5    0.22    0.15 
  -2  -9  -5    2.27    0.15 
   2   9   5    1.97    0.12 
  -3  -9  -5   55.65    0.58 
   3   9   5   51.98    0.51 
  -4  -9  -5   11.76    0.30 
   4   9   5   11.21    0.22 
  -5  -9  -5    9.11    0.38 
   5   9   5    8.58    0.17 
  -6  -9  -5    1.21    0.19 
   6   9   5    0.93    0.12 
  -7  -9  -5   13.51    0.46 
   7   9   5   12.50    0.29 
  -8  -9  -5    2.79    0.31 
   8   9   5    2.07    0.21 
  -9  -9  -5    5.02    0.38 
   9   9   5    3.89    0.27 
 -10  -9  -5    0.27    0.18 
  10   9   5    0.00    0.10 
 -11  -9  -5    1.64    0.28 
   6 -10  -5    0.15    0.32 
  -6  10   5    0.01    0.27 
   5 -10  -5    2.18    0.23 
  -5  10   5    2.04    0.36 
   4 -10  -5   15.05    0.38 
  -4  10   5   16.35    0.52 
   3 -10  -5   11.25    0.29 
  -3  10   5   12.09    0.40 
   2 -10  -5    3.21    0.24 
  -2  10   5    2.89    0.35 
   1 -10  -5   13.21    0.44 
  -1  10   5   14.29    0.51 
   0 -10  -5   30.12    0.65 
   0  10   5   28.46    0.64 
  -1 -10  -5   28.68    0.77 
   1  10   5   29.15    0.68 
  -2 -10  -5    5.07    0.25 
   2  10   5    5.21    0.27 
  -3 -10  -5    1.52    0.15 
   3  10   5    1.32    0.10 
  -4 -10  -5    4.47    0.23 
   4  10   5    4.10    0.17 
  -5 -10  -5   29.71    0.75 
   5  10   5   27.62    0.35 
  -6 -10  -5    3.50    0.30 
   6  10   5    2.99    0.18 
  -7 -10  -5    2.22    0.25 
   7  10   5    2.20    0.18 
  -8 -10  -5    1.76    0.24 
   8  10   5    1.40    0.19 
  -9 -10  -5    6.92    0.48 
   9  10   5    5.33    0.30 
 -10 -10  -5    1.15    0.26 
  10  10   5    0.60    0.15 
 -11 -10  -5    1.67    0.29 
   5 -11  -5    0.21    0.22 
  -5  11   5    0.29    0.29 
   4 -11  -5    0.82    0.22 
  -4  11   5    0.70    0.26 
   3 -11  -5    6.70    0.43 
  -3  11   5    6.69    0.36 
   2 -11  -5   21.49    0.57 
  -2  11   5   22.08    0.72 
   1 -11  -5    8.41    0.33 
  -1  11   5    7.79    0.34 
   0 -11  -5    1.31    0.18 
   0  11   5    1.39    0.18 
  -1 -11  -5   15.92    0.52 
   1  11   5   16.56    0.43 
  -2 -11  -5   26.18    0.70 
   2  11   5   24.44    0.57 
  -3 -11  -5   20.92    0.53 
   3  11   5   20.15    0.33 
  -4 -11  -5    0.12    0.12 
   4  11   5    0.21    0.09 
  -5 -11  -5    2.04    0.27 
   5  11   5    1.91    0.12 
  -6 -11  -5    4.34    0.35 
   6  11   5    3.90    0.18 
  -7 -11  -5   11.88    0.51 
   7  11   5   10.39    0.35 
  -8 -11  -5    0.72    0.21 
   8  11   5    0.55    0.17 
  -9 -11  -5    0.82    0.26 
   9  11   5    0.23    0.15 
 -10 -11  -5    1.25    0.30 
  10  11   5    2.37    0.70 
   5 -12  -5    7.09    0.78 
   4 -12  -5    6.78    0.59 
  -4  12   5    7.12    0.57 
   3 -12  -5    0.16    0.32 
  -3  12   5    0.56    0.23 
   2 -12  -5    3.88    0.58 
  -2  12   5    4.00    0.63 
   1 -12  -5   10.34    0.47 
  -1  12   5    8.66    0.48 
   0 -12  -5   19.19    0.59 
   0  12   5   17.71    0.58 
  -1 -12  -5    4.10    0.34 
   1  12   5    3.56    0.32 
  -2 -12  -5    0.25    0.36 
   2  12   5    0.24    0.19 
  -3 -12  -5   19.78    0.48 
   3  12   5   17.84    0.34 
  -4 -12  -5   17.81    0.45 
   4  12   5   15.78    0.32 
  -5 -12  -5   10.81    0.52 
   5  12   5    9.29    0.23 
  -6 -12  -5    0.67    0.22 
   6  12   5    0.40    0.11 
  -7 -12  -5    1.94    0.29 
   7  12   5    1.70    0.19 
  -8 -12  -5    2.99    0.34 
   8  12   5    2.32    0.20 
  -9 -12  -5    3.30    0.46 
   9  12   5    3.72    0.30 
 -10 -12  -5    0.04    0.22 
   3 -13  -5   11.08    0.86 
  -3  13   5   11.26    0.78 
   2 -13  -5    6.75    1.08 
  -2  13   5    6.77    0.68 
   1 -13  -5    3.40    0.54 
  -1  13   5    2.94    0.56 
   0 -13  -5    5.86    0.39 
   0  13   5    5.56    0.39 
  -1 -13  -5   12.22    0.48 
   1  13   5   10.81    0.46 
  -2 -13  -5   10.55    0.75 
   2  13   5   10.66    0.56 
  -3 -13  -5    0.68    0.19 
   3  13   5    0.72    0.19 
  -4 -13  -5    0.23    0.17 
   4  13   5    0.12    0.11 
  -5 -13  -5   13.56    0.60 
   5  13   5   11.53    0.28 
  -6 -13  -5    8.79    0.53 
   6  13   5    8.24    0.37 
  -7 -13  -5    3.44    0.39 
   7  13   5    3.32    0.26 
  -8 -13  -5    1.25    0.28 
   8  13   5    1.26    0.19 
  -9 -13  -5    0.85    0.33 
   9  13   5    1.30    0.54 
   2 -14  -5    5.03    1.18 
  -2  14   5    6.17    1.24 
   1 -14  -5    9.55    1.27 
  -1  14   5   10.49    0.95 
   0 -14  -5    3.26    0.45 
   0  14   5    3.86    0.43 
  -1 -14  -5    3.96    0.59 
   1  14   5    3.62    0.54 
  -2 -14  -5    5.71    0.67 
   2  14   5    4.63    0.58 
  -3 -14  -5    9.14    0.41 
   3  14   5    9.38    0.46 
  -4 -14  -5    4.02    0.33 
   4  14   5    4.14    0.29 
  -5 -14  -5    0.07    0.21 
   5  14   5    0.03    0.12 
  -6 -14  -5    0.40    0.25 
   6  14   5    0.28    0.16 
  -7 -14  -5    6.53    0.51 
   7  14   5    5.47    0.33 
  -8 -14  -5    4.17    0.43 
   8  14   5    2.79    0.31 
  -9 -14  -5    1.16    0.38 
  -1  15   5    4.76    6.57 
   0 -15  -5    6.82    1.05 
   0  15   5    3.58    1.05 
  -1 -15  -5    7.85    1.01 
   1  15   5    7.25    1.27 
  -2 -15  -5    2.11    0.72 
   2  15   5    2.14    1.08 
  -3 -15  -5    7.08    0.44 
   3  15   5    6.48    0.53 
  -4 -15  -5    4.42    0.47 
   4  15   5    3.88    0.33 
  -5 -15  -5    5.04    0.49 
   5  15   5    4.78    0.30 
  -6 -15  -5    0.62    0.30 
   6  15   5    0.86    0.28 
  -7 -15  -5    0.23    0.24 
   7  15   5    0.08    0.29 
  -8 -15  -5    0.00    0.32 
   8  15   5    0.45    0.33 
  -1 -16  -5    4.05    7.06 
  -2 -16  -5    3.61    1.32 
   2  16   5    4.76    1.18 
  -3 -16  -5    4.08    0.56 
   3  16   5    4.53    0.67 
  -4 -16  -5    0.26    0.31 
   4  16   5    0.21    0.27 
  -5 -16  -5    6.50    0.72 
   5  16   5    7.17    0.55 
  -6 -16  -5    1.92    0.47 
   6  16   5    1.48    0.47 
  -6 -12   6    1.55    0.61 
   5  12  -6    0.31    0.26 
  -5 -12   6    0.00    0.34 
   4  12  -6    4.56    0.49 
  -4 -12   6    5.21    0.91 
   3  12  -6    7.49    1.22 
  -3 -12   6    8.20    1.40 
  -2 -12   6    2.31    7.22 
   7  11  -6    2.37    0.49 
  -7 -11   6    2.88    0.52 
   6  11  -6    1.72    0.46 
  -6 -11   6    2.93    0.51 
   5  11  -6    7.46    0.46 
  -5 -11   6    6.91    0.66 
   4  11  -6    0.52    0.23 
  -4 -11   6    0.71    0.36 
   3  11  -6    0.58    0.40 
  -3 -11   6    0.09    0.35 
   2  11  -6   12.00    1.40 
  -2 -11   6    7.76    1.55 
   1  11  -6   10.55    1.24 
  -1 -11   6    6.65    8.22 
   0  11  -6    2.84    0.56 
   0 -11   6    1.87    0.56 
  -8 -10   6    0.84    0.34 
   7  10  -6    1.72    0.26 
  -7 -10   6    2.04    0.42 
   6  10  -6    0.12    0.11 
  -6 -10   6    0.44    0.25 
   5  10  -6    6.61    0.31 
  -5 -10   6    6.36    0.61 
   4  10  -6    3.08    0.24 
  -4 -10   6    3.48    0.49 
   3  10  -6    9.13    0.50 
  -3 -10   6   10.38    0.61 
   2  10  -6    0.00    0.53 
  -2 -10   6    0.03    0.60 
   1  10  -6    0.00    0.54 
  -1 -10   6    1.27    0.53 
   0  10  -6   12.78    0.70 
   0 -10   6   11.46    0.71 
  -1  10  -6    7.92    7.85 
   1 -10   6    4.67    1.24 
  -2  10  -6    2.27    6.89 
  -9  -9   6    0.00    0.26 
   8   9  -6    2.30    0.33 
  -8  -9   6    1.98    0.41 
   7   9  -6    7.78    0.35 
  -7  -9   6    7.60    0.65 
   6   9  -6    0.78    0.12 
  -6  -9   6    0.64    0.20 
   5   9  -6    1.96    0.15 
  -5  -9   6    2.33    0.27 
   4   9  -6    1.36    0.16 
  -4  -9   6    1.56    0.25 
   3   9  -6   11.95    0.34 
  -3  -9   6   12.88    0.48 
   2   9  -6    3.66    0.39 
  -2  -9   6    3.51    0.53 
   1   9  -6    7.39    0.59 
  -1  -9   6    7.97    0.52 
   0   9  -6    0.08    0.19 
   0  -9   6    0.41    0.20 
  -1   9  -6    0.15    0.52 
   1  -9   6    2.76    0.55 
  -2   9  -6   12.30    1.46 
   2  -9   6    8.35    1.40 
  -3   9  -6    2.78    1.32 
   3  -9   6    3.11    1.22 
  -9  -8   6    1.55    0.38 
   8   8  -6    1.11    0.26 
  -8  -8   6    0.89    0.34 
   7   8  -6    0.09    0.12 
  -7  -8   6    0.00    0.24 
   6   8  -6    6.44    0.23 
  -6  -8   6    6.61    0.37 
   5   8  -6   16.19    0.32 
  -5  -8   6   16.88    0.53 
   4   8  -6    0.22    0.10 
  -4  -8   6    0.16    0.15 
   3   8  -6    0.96    0.14 
  -3  -8   6    1.33    0.18 
   2   8  -6    6.21    0.61 
  -2  -8   6    8.60    0.63 
   1   8  -6   14.26    0.68 
  -1  -8   6   15.35    0.64 
   0   8  -6    3.07    0.33 
   0  -8   6    3.58    0.33 
  -1   8  -6    4.42    0.51 
   1  -8   6    4.93    0.59 
  -2   8  -6    1.38    0.56 
   2  -8   6    1.18    0.55 
  -3   8  -6    3.16    0.46 
   3  -8   6    2.88    0.53 
  -4   8  -6    8.09    0.73 
   4  -8   6    7.76    0.61 
 -10  -7   6    0.68    0.30 
   9   7  -6    4.13    0.38 
  -9  -7   6    3.88    0.45 
   8   7  -6    0.44    0.20 
  -8  -7   6    0.06    0.24 
   7   7  -6    3.06    0.21 
  -7  -7   6    3.21    0.41 
   6   7  -6    0.22    0.09 
  -6  -7   6    0.25    0.16 
   5   7  -6    1.19    0.11 
  -5  -7   6    1.02    0.19 
   4   7  -6   14.49    0.30 
  -4  -7   6   15.40    0.41 
   3   7  -6   23.94    0.37 
  -3  -7   6   26.38    0.48 
   2   7  -6    0.04    0.30 
  -2  -7   6    0.18    0.30 
   1   7  -6    0.00    0.25 
  -1  -7   6    0.00    0.22 
   0   7  -6   17.16    0.65 
   0  -7   6   17.60    0.66 
  -1   7  -6   14.12    0.63 
   1  -7   6   15.19    0.69 
  -2   7  -6    2.33    0.50 
   2  -7   6    1.84    0.40 
  -3   7  -6    0.07    0.30 
   3  -7   6    0.73    0.17 
  -4   7  -6    2.15    0.44 
   4  -7   6    1.83    0.22 
  -5   7  -6    2.98    0.51 
   5  -7   6    2.49    0.37 
 -10  -6   6    0.79    0.29 
   9   6  -6    0.58    0.17 
  -9  -6   6    0.80    0.28 
   8   6  -6    4.68    0.32 
  -8  -6   6    5.12    0.49 
   7   6  -6   12.46    0.32 
  -7  -6   6   13.39    0.66 
   6   6  -6    1.24    0.11 
  -6  -6   6    1.17    0.21 
   5   6  -6    4.91    0.19 
  -5  -6   6    5.29    0.29 
   4   6  -6    0.79    0.10 
  -4  -6   6    0.86    0.12 
   3   6  -6    5.72    0.18 
  -3  -6   6    6.19    0.24 
   2   6  -6   27.47    0.79 
  -2  -6   6   29.43    0.75 
   1   6  -6   21.39    0.72 
  -1  -6   6   28.61    0.64 
   0   6  -6    1.81    0.21 
   0  -6   6    1.90    0.21 
  -1   6  -6    0.54    0.22 
   1  -6   6    0.39    0.25 
  -2   6  -6   24.47    0.62 
   2  -6   6   25.04    0.63 
  -3   6  -6    8.31    0.34 
   3  -6   6    8.18    0.30 
  -4   6  -6    0.70    0.31 
   4  -6   6    0.21    0.14 
  -5   6  -6    0.13    0.29 
   5  -6   6    0.14    0.14 
  -6   6  -6    2.11    0.46 
   6  -6   6    1.40    0.43 
  10   5  -6    0.66    0.46 
 -10  -5   6    0.38    0.25 
   9   5  -6    7.92    0.37 
  -9  -5   6    8.94    0.55 
   8   5  -6    1.22    0.19 
  -8  -5   6    1.45    0.29 
   7   5  -6    0.54    0.10 
  -7  -5   6    0.69    0.24 
   6   5  -6   18.81    0.30 
  -6  -5   6   20.74    0.58 
   5   5  -6   26.50    0.37 
  -5  -5   6   28.54    0.59 
   4   5  -6    3.12    0.14 
  -4  -5   6    3.62    0.18 
   3   5  -6    4.63    0.15 
  -3  -5   6    4.82    0.16 
   2   5  -6    7.71    0.58 
  -2  -5   6    8.61    0.43 
   1   5  -6   13.18    0.53 
  -1  -5   6   14.52    0.44 
   0   5  -6   38.20    0.75 
   0  -5   6   36.74    0.75 
  -1   5  -6   18.38    0.64 
   1  -5   6   25.33    0.74 
  -2   5  -6    4.75    0.30 
   2  -5   6    4.97    0.30 
  -3   5  -6    2.31    0.19 
   3  -5   6    1.62    0.15 
  -4   5  -6   23.88    0.60 
   4  -5   6   22.24    0.44 
  -5   5  -6    3.72    0.39 
   5  -5   6    3.22    0.20 
  -6   5  -6    0.00    0.24 
   6  -5   6    0.01    0.13 
  -7   5  -6    0.00    0.34 
   7  -5   6    0.27    0.31 
  10   4  -6    0.19    0.14 
 -10  -4   6    0.26    0.23 
   9   4  -6    1.65    0.20 
  -9  -4   6    2.19    0.32 
   8   4  -6    3.43    0.26 
  -8  -4   6    4.19    0.40 
   7   4  -6   17.89    0.33 
  -7  -4   6   20.47    0.73 
   6   4  -6    1.89    0.11 
  -6  -4   6    2.30    0.22 
   5   4  -6    0.07    0.06 
  -5  -4   6    0.01    0.09 
   4   4  -6   50.90    0.53 
  -4  -4   6   54.82    0.65 
   3   4  -6   48.28    0.48 
  -3  -4   6   52.14    0.53 
   2   4  -6    4.13    0.20 
  -2  -4   6    4.06    0.19 
   1   4  -6    1.78    0.16 
  -1  -4   6    1.79    0.16 
   0   4  -6   23.49    0.51 
   0  -4   6   23.18    0.51 
  -1   4  -6   15.65    0.44 
   1  -4   6   17.60    0.54 
  -2   4  -6   35.43    0.74 
   2  -4   6   35.32    0.80 
  -3   4  -6    8.02    0.27 
   3  -4   6    7.73    0.21 
  -4   4  -6    5.88    0.28 
   4  -4   6    5.46    0.21 
  -5   4  -6    3.78    0.32 
   5  -4   6    2.99    0.17 
  -6   4  -6   17.12    0.58 
   6  -4   6   15.73    0.36 
  -7   4  -6    0.47    0.35 
   7  -4   6    1.22    0.27 
  10   3  -6    1.83    0.21 
 -10  -3   6    1.60    0.40 
   9   3  -6    5.52    0.31 
  -9  -3   6    6.25    0.45 
   8   3  -6    0.88    0.16 
  -8  -3   6    1.59    0.26 
   7   3  -6    6.27    0.30 
  -7  -3   6    7.30    0.34 
   6   3  -6   13.55    0.23 
  -6  -3   6   14.31    0.43 
   5   3  -6   28.70    0.37 
  -5  -3   6   31.86    0.68 
   4   3  -6    1.82    0.09 
  -4  -3   6    1.99    0.12 
   3   3  -6    0.90    0.07 
  -3  -3   6    0.98    0.09 
   2   3  -6  106.22    1.40 
  -2  -3   6  111.34    1.45 
   1   3  -6   62.01    1.05 
  -1  -3   6   65.01    0.97 
   0   3  -6    3.02    0.15 
   0  -3   6    3.09    0.15 
  -1   3  -6    0.34    0.16 
   1  -3   6    0.48    0.16 
  -2   3  -6   35.23    0.52 
   2  -3   6   34.75    0.59 
  -3   3  -6   13.57    0.28 
   3  -3   6   12.68    0.25 
  -4   3  -6   24.68    0.46 
   4  -3   6   23.37    0.38 
  -5   3  -6    1.12    0.20 
   5  -3   6    1.43    0.12 
  -6   3  -6    4.94    0.35 
   6  -3   6    4.27    0.21 
  -7   3  -6    2.56    0.44 
   7  -3   6    2.95    0.24 
  -8   3  -6    8.17    0.74 
  10   2  -6    2.29    0.23 
 -10  -2   6    2.07    0.42 
   9   2  -6    8.00    0.35 
  -9  -2   6    8.68    0.67 
   8   2  -6    3.87    0.27 
  -8  -2   6    4.37    0.37 
   7   2  -6   10.68    0.37 
  -7  -2   6   11.40    0.39 
   6   2  -6    7.81    0.17 
  -6  -2   6    8.86    0.33 
   5   2  -6   18.38    0.27 
  -5  -2   6   20.35    0.50 
   4   2  -6   35.33    0.33 
  -4  -2   6   38.47    0.41 
   3   2  -6   34.28    0.32 
  -3  -2   6   37.30    0.38 
   2   2  -6    0.77    0.07 
  -2  -2   6    0.92    0.10 
   1   2  -6    5.59    0.23 
  -1  -2   6    5.81    0.25 
   0   2  -6  152.22    2.05 
   0  -2   6  144.24    2.05 
  -1   2  -6   54.44    0.97 
   1  -2   6   54.49    1.04 
  -2   2  -6    1.33    0.19 
   2  -2   6    1.03    0.20 
  -3   2  -6    1.00    0.10 
   3  -2   6    0.96    0.08 
  -4   2  -6   32.79    0.49 
   4  -2   6   30.56    0.42 
  -5   2  -6    7.14    0.34 
   5  -2   6    6.44    0.18 
  -6   2  -6   12.48    0.45 
   6  -2   6   11.27    0.27 
  -7   2  -6    0.00    0.23 
   7  -2   6    0.03    0.12 
  -8   2  -6    2.09    0.43 
   8  -2   6    2.41    0.35 
  10   1  -6    2.16    0.22 
 -10  -1   6    2.68    0.38 
   9   1  -6    0.24    0.14 
  -9  -1   6    0.24    0.25 
   8   1  -6    7.35    0.33 
  -8  -1   6    8.24    0.61 
   7   1  -6   18.49    0.38 
  -7  -1   6   20.27    0.52 
   6   1  -6    8.04    0.16 
  -6  -1   6    8.83    0.33 
   5   1  -6   14.44    0.23 
  -5  -1   6   16.23    0.43 
   4   1  -6   27.46    0.32 
  -4  -1   6   29.56    0.34 
   3   1  -6   39.94    0.34 
  -3  -1   6   43.17    0.42 
   2   1  -6   60.46    0.51 
  -2  -1   6   63.47    0.63 
   1   1  -6   24.42    0.35 
  -1  -1   6   25.33    0.36 
   0   1  -6    0.04    0.04 
   0  -1   6    0.03    0.04 
  -1   1  -6   13.37    0.26 
   1  -1   6   13.20    0.23 
  -2   1  -6  138.50    1.58 
   2  -1   6  129.43    1.36 
  -3   1  -6   30.98    0.37 
   3  -1   6   28.41    0.30 
  -4   1  -6    0.08    0.07 
   4  -1   6    0.06    0.06 
  -5   1  -6    2.80    0.23 
   5  -1   6    2.62    0.15 
  -6   1  -6   21.36    0.54 
   6  -1   6   19.14    0.34 
  -7   1  -6    2.89    0.41 
   7  -1   6    2.54    0.20 
  -8   1  -6    5.13    0.58 
   8  -1   6    4.02    0.38 
  -9   1  -6    0.00    0.27 
  10   0  -6    2.03    0.28 
 -10   0   6    2.29    0.36 
   9   0  -6    3.85    0.29 
  -9   0   6    4.97    0.52 
   8   0  -6    2.73    0.25 
  -8   0   6    3.16    0.42 
   7   0  -6    0.06    0.07 
  -7   0   6    0.01    0.14 
   6   0  -6   21.40    0.27 
  -6   0   6   24.10    0.57 
   5   0  -6   33.39    0.38 
  -5   0   6   36.75    0.72 
   4   0  -6   14.31    0.21 
  -4   0   6   15.33    0.24 
   3   0  -6   11.87    0.14 
  -3   0   6   12.93    0.20 
   2   0  -6   62.01    0.51 
  -2   0   6   65.19    0.62 
   1   0  -6   65.90    1.03 
  -1   0   6   64.88    1.04 
   0   0  -6   66.33    1.00 
   0   0   6   64.36    1.00 
  -1   0  -6   10.11    0.36 
   1   0   6   10.18    0.35 
  -2   0  -6    1.05    0.10 
   2   0   6    0.95    0.07 
  -3   0  -6   15.01    0.23 
   3   0   6   14.20    0.20 
  -4   0  -6   85.12    0.89 
   4   0   6   77.80    0.72 
  -5   0  -6   11.52    0.35 
   5   0   6    9.41    0.21 
  -6   0  -6    0.01    0.14 
   6   0   6    0.11    0.07 
  -7   0  -6    3.35    0.40 
   7   0   6    2.96    0.19 
  -8   0  -6    9.15    0.64 
   8   0   6    8.19    0.46 
  -9   0  -6    0.69    0.32 
  10  -1  -6    0.19    0.56 
 -10   1   6    0.24    0.25 
   9  -1  -6    5.00    0.33 
  -9   1   6    6.37    0.50 
   8  -1  -6    5.06    0.29 
  -8   1   6    5.82    0.53 
   7  -1  -6    9.18    0.23 
  -7   1   6   10.34    0.46 
   6  -1  -6    1.06    0.08 
  -6   1   6    1.45    0.21 
   5  -1  -6    2.17    0.11 
  -5   1   6    2.30    0.23 
   4  -1  -6   53.48    0.44 
  -4   1   6   58.66    0.59 
   3  -1  -6   41.43    0.35 
  -3   1   6   44.80    0.44 
   2  -1  -6   16.47    0.18 
  -2   1   6   17.14    0.23 
   1  -1  -6    4.54    0.13 
  -1   1   6    4.42    0.14 
   0  -1  -6   93.62    1.35 
   0   1   6   89.34    1.34 
  -1  -1  -6   72.57    1.05 
   1   1   6   69.21    1.02 
  -2  -1  -6   41.77    0.49 
   2   1   6   38.94    0.37 
  -3  -1  -6    0.73    0.07 
   3   1   6    0.71    0.05 
  -4  -1  -6    3.27    0.14 
   4   1   6    2.87    0.09 
  -5  -1  -6    9.35    0.30 
   5   1   6    8.71    0.19 
  -6  -1  -6   41.25    0.86 
   6   1   6   36.73    0.44 
  -7  -1  -6    2.72    0.34 
   7   1   6    1.91    0.14 
  -8  -1  -6    0.14    0.23 
   8   1   6    0.08    0.16 
  -9  -1  -6    1.98    0.38 
   9   1   6    2.19    0.28 
 -10  -1  -6    2.88    0.64 
 -10   2   6    0.59    0.30 
   9  -2  -6    1.16    0.19 
  -9   2   6    1.25    0.31 
   8  -2  -6    0.11    0.13 
  -8   2   6    0.09    0.16 
   7  -2  -6   13.30    0.30 
  -7   2   6   16.48    0.60 
   6  -2  -6    9.20    0.20 
  -6   2   6   10.49    0.46 
   5  -2  -6   15.40    0.24 
  -5   2   6   16.59    0.55 
   4  -2  -6    0.33    0.05 
  -4   2   6    0.16    0.08 
   3  -2  -6   10.89    0.14 
  -3   2   6   11.81    0.22 
   2  -2  -6   99.85    0.70 
  -2   2   6  104.06    0.85 
   1  -2  -6   31.89    0.42 
  -1   2   6   33.40    0.44 
   0  -2  -6    8.86    0.22 
   0   2   6    8.04    0.22 
  -1  -2  -6    0.20    0.14 
   1   2   6    0.16    0.13 
  -2  -2  -6   89.47    0.77 
   2   2   6   85.42    0.65 
  -3  -2  -6   42.85    0.41 
   3   2   6   38.80    0.32 
  -4  -2  -6   14.41    0.21 
   4   2   6   12.47    0.20 
  -5  -2  -6    0.14    0.12 
   5   2   6    0.22    0.06 
  -6  -2  -6    3.09    0.25 
   6   2   6    2.83    0.12 
  -7  -2  -6    3.98    0.38 
   7   2   6    3.95    0.18 
  -8  -2  -6   15.50    0.69 
   8   2   6   13.78    0.46 
  -9  -2  -6    0.23    0.25 
   9   2   6    0.31    0.17 
 -10  -2  -6    0.17    0.26 
 -10   3   6    1.72    0.49 
   9  -3  -6    4.77    0.34 
  -9   3   6    5.57    0.53 
   8  -3  -6    0.56    0.17 
  -8   3   6    0.78    0.22 
   7  -3  -6    0.75    0.12 
  -7   3   6    0.98    0.21 
   6  -3  -6    4.15    0.16 
  -6   3   6    4.79    0.31 
   5  -3  -6   26.81    0.36 
  -5   3   6   34.14    0.88 
   4  -3  -6   15.48    0.23 
  -4   3   6   16.62    0.34 
   3  -3  -6   17.00    0.19 
  -3   3   6   17.90    0.26 
   2  -3  -6    8.46    0.14 
  -2   3   6    8.93    0.16 
   1  -3  -6   28.08    0.64 
  -1   3   6   27.47    0.63 
   0  -3  -6  122.36    1.79 
   0   3   6  115.05    1.78 
  -1  -3  -6   14.96    0.48 
   1   3   6   15.34    0.38 
  -2  -3  -6    1.22    0.08 
   2   3   6    1.08    0.06 
  -3  -3  -6    3.37    0.11 
   3   3   6    3.21    0.08 
  -4  -3  -6   57.57    0.54 
   4   3   6   52.64    0.50 
  -5  -3  -6   17.90    0.46 
   5   3   6   15.91    0.24 
  -6  -3  -6    2.40    0.21 
   6   3   6    1.97    0.10 
  -7  -3  -6    1.40    0.25 
   7   3   6    1.29    0.17 
  -8  -3  -6    1.27    0.27 
   8   3   6    1.42    0.18 
  -9  -3  -6    0.89    0.27 
   9   3   6    0.82    0.17 
 -10  -3  -6    4.48    0.47 
   9  -4  -6    0.07    0.57 
  -9   4   6    0.67    0.31 
   8  -4  -6    5.98    0.37 
  -8   4   6    6.66    0.44 
   7  -4  -6   11.63    0.32 
  -7   4   6   12.93    0.52 
   6  -4  -6    0.11    0.08 
  -6   4   6    0.51    0.18 
   5  -4  -6    0.12    0.05 
  -5   4   6    0.17    0.14 
   4  -4  -6   20.56    0.29 
  -4   4   6   22.97    0.40 
   3  -4  -6   51.09    0.46 
  -3   4   6   54.29    0.57 
   2  -4  -6   17.91    0.22 
  -2   4   6   18.61    0.25 
   1  -4  -6    8.67    0.16 
  -1   4   6    8.40    0.18 
   0  -4  -6   26.82    0.49 
   0   4   6   25.55    0.49 
  -1  -4  -6   40.97    0.57 
   1   4   6   39.90    0.56 
  -2  -4  -6   86.06    0.73 
   2   4   6   82.34    0.60 
  -3  -4  -6    1.82    0.09 
   3   4   6    1.78    0.07 
  -4  -4  -6    0.17    0.06 
   4   4   6    0.24    0.05 
  -5  -4  -6    5.98    0.26 
   5   4   6    5.46    0.14 
  -6  -4  -6   27.69    0.61 
   6   4   6   24.54    0.30 
  -7  -4  -6    5.31    0.36 
   7   4   6    4.68    0.27 
  -8  -4  -6    0.20    0.19 
   8   4   6    0.00    0.12 
  -9  -4  -6    1.45    0.28 
   9   4   6    1.57    0.19 
 -10  -4  -6    0.06    0.22 
  10   4   6    0.13    0.14 
  -9   5   6    2.30    0.48 
   8  -5  -6    0.19    0.14 
  -8   5   6    0.24    0.23 
   7  -5  -6    2.73    0.20 
  -7   5   6    2.91    0.33 
   6  -5  -6   15.64    0.28 
  -6   5   6   16.76    0.58 
   5  -5  -6   20.75    0.30 
  -5   5   6   22.44    0.64 
   4  -5  -6    0.10    0.07 
  -4   5   6    0.08    0.10 
   3  -5  -6    0.96    0.08 
  -3   5   6    0.97    0.09 
   2  -5  -6   56.00    0.55 
  -2   5   6   59.37    0.55 
   1  -5  -6   61.24    0.81 
  -1   5   6   61.22    0.82 
   0  -5  -6   14.48    0.31 
   0   5   6   13.75    0.30 
  -1  -5  -6    0.96    0.18 
   1   5   6    0.79    0.13 
  -2  -5  -6   38.63    0.40 
   2   5   6   37.15    0.34 
  -3  -5  -6   38.51    0.43 
   3   5   6   36.18    0.30 
  -4  -5  -6   41.47    0.48 
   4   5   6   37.58    0.36 
  -5  -5  -6    0.36    0.11 
   5   5   6    0.27    0.06 
  -6  -5  -6    1.49    0.17 
   6   5   6    1.53    0.08 
  -7  -5  -6    4.54    0.26 
   7   5   6    3.85    0.24 
  -8  -5  -6   10.20    0.48 
   8   5   6   10.21    0.36 
  -9  -5  -6    0.95    0.24 
   9   5   6    0.75    0.16 
 -10  -5  -6    0.10    0.21 
  10   5   6    0.07    0.17 
   8  -6  -6    2.51    0.24 
  -8   6   6    2.98    0.39 
   7  -6  -6    2.98    0.22 
  -7   6   6    3.26    0.37 
   6  -6  -6    2.61    0.17 
  -6   6   6    2.92    0.32 
   5  -6  -6    9.02    0.21 
  -5   6   6   10.19    0.47 
   4  -6  -6   30.32    0.40 
  -4   6   6   33.76    0.55 
   3  -6  -6   26.95    0.33 
  -3   6   6   29.32    0.39 
   2  -6  -6    3.17    0.14 
  -2   6   6    3.12    0.13 
   1  -6  -6    5.48    0.25 
  -1   6   6    5.69    0.28 
   0  -6  -6   94.59    1.37 
   0   6   6   88.06    1.36 
  -1  -6  -6   40.29    0.82 
   1   6   6   39.70    0.80 
  -2  -6  -6    5.82    0.16 
   2   6   6    5.62    0.12 
  -3  -6  -6    1.13    0.08 
   3   6   6    0.98    0.06 
  -4  -6  -6   32.90    0.51 
   4   6   6   30.25    0.31 
  -5  -6  -6   24.22    0.65 
   5   6   6   21.76    0.29 
  -6  -6  -6   13.97    0.48 
   6   6   6   12.44    0.19 
  -7  -6  -6    1.79    0.18 
   7   6   6    1.67    0.13 
  -8  -6  -6    1.57    0.23 
   8   6   6    1.70    0.19 
  -9  -6  -6    1.80    0.27 
   9   6   6    1.79    0.19 
 -10  -6  -6    3.32    0.53 
  10   6   6    3.43    0.25 
 -11  -6  -6    0.00    0.29 
   8  -7  -6    5.26    0.51 
  -8   7   6    5.25    0.49 
   7  -7  -6    6.14    0.35 
  -7   7   6    7.40    0.52 
   6  -7  -6    5.98    0.25 
  -6   7   6    5.56    0.43 
   5  -7  -6    2.43    0.14 
  -5   7   6    2.23    0.29 
   4  -7  -6   10.06    0.25 
  -4   7   6   11.02    0.33 
   3  -7  -6   19.96    0.30 
  -3   7   6   21.17    0.42 
   2  -7  -6   46.79    0.58 
  -2   7   6   48.90    0.61 
   1  -7  -6   23.46    0.39 
  -1   7   6   24.01    0.42 
   0  -7  -6   10.62    0.28 
   0   7   6   10.39    0.28 
  -1  -7  -6   12.45    0.28 
   1   7   6   12.39    0.25 
  -2  -7  -6   93.50    0.78 
   2   7   6   88.01    0.77 
  -3  -7  -6   15.78    0.25 
   3   7   6   14.85    0.19 
  -4  -7  -6    1.25    0.13 
   4   7   6    1.21    0.08 
  -5  -7  -6    4.47    0.31 
   5   7   6    4.04    0.14 
  -6  -7  -6   18.79    0.58 
   6   7   6   17.16    0.27 
  -7  -7  -6   11.31    0.45 
   7   7   6   10.14    0.23 
  -8  -7  -6    2.80    0.38 
   8   7   6    2.40    0.22 
  -9  -7  -6    1.75    0.33 
   9   7   6    1.63    0.19 
 -10  -7  -6    0.74    0.29 
  10   7   6    1.15    0.17 
 -11  -7  -6    0.42    0.31 
   7  -8  -6    0.09    0.16 
  -7   8   6    0.16    0.25 
   6  -8  -6   12.99    0.40 
  -6   8   6   14.54    0.65 
   5  -8  -6   11.36    0.27 
  -5   8   6   12.60    0.58 
   4  -8  -6    8.30    0.25 
  -4   8   6    9.72    0.34 
   3  -8  -6    0.68    0.11 
  -3   8   6    0.92    0.15 
   2  -8  -6   23.79    0.54 
  -2   8   6   26.18    0.50 
   1  -8  -6   29.24    0.64 
  -1   8   6   27.97    0.62 
   0  -8  -6   53.41    0.91 
   0   8   6   47.39    0.90 
  -1  -8  -6   10.13    0.42 
   1   8   6   10.10    0.38 
  -2  -8  -6   15.35    0.26 
   2   8   6   14.17    0.24 
  -3  -8  -6   14.12    0.24 
   3   8   6   13.58    0.21 
  -4  -8  -6   63.59    0.79 
   4   8   6   57.14    0.57 
  -5  -8  -6    2.82    0.24 
   5   8   6    2.47    0.13 
  -6  -8  -6    0.01    0.13 
   6   8   6    0.03    0.06 
  -7  -8  -6    4.26    0.32 
   7   8   6    3.58    0.19 
  -8  -8  -6    9.07    0.56 
   8   8   6    7.73    0.35 
  -9  -8  -6    4.37    0.45 
   9   8   6    3.32    0.25 
 -10  -8  -6    0.47    0.23 
  10   8   6    0.28    0.13 
 -11  -8  -6    1.39    0.30 
   7  -9  -6    2.09    0.39 
  -7   9   6    2.42    0.50 
   6  -9  -6    0.20    0.20 
  -6   9   6    0.34    0.26 
   5  -9  -6    0.53    0.12 
  -5   9   6    0.55    0.26 
   4  -9  -6   24.95    0.45 
  -4   9   6   25.98    0.61 
   3  -9  -6   14.99    0.32 
  -3   9   6   16.70    0.44 
   2  -9  -6    7.16    0.27 
  -2   9   6    8.18    0.31 
   1  -9  -6    0.10    0.20 
  -1   9   6    0.00    0.20 
   0  -9  -6   39.50    0.76 
   0   9   6   37.12    0.75 
  -1  -9  -6   25.80    0.63 
   1   9   6   23.90    0.62 
  -2  -9  -6   39.30    0.54 
   2   9   6   37.23    0.51 
  -3  -9  -6    0.62    0.10 
   3   9   6    0.56    0.08 
  -4  -9  -6   13.10    0.32 
   4   9   6   12.05    0.23 
  -5  -9  -6   11.31    0.44 
   5   9   6    9.63    0.19 
  -6  -9  -6   29.91    0.74 
   6   9   6   27.12    0.41 
  -7  -9  -6    0.22    0.15 
   7   9   6    0.17    0.09 
  -8  -9  -6    0.18    0.19 
   8   9   6    0.20    0.14 
  -9  -9  -6    2.36    0.33 
   9   9   6    2.12    0.22 
 -10  -9  -6    3.12    0.38 
  10   9   6    2.86    0.24 
 -11  -9  -6    1.53    0.32 
   6 -10  -6    6.84    0.78 
  -6  10   6    5.94    0.53 
   5 -10  -6    1.77    0.19 
  -5  10   6    1.94    0.35 
   4 -10  -6    0.12    0.14 
  -4  10   6    0.03    0.17 
   3 -10  -6    3.35    0.18 
  -3  10   6    3.87    0.28 
   2 -10  -6   35.15    0.72 
  -2  10   6   39.12    0.96 
   1 -10  -6   15.67    0.42 
  -1  10   6   15.31    0.46 
   0 -10  -6    4.62    0.25 
   0  10   6    4.20    0.25 
  -1 -10  -6    2.10    0.20 
   1  10   6    1.73    0.20 
  -2 -10  -6   40.07    0.60 
   2  10   6   38.91    0.60 
  -3 -10  -6   14.56    0.40 
   3  10   6   14.11    0.25 
  -4 -10  -6   20.79    0.43 
   4  10   6   20.05    0.32 
  -5 -10  -6    0.68    0.19 
   5  10   6    0.54    0.08 
  -6 -10  -6    7.48    0.40 
   6  10   6    6.49    0.20 
  -7 -10  -6    6.25    0.38 
   7  10   6    5.45    0.23 
  -8 -10  -6   11.03    0.48 
   8  10   6    9.45    0.39 
  -9 -10  -6    0.00    0.21 
   9  10   6    0.00    0.13 
 -10 -10  -6    0.24    0.23 
  10  10   6    0.32    0.17 
   5 -11  -6    7.70    0.48 
  -5  11   6    7.55    0.59 
   4 -11  -6   10.06    0.38 
  -4  11   6   10.77    0.61 
   3 -11  -6    1.02    0.25 
  -3  11   6    0.88    0.21 
   2 -11  -6    0.51    0.30 
  -2  11   6    0.47    0.39 
   1 -11  -6    9.52    0.44 
  -1  11   6    8.70    0.45 
   0 -11  -6   33.57    0.81 
   0  11   6   32.06    0.80 
  -1 -11  -6    8.69    0.46 
   1  11   6    9.04    0.41 
  -2 -11  -6    1.40    0.31 
   2  11   6    1.57    0.23 
  -3 -11  -6    3.90    0.23 
   3  11   6    3.87    0.18 
  -4 -11  -6   28.29    0.53 
   4  11   6   26.50    0.41 
  -5 -11  -6    6.11    0.39 
   5  11   6    5.23    0.18 
  -6 -11  -6    8.53    0.45 
   6  11   6    7.83    0.24 
  -7 -11  -6    1.81    0.28 
   7  11   6    1.66    0.16 
  -8 -11  -6    3.43    0.34 
   8  11   6    2.50    0.26 
  -9 -11  -6    2.40    0.39 
   9  11   6    2.22    0.23 
 -10 -11  -6    3.35    0.45 
  10  11   6    2.71    0.78 
   5 -12  -6    0.13    0.37 
   4 -12  -6    5.43    0.45 
  -4  12   6    6.69    0.56 
   3 -12  -6   12.80    0.58 
  -3  12   6   12.01    0.55 
   2 -12  -6    9.13    0.66 
  -2  12   6   10.55    0.71 
   1 -12  -6    0.02    0.24 
  -1  12   6    0.24    0.25 
   0 -12  -6    2.07    0.23 
   0  12   6    2.06    0.23 
  -1 -12  -6   11.19    0.45 
   1  12   6   10.93    0.44 
  -2 -12  -6   20.17    1.00 
   2  12   6   22.62    0.70 
  -3 -12  -6    2.85    0.24 
   3  12   6    2.98    0.17 
  -4 -12  -6    0.12    0.14 
   4  12   6    0.14    0.10 
  -5 -12  -6    4.86    0.40 
   5  12   6    4.40    0.18 
  -6 -12  -6   13.70    0.59 
   6  12   6   12.46    0.31 
  -7 -12  -6    1.64    0.29 
   7  12   6    1.24    0.16 
  -8 -12  -6    2.31    0.31 
   8  12   6    1.86    0.20 
  -9 -12  -6    2.20    0.39 
   9  12   6    1.36    0.22 
 -10 -12  -6    0.43    0.28 
   3 -13  -6    2.08    1.01 
  -3  13   6    0.00    0.41 
   2 -13  -6    8.49    0.96 
  -2  13   6    9.89    0.82 
   1 -13  -6   13.18    0.84 
  -1  13   6   15.58    0.73 
   0 -13  -6    7.72    0.43 
   0  13   6    7.18    0.43 
  -1 -13  -6    0.13    0.25 
   1  13   6    0.36    0.23 
  -2 -13  -6    3.48    0.41 
   2  13   6    3.43    0.29 
  -3 -13  -6    9.75    0.40 
   3  13   6    9.01    0.31 
  -4 -13  -6   11.97    0.44 
   4  13   6   11.31    0.32 
  -5 -13  -6    0.36    0.24 
   5  13   6    0.16    0.10 
  -6 -13  -6    0.13    0.22 
   6  13   6    0.02    0.12 
  -7 -13  -6    4.09    0.41 
   7  13   6    3.30    0.26 
  -8 -13  -6    4.57    0.43 
   8  13   6    3.95    0.28 
  -9 -13  -6    0.49    0.32 
   9  13   6    0.00    0.46 
   2 -14  -6    0.15    0.91 
  -2  14   6    0.00    0.94 
   1 -14  -6    2.00    0.58 
  -1  14   6    0.85    0.61 
   0 -14  -6   11.42    0.68 
   0  14   6   11.44    0.67 
  -1 -14  -6   10.87    0.76 
   1  14   6   13.05    0.84 
  -2 -14  -6    3.46    0.75 
   2  14   6    4.90    0.66 
  -3 -14  -6    1.54    0.23 
   3  14   6    1.55    0.27 
  -4 -14  -6    4.74    0.34 
   4  14   6    4.79    0.29 
  -5 -14  -6    5.72    0.47 
   5  14   6    5.19    0.26 
  -6 -14  -6    4.01    0.43 
   6  14   6    3.83    0.30 
  -7 -14  -6    0.00    0.23 
   7  14   6    0.19    0.16 
  -8 -14  -6    0.10    0.24 
   8  14   6    0.17    0.19 
  -9 -14  -6    1.85    0.45 
   1 -15  -6    0.29    4.68 
   0 -15  -6    0.00    0.37 
   0  15   6    0.00    0.37 
  -1 -15  -6    1.90    0.65 
   1  15   6    0.55    0.59 
  -2 -15  -6    9.96    0.87 
   2  15   6   11.18    0.98 
  -3 -15  -6    8.33    0.51 
   3  15   6    7.03    0.50 
  -4 -15  -6    0.53    0.29 
   4  15   6    0.48    0.18 
  -5 -15  -6    2.15    0.38 
   5  15   6    2.16    0.22 
  -6 -15  -6    4.38    0.47 
   6  15   6    2.90    0.31 
  -7 -15  -6    3.00    0.41 
   7  15   6    1.68    0.35 
  -8 -15  -6    0.48    0.37 
   8  15   6    0.48    0.33 
   1  16   6    0.05    5.03 
  -2 -16  -6    0.00    1.00 
   2  16   6    0.17    0.91 
  -3 -16  -6    2.35    0.59 
   3  16   6    0.15    1.01 
  -4 -16  -6    6.38    0.57 
   4  16   6    5.14    0.50 
  -5 -16  -6    3.79    0.57 
   5  16   6    3.49    0.41 
  -6 -16  -6    0.23    0.33 
   6  16   6    0.00    0.35 
   6  11  -7    0.00    0.32 
  -6 -11   7    0.81    0.54 
   5  11  -7    4.80    0.48 
  -5 -11   7    4.56    0.60 
   4  11  -7    3.53    0.44 
  -4 -11   7    3.01    0.71 
   3  11  -7    1.89    0.52 
  -3 -11   7    2.36    1.12 
   2  11  -7    1.78    0.92 
  -2 -11   7    0.93    6.43 
   1  11  -7    2.83    6.20 
  -1 -11   7    1.87    6.48 
  -8 -10   7    0.68    0.58 
   7  10  -7    3.35    0.53 
  -7 -10   7    2.91    0.51 
   6  10  -7    3.62    0.28 
  -6 -10   7    4.39    0.60 
   5  10  -7    0.17    0.15 
  -5 -10   7    0.17    0.30 
   4  10  -7    0.15    0.15 
  -4 -10   7    0.25    0.30 
   3  10  -7    9.76    0.59 
  -3 -10   7   10.66    0.70 
   2  10  -7    4.89    1.07 
  -2 -10   7    4.51    1.15 
   1  10  -7    0.81    0.90 
  -1 -10   7    1.79    6.01 
   0  10  -7    0.15    0.41 
   0 -10   7    0.08    0.40 
  -1  10  -7    3.12    6.18 
   1 -10   7    1.69    5.91 
  -8  -9   7    2.47    0.46 
   7   9  -7    1.80    0.22 
  -7  -9   7    2.00    0.42 
   6   9  -7    2.04    0.17 
  -6  -9   7    2.95    0.36 
   5   9  -7    8.58    0.33 
  -5  -9   7    9.10    0.47 
   4   9  -7    6.04    0.31 
  -4  -9   7    6.61    0.51 
   3   9  -7    0.26    0.14 
  -3  -9   7    0.15    0.20 
   2   9  -7    0.22    0.62 
  -2  -9   7    1.27    1.01 
   1   9  -7   19.60    1.21 
  -1  -9   7   15.65    1.28 
   0   9  -7    6.00    0.57 
   0  -9   7    4.74    0.57 
  -1   9  -7    1.93    5.73 
   1  -9   7    3.94    0.90 
  -2   9  -7    0.00    6.13 
   2  -9   7    0.00    0.92 
  -3   9  -7    4.47    0.86 
  -9  -8   7    2.15    0.42 
   8   8  -7    1.97    0.32 
  -8  -8   7    2.92    0.47 
   7   8  -7    3.89    0.26 
  -7  -8   7    4.37    0.53 
   6   8  -7    4.23    0.22 
  -6  -8   7    4.28    0.39 
   5   8  -7    5.35    0.21 
  -5  -8   7    5.32    0.36 
   4   8  -7    6.47    0.27 
  -4  -8   7    7.01    0.42 
   3   8  -7   14.70    0.34 
  -3  -8   7   15.56    0.45 
   2   8  -7    6.47    0.44 
  -2  -8   7    7.54    0.52 
   1   8  -7    0.00    0.30 
  -1  -8   7    0.04    0.32 
   0   8  -7    2.90    0.35 
   0  -8   7    3.15    0.35 
  -1   8  -7   24.23    1.26 
   1  -8   7   19.06    1.23 
  -2   8  -7    4.69    1.09 
   2  -8   7    4.22    1.07 
  -3   8  -7    1.01    1.05 
   3  -8   7    1.89    0.48 
  -4   8  -7    1.38    0.60 
   4  -8   7    0.89    0.55 
  -9  -7   7    1.14    0.35 
   8   7  -7    0.00    0.18 
  -8  -7   7    0.22    0.28 
   7   7  -7   10.35    0.36 
  -7  -7   7   10.66    0.69 
   6   7  -7    5.95    0.23 
  -6  -7   7    6.30    0.43 
   5   7  -7    8.34    0.23 
  -5  -7   7    8.60    0.39 
   4   7  -7    4.05    0.20 
  -4  -7   7    4.37    0.34 
   3   7  -7   12.91    0.30 
  -3  -7   7   14.63    0.41 
   2   7  -7   12.11    0.56 
  -2  -7   7   12.90    0.52 
   1   7  -7   18.12    0.76 
  -1  -7   7   21.44    0.82 
   0   7  -7    5.47    0.35 
   0  -7   7    5.39    0.36 
  -1   7  -7    0.48    0.31 
   1  -7   7    0.81    0.30 
  -2   7  -7    5.70    0.95 
   2  -7   7    5.04    0.63 
  -3   7  -7   19.94    0.79 
   3  -7   7   18.24    0.72 
  -4   7  -7    2.30    0.46 
   4  -7   7    2.09    0.37 
  -5   7  -7    0.43    0.37 
   5  -7   7    0.83    0.41 
 -10  -6   7    0.82    0.32 
   9   6  -7    1.36    0.25 
  -9  -6   7    1.18    0.33 
   8   6  -7   10.02    0.51 
  -8  -6   7   11.47    0.68 
   7   6  -7    2.22    0.19 
  -7  -6   7    2.04    0.28 
   6   6  -7    0.79    0.11 
  -6  -6   7    1.10    0.23 
   5   6  -7   24.01    0.42 
  -5  -6   7   26.33    0.62 
   4   6  -7    9.63    0.25 
  -4  -6   7   10.11    0.41 
   3   6  -7   11.13    0.25 
  -3  -6   7   11.86    0.33 
   2   6  -7    1.59    0.26 
  -2  -6   7    2.14    0.25 
   1   6  -7   20.46    0.89 
  -1  -6   7   25.36    0.79 
   0   6  -7   15.39    0.52 
   0  -6   7   16.28    0.52 
  -1   6  -7   17.57    0.81 
   1  -6   7   18.67    0.77 
  -2   6  -7    2.56    0.50 
   2  -6   7    2.99    0.45 
  -3   6  -7    1.02    0.24 
   3  -6   7    1.56    0.21 
  -4   6  -7    6.20    0.62 
   4  -6   7    5.53    0.31 
  -5   6  -7   13.30    0.85 
   5  -6   7   11.56    0.54 
  10   5  -7    2.16    0.60 
 -10  -5   7    2.40    0.39 
   9   5  -7    0.11    0.15 
  -9  -5   7    0.32    0.27 
   8   5  -7    3.12    0.27 
  -8  -5   7    3.61    0.43 
   7   5  -7    3.71    0.20 
  -7  -5   7    4.42    0.33 
   6   5  -7   17.60    0.33 
  -6  -5   7   18.31    0.58 
   5   5  -7    1.58    0.13 
  -5  -5   7    1.40    0.22 
   4   5  -7    3.68    0.17 
  -4  -5   7    3.96    0.23 
   3   5  -7   45.53    0.50 
  -3  -5   7   47.76    0.56 
   2   5  -7   11.77    0.36 
  -2  -5   7   11.21    0.32 
   1   5  -7    8.58    0.37 
  -1  -5   7   10.01    0.39 
   0   5  -7    0.16    0.10 
   0  -5   7    0.18    0.11 
  -1   5  -7   29.43    0.80 
   1  -5   7   31.30    0.91 
  -2   5  -7   14.06    0.52 
   2  -5   7   13.71    0.57 
  -3   5  -7   11.79    0.39 
   3  -5   7   11.31    0.30 
  -4   5  -7    0.34    0.26 
   4  -5   7    0.41    0.13 
  -5   5  -7    1.39    0.29 
   5  -5   7    1.57    0.19 
  -6   5  -7    4.69    0.89 
   6  -5   7    3.68    0.58 
  10   4  -7    4.49    0.81 
 -10  -4   7    4.38    0.49 
   9   4  -7    0.33    0.16 
  -9  -4   7    0.28    0.24 
   8   4  -7    3.63    0.29 
  -8  -4   7    3.97    0.45 
   7   4  -7    2.95    0.19 
  -7  -4   7    3.82    0.31 
   6   4  -7    6.12    0.20 
  -6  -4   7    6.54    0.35 
   5   4  -7    9.50    0.22 
  -5  -4   7   10.09    0.41 
   4   4  -7   20.72    0.31 
  -4  -4   7   22.25    0.39 
   3   4  -7    0.23    0.07 
  -3  -4   7    0.20    0.08 
   2   4  -7   10.88    0.45 
  -2  -4   7   12.23    0.46 
   1   4  -7   59.41    1.19 
  -1  -4   7   67.98    1.19 
   0   4  -7    8.71    0.30 
   0  -4   7    8.06    0.30 
  -1   4  -7    6.04    0.39 
   1  -4   7    7.08    0.37 
  -2   4  -7    0.14    0.25 
   2  -4   7    0.47    0.27 
  -3   4  -7   27.06    0.52 
   3  -4   7   25.18    0.42 
  -4   4  -7    7.84    0.42 
   4  -4   7    7.03    0.25 
  -5   4  -7    5.69    0.38 
   5  -4   7    5.24    0.22 
  -6   4  -7    0.03    0.21 
   6  -4   7    0.01    0.11 
  -7   4  -7    0.96    0.38 
   7  -4   7    1.09    0.36 
  10   3  -7    0.12    0.44 
 -10  -3   7    0.21    0.33 
   9   3  -7    5.34    0.34 
  -9  -3   7    5.48    0.48 
   8   3  -7    9.58    0.40 
  -8  -3   7    9.95    0.56 
   7   3  -7    0.72    0.12 
  -7  -3   7    0.49    0.17 
   6   3  -7    3.91    0.15 
  -6  -3   7    4.16    0.29 
   5   3  -7   16.11    0.28 
  -5  -3   7   17.72    0.52 
   4   3  -7   10.78    0.21 
  -4  -3   7   11.48    0.26 
   3   3  -7   16.40    0.24 
  -3  -3   7   17.58    0.27 
   2   3  -7   16.05    0.27 
  -2  -3   7   16.73    0.28 
   1   3  -7    0.65    0.16 
  -1  -3   7    0.90    0.18 
   0   3  -7   20.07    0.50 
   0  -3   7   20.94    0.50 
  -1   3  -7   57.80    1.20 
   1  -3   7   61.71    1.19 
  -2   3  -7    4.04    0.32 
   2  -3   7    3.30    0.36 
  -3   3  -7    1.67    0.17 
   3  -3   7    1.44    0.12 
  -4   3  -7    1.51    0.23 
   4  -3   7    1.27    0.13 
  -5   3  -7   17.77    0.55 
   5  -3   7   16.11    0.32 
  -6   3  -7    2.54    0.33 
   6  -3   7    2.51    0.18 
  -7   3  -7    1.11    0.38 
   7  -3   7    1.49    0.24 
  10   2  -7    0.88    0.55 
 -10  -2   7    1.74    0.43 
   9   2  -7    0.09    0.14 
  -9  -2   7    0.49    0.31 
   8   2  -7    0.03    0.13 
  -8  -2   7    0.05    0.19 
   7   2  -7   15.55    0.37 
  -7  -2   7   17.07    0.51 
   6   2  -7   16.51    0.27 
  -6  -2   7   17.83    0.51 
   5   2  -7    0.42    0.08 
  -5  -2   7    0.35    0.14 
   4   2  -7    1.16    0.08 
  -4  -2   7    1.16    0.13 
   3   2  -7   46.74    0.46 
  -3  -2   7   50.32    0.57 
   2   2  -7   14.05    0.24 
  -2  -2   7   14.61    0.29 
   1   2  -7   18.58    0.39 
  -1  -2   7   20.13    0.39 
   0   2  -7    6.23    0.21 
   0  -2   7    5.39    0.21 
  -1   2  -7    2.34    0.18 
   1  -2   7    2.51    0.16 
  -2   2  -7   24.39    0.46 
   2  -2   7   23.51    0.45 
  -3   2  -7   40.01    0.49 
   3  -2   7   37.17    0.43 
  -4   2  -7    0.26    0.13 
   4  -2   7    0.20    0.08 
  -5   2  -7    0.09    0.15 
   5  -2   7    0.08    0.07 
  -6   2  -7    1.80    0.28 
   6  -2   7    1.86    0.15 
  -7   2  -7    8.35    0.67 
   7  -2   7    8.68    0.36 
  -8   2  -7    0.17    0.32 
  10   1  -7    0.83    0.57 
 -10  -1   7    1.15    0.37 
   9   1  -7    1.57    0.21 
  -9  -1   7    1.54    0.39 
   8   1  -7    2.60    0.24 
  -8  -1   7    2.94    0.49 
   7   1  -7    0.17    0.08 
  -7  -1   7    0.31    0.15 
   6   1  -7    0.58    0.08 
  -6  -1   7    0.86    0.16 
   5   1  -7   39.42    0.47 
  -5  -1   7   43.42    0.87 
   4   1  -7   22.32    0.21 
  -4  -1   7   24.44    0.38 
   3   1  -7    0.05    0.05 
  -3  -1   7    0.02    0.06 
   2   1  -7    1.00    0.08 
  -2  -1   7    1.27    0.15 
   1   1  -7   77.50    1.40 
  -1  -1   7   98.48    1.43 
   0   1  -7   11.91    0.28 
   0  -1   7   11.89    0.27 
  -1   1  -7   11.02    0.39 
   1  -1   7   11.42    0.38 
  -2   1  -7    0.22    0.17 
   2  -1   7    0.10    0.11 
  -3   1  -7    5.21    0.17 
   3  -1   7    4.57    0.14 
  -4   1  -7   19.04    0.36 
   4  -1   7   17.17    0.30 
  -5   1  -7   18.57    0.50 
   5  -1   7   17.65    0.34 
  -6   1  -7    0.08    0.17 
   6  -1   7    0.27    0.09 
  -7   1  -7    0.15    0.26 
   7  -1   7    0.04    0.11 
  -8   1  -7    1.66    0.39 
   8  -1   7    1.04    0.27 
  10   0  -7    0.00    0.49 
 -10   0   7    0.29    0.26 
   9   0  -7    6.68    0.37 
  -9   0   7    8.09    0.70 
   8   0  -7    3.32    0.28 
  -8   0   7    4.15    0.53 
   7   0  -7    5.21    0.20 
  -7   0   7    5.39    0.38 
   6   0  -7    2.84    0.13 
  -6   0   7    2.94    0.25 
   5   0  -7    4.94    0.16 
  -5   0   7    5.18    0.28 
   4   0  -7    4.43    0.14 
  -4   0   7    4.64    0.18 
   3   0  -7   82.47    0.67 
  -3   0   7   89.69    0.79 
   2   0  -7   18.75    0.24 
  -2   0   7   20.38    0.29 
   1   0  -7    0.59    0.13 
  -1   0   7    0.51    0.13 
   0   0  -7   13.06    0.30 
   0   0   7   12.35    0.30 
  -1   0  -7   90.99    1.44 
   1   0   7  107.20    1.38 
  -2   0  -7    6.02    0.23 
   2   0   7    5.62    0.18 
  -3   0  -7    2.98    0.14 
   3   0   7    2.80    0.11 
  -4   0  -7    1.01    0.11 
   4   0   7    1.04    0.08 
  -5   0  -7    4.62    0.32 
   5   0   7    4.86    0.19 
  -6   0  -7   10.04    0.45 
   6   0   7    9.57    0.24 
  -7   0  -7    7.76    0.59 
   7   0   7    6.37    0.28 
  -8   0  -7    0.65    0.31 
   8   0   7    1.02    0.24 
  -9   0  -7    0.33    0.31 
 -10   1   7    2.57    0.44 
   9  -1  -7    3.58    0.31 
  -9   1   7    3.35    0.44 
   8  -1  -7    0.52    0.18 
  -8   1   7    0.76    0.30 
   7  -1  -7   18.69    0.35 
  -7   1   7   20.39    0.68 
   6  -1  -7   10.21    0.20 
  -6   1   7   11.27    0.48 
   5  -1  -7   11.21    0.24 
  -5   1   7   12.53    0.49 
   4  -1  -7    0.80    0.08 
  -4   1   7    0.94    0.11 
   3  -1  -7   22.24    0.27 
  -3   1   7   23.85    0.31 
   2  -1  -7   12.21    0.18 
  -2   1   7   12.80    0.20 
   1  -1  -7  124.62    1.76 
  -1   1   7  124.45    1.83 
   0  -1  -7    9.03    0.23 
   0   1   7    8.46    0.23 
  -1  -1  -7    2.67    0.13 
   1   1   7    2.06    0.13 
  -2  -1  -7   29.56    0.37 
   2   1   7   28.43    0.31 
  -3  -1  -7   81.02    0.78 
   3   1   7   74.31    0.64 
  -4  -1  -7    1.44    0.11 
   4   1   7    1.26    0.08 
  -5  -1  -7    0.08    0.13 
   5   1   7    0.04    0.07 
  -6  -1  -7    2.51    0.25 
   6   1   7    2.43    0.13 
  -7  -1  -7    3.50    0.42 
   7   1   7    3.18    0.20 
  -8  -1  -7    4.72    0.52 
   8   1   7    4.07    0.37 
  -9  -1  -7    1.30    0.36 
 -10   2   7    1.82    0.40 
   9  -2  -7    3.13    0.29 
  -9   2   7    3.36    0.48 
   8  -2  -7    4.82    0.32 
  -8   2   7    5.66    0.40 
   7  -2  -7    4.47    0.24 
  -7   2   7    5.31    0.40 
   6  -2  -7    4.20    0.14 
  -6   2   7    4.03    0.36 
   5  -2  -7   44.72    0.51 
  -5   2   7   48.10    1.13 
   4  -2  -7   22.06    0.29 
  -4   2   7   25.26    0.46 
   3  -2  -7   17.91    0.21 
  -3   2   7   19.67    0.32 
   2  -2  -7    0.79    0.06 
  -2   2   7    0.79    0.08 
   1  -2  -7   49.57    0.98 
  -1   2   7   58.30    1.11 
   0  -2  -7   21.49    0.45 
   0   2   7   20.58    0.45 
  -1  -2  -7  113.29    1.85 
   1   2   7  105.32    1.75 
  -2  -2  -7    0.75    0.12 
   2   2   7    0.79    0.07 
  -3  -2  -7    3.80    0.13 
   3   2   7    3.53    0.11 
  -4  -2  -7   34.98    0.56 
   4   2   7   32.55    0.35 
  -5  -2  -7   44.23    0.90 
   5   2   7   41.29    0.49 
  -6  -2  -7    0.02    0.13 
   6   2   7    0.03    0.06 
  -7  -2  -7    0.87    0.20 
   7   2   7    0.65    0.10 
  -8  -2  -7    2.65    0.38 
   8   2   7    2.14    0.23 
  -9  -2  -7    1.07    0.32 
   9   2   7    1.32    0.24 
   9  -3  -7    0.79    0.21 
  -9   3   7    1.19    0.35 
   8  -3  -7    5.88    0.35 
  -8   3   7    6.25    0.43 
   7  -3  -7    8.69    0.27 
  -7   3   7    9.63    0.45 
   6  -3  -7    9.99    0.22 
  -6   3   7   10.43    0.50 
   5  -3  -7    3.86    0.15 
  -5   3   7    4.67    0.35 
   4  -3  -7   15.39    0.25 
  -4   3   7   16.67    0.36 
   3  -3  -7   85.43    0.69 
  -3   3   7   90.19    0.85 
   2  -3  -7   32.96    0.33 
  -2   3   7   34.79    0.38 
   1  -3  -7   21.20    0.39 
  -1   3   7   22.39    0.40 
   0  -3  -7   11.40    0.28 
   0   3   7   11.36    0.28 
  -1  -3  -7   61.45    1.13 
   1   3   7   68.25    0.98 
  -2  -3  -7   23.87    0.31 
   2   3   7   22.64    0.25 
  -3  -3  -7   63.75    0.60 
   3   3   7   58.72    0.51 
  -4  -3  -7    0.60    0.08 
   4   3   7    0.50    0.05 
  -5  -3  -7    3.15    0.25 
   5   3   7    3.08    0.13 
  -6  -3  -7   26.57    0.65 
   6   3   7   23.59    0.33 
  -7  -3  -7   20.16    0.57 
   7   3   7   18.72    0.35 
  -8  -3  -7    0.24    0.23 
   8   3   7    0.20    0.17 
  -9  -3  -7    1.16    0.31 
   9   3   7    1.08    0.19 
 -10  -3  -7    1.07    0.33 
   9  -4  -7    3.49    0.98 
  -9   4   7    2.74    0.46 
   8  -4  -7    2.93    0.29 
  -8   4   7    3.90    0.39 
   7  -4  -7    3.91    0.22 
  -7   4   7    4.27    0.37 
   6  -4  -7   15.49    0.28 
  -6   4   7   16.38    0.57 
   5  -4  -7   16.38    0.26 
  -5   4   7   19.77    0.58 
   4  -4  -7   14.27    0.24 
  -4   4   7   15.40    0.36 
   3  -4  -7    1.08    0.08 
  -3   4   7    1.40    0.10 
   2  -4  -7   36.05    0.39 
  -2   4   7   37.79    0.44 
   1  -4  -7  121.08    1.70 
  -1   4   7  127.37    1.82 
   0  -4  -7   31.28    0.57 
   0   4   7   28.96    0.56 
  -1  -4  -7   14.41    0.40 
   1   4   7   14.46    0.39 
  -2  -4  -7   25.28    0.31 
   2   4   7   23.17    0.25 
  -3  -4  -7   53.96    0.57 
   3   4   7   50.26    0.42 
  -4  -4  -7   16.85    0.29 
   4   4   7   15.71    0.21 
  -5  -4  -7   23.81    0.57 
   5   4   7   21.47    0.31 
  -6  -4  -7    1.59    0.19 
   6   4   7    1.47    0.10 
  -7  -4  -7    2.47    0.24 
   7   4   7    1.66    0.19 
  -8  -4  -7   14.87    0.66 
   8   4   7   13.32    0.45 
  -9  -4  -7    7.97    0.55 
   9   4   7    6.86    0.45 
 -10  -4  -7    0.22    0.26 
  10   4   7    0.67    0.40 
  -9   5   7    4.80    0.60 
   8  -5  -7    4.16    0.28 
  -8   5   7    4.03    0.42 
   7  -5  -7    4.11    0.24 
  -7   5   7    4.88    0.41 
   6  -5  -7    2.91    0.15 
  -6   5   7    3.31    0.33 
   5  -5  -7   13.64    0.25 
  -5   5   7   14.58    0.53 
   4  -5  -7   30.85    0.39 
  -4   5   7   33.72    0.54 
   3  -5  -7   24.37    0.33 
  -3   5   7   26.92    0.36 
   2  -5  -7   14.67    0.23 
  -2   5   7   15.71    0.26 
   1  -5  -7    0.14    0.14 
  -1   5   7    0.79    0.16 
   0  -5  -7   57.43    0.89 
   0   5   7   53.60    0.88 
  -1  -5  -7  109.74    1.82 
   1   5   7  112.75    1.69 
  -2  -5  -7   15.66    0.23 
   2   5   7   15.27    0.20 
  -3  -5  -7    5.92    0.17 
   3   5   7    5.04    0.11 
  -4  -5  -7   28.46    0.47 
   4   5   7   25.30    0.30 
  -5  -5  -7   29.74    0.66 
   5   5   7   26.37    0.34 
  -6  -5  -7    7.83    0.34 
   6   5   7    7.57    0.17 
  -7  -5  -7    5.84    0.32 
   7   5   7    5.23    0.22 
  -8  -5  -7    1.02    0.24 
   8   5   7    0.96    0.17 
  -9  -5  -7    0.94    0.26 
   9   5   7    0.77    0.17 
 -10  -5  -7    7.53    0.79 
  10   5   7    4.71    0.76 
   8  -6  -7    0.11    0.18 
  -8   6   7    0.39    0.26 
   7  -6  -7   12.25    0.37 
  -7   6   7   15.05    0.65 
   6  -6  -7    6.58    0.22 
  -6   6   7    6.92    0.45 
   5  -6  -7    5.39    0.18 
  -5   6   7    6.26    0.40 
   4  -6  -7    1.09    0.11 
  -4   6   7    1.09    0.15 
   3  -6  -7   29.44    0.38 
  -3   6   7   32.10    0.48 
   2  -6  -7   45.12    0.50 
  -2   6   7   49.32    0.53 
   1  -6  -7   25.58    0.43 
  -1   6   7   25.92    0.46 
   0  -6  -7    8.93    0.24 
   0   6   7    7.77    0.24 
  -1  -6  -7    3.16    0.16 
   1   6   7    3.91    0.14 
  -2  -6  -7   54.94    0.58 
   2   6   7   52.19    0.50 
  -3  -6  -7   71.85    0.71 
   3   6   7   67.92    0.55 
  -4  -6  -7    4.50    0.23 
   4   6   7    3.72    0.13 
  -5  -6  -7    1.37    0.21 
   5   6   7    1.28    0.09 
  -6  -6  -7   21.39    0.66 
   6   6   7   19.36    0.27 
  -7  -6  -7   12.26    0.43 
   7   6   7   10.88    0.25 
  -8  -6  -7    3.16    0.34 
   8   6   7    2.29    0.22 
  -9  -6  -7    0.79    0.25 
   9   6   7    0.49    0.16 
 -10  -6  -7    0.63    0.32 
  10   6   7    0.63    0.42 
   8  -7  -7    2.75    0.46 
  -8   7   7    3.28    0.55 
   7  -7  -7    0.06    0.12 
  -7   7   7    0.00    0.24 
   6  -7  -7    1.50    0.16 
  -6   7   7    1.35    0.29 
   5  -7  -7   26.35    0.39 
  -5   7   7   28.41    0.81 
   4  -7  -7    6.91    0.21 
  -4   7   7    7.42    0.29 
   3  -7  -7    4.91    0.17 
  -3   7   7    5.06    0.24 
   2  -7  -7    0.05    0.08 
  -2   7   7    0.17    0.08 
   1  -7  -7   54.72    0.92 
  -1   7   7   54.99    1.06 
   0  -7  -7   45.99    0.82 
   0   7   7   43.77    0.81 
  -1  -7  -7   15.54    0.47 
   1   7   7   15.00    0.42 
  -2  -7  -7    1.21    0.10 
   2   7   7    0.96    0.09 
  -3  -7  -7    5.88    0.17 
   3   7   7    5.49    0.13 
  -4  -7  -7   36.81    0.58 
   4   7   7   34.13    0.39 
  -5  -7  -7   30.18    0.83 
   5   7   7   28.08    0.37 
  -6  -7  -7    0.36    0.17 
   6   7   7    0.36    0.07 
  -7  -7  -7    0.19    0.16 
   7   7   7    0.20    0.08 
  -8  -7  -7   11.34    0.70 
   8   7   7   10.54    0.41 
  -9  -7  -7    4.48    0.55 
   9   7   7    3.19    0.26 
 -10  -7  -7    0.78    0.33 
  10   7   7    0.99    0.21 
   7  -8  -7    4.11    0.38 
  -7   8   7    3.97    0.44 
   6  -8  -7    2.82    0.23 
  -6   8   7    3.11    0.39 
   5  -8  -7    0.28    0.10 
  -5   8   7    0.13    0.21 
   4  -8  -7    5.91    0.23 
  -4   8   7    6.35    0.30 
   3  -8  -7   41.08    0.54 
  -3   8   7   44.73    0.69 
   2  -8  -7    5.09    0.21 
  -2   8   7    5.97    0.23 
   1  -8  -7    1.61    0.17 
  -1   8   7    1.72    0.18 
   0  -8  -7    2.16    0.16 
   0   8   7    2.05    0.16 
  -1  -8  -7   58.20    1.07 
   1   8   7   55.52    0.91 
  -2  -8  -7   28.45    0.38 
   2   8   7   26.06    0.37 
  -3  -8  -7    5.57    0.17 
   3   8   7    5.20    0.16 
  -4  -8  -7    0.10    0.10 
   4   8   7    0.13    0.07 
  -5  -8  -7    4.83    0.36 
   5   8   7    4.37    0.16 
  -6  -8  -7   18.73    0.65 
   6   8   7   16.91    0.27 
  -7  -8  -7    9.06    0.46 
   7   8   7    7.74    0.24 
  -8  -8  -7    0.06    0.20 
   8   8   7    0.00    0.14 
  -9  -8  -7    0.00    0.23 
   9   8   7    0.00    0.13 
 -10  -8  -7    4.48    0.55 
  10   8   7    3.90    0.35 
   7  -9  -7    4.15    0.60 
  -7   9   7    5.50    0.67 
   6  -9  -7    3.24    0.34 
  -6   9   7    3.55    0.43 
   5  -9  -7    7.54    0.26 
  -5   9   7    8.27    0.53 
   4  -9  -7    1.07    0.14 
  -4   9   7    1.15    0.20 
   3  -9  -7    2.34    0.19 
  -3   9   7    2.61    0.21 
   2  -9  -7   14.92    0.51 
  -2   9   7   14.42    0.48 
   1  -9  -7   46.80    1.01 
  -1   9   7   49.64    0.90 
   0  -9  -7    1.58    0.16 
   0   9   7    2.22    0.16 
  -1  -9  -7    0.04    0.18 
   1   9   7    0.15    0.17 
  -2  -9  -7    5.33    0.19 
   2   9   7    4.71    0.18 
  -3  -9  -7   44.20    0.65 
   3   9   7   41.75    0.46 
  -4  -9  -7    9.53    0.29 
   4   9   7    8.94    0.21 
  -5  -9  -7    0.83    0.19 
   5   9   7    0.60    0.08 
  -6  -9  -7    1.13    0.21 
   6   9   7    1.22    0.09 
  -7  -9  -7    2.87    0.29 
   7   9   7    2.00    0.15 
  -8  -9  -7    8.21    0.54 
   8   9   7    6.82    0.34 
  -9  -9  -7    1.43    0.30 
   9   9   7    1.01    0.19 
 -10  -9  -7    0.02    0.22 
  10   9   7    0.00    0.43 
   6 -10  -7    0.05    0.25 
  -6  10   7    0.46    0.33 
   5 -10  -7   10.90    0.35 
  -5  10   7   10.48    0.61 
   4 -10  -7    4.49    0.26 
  -4  10   7    4.16    0.31 
   3 -10  -7    9.47    0.28 
  -3  10   7    9.96    0.37 
   2 -10  -7    0.00    0.29 
  -2  10   7    0.05    0.39 
   1 -10  -7    7.78    0.40 
  -1  10   7    7.48    0.35 
   0 -10  -7   21.94    0.55 
   0  10   7   19.49    0.55 
  -1 -10  -7   36.13    0.91 
   1  10   7   37.35    0.98 
  -2 -10  -7    0.24    0.13 
   2  10   7    0.04    0.14 
  -3 -10  -7    0.89    0.15 
   3  10   7    0.85    0.11 
  -4 -10  -7    6.70    0.27 
   4  10   7    5.61    0.19 
  -5 -10  -7   25.70    0.72 
   5  10   7   22.96    0.33 
  -6 -10  -7    1.56    0.24 
   6  10   7    1.60    0.11 
  -7 -10  -7    0.05    0.16 
   7  10   7    0.09    0.10 
  -8 -10  -7    1.64    0.26 
   8  10   7    1.48    0.21 
  -9 -10  -7    0.76    0.28 
   9  10   7    0.82    0.19 
 -10 -10  -7    1.75    0.36 
  10  10   7    3.28    0.85 
   5 -11  -7    0.10    0.19 
  -5  11   7    0.33    0.29 
   4 -11  -7    2.30    0.23 
  -4  11   7    2.92    0.39 
   3 -11  -7   20.41    0.53 
  -3  11   7   21.18    0.55 
   2 -11  -7    6.04    0.36 
  -2  11   7    5.84    0.44 
   1 -11  -7    8.41    0.37 
  -1  11   7    8.30    0.37 
   0 -11  -7    2.37    0.24 
   0  11   7    2.57    0.23 
  -1 -11  -7    7.37    0.35 
   1  11   7    6.99    0.39 
  -2 -11  -7   20.79    0.50 
   2  11   7   18.98    0.50 
  -3 -11  -7   20.44    0.46 
   3  11   7   19.29    0.38 
  -4 -11  -7    1.29    0.17 
   4  11   7    1.14    0.12 
  -5 -11  -7    1.85    0.27 
   5  11   7    1.47    0.12 
  -6 -11  -7    4.91    0.38 
   6  11   7    4.48    0.18 
  -7 -11  -7   11.62    0.54 
   7  11   7    9.77    0.31 
  -8 -11  -7    0.04    0.20 
   8  11   7    0.01    0.15 
  -9 -11  -7    0.25    0.25 
   9  11   7    0.10    0.15 
 -10 -11  -7    0.88    0.31 
   5 -12  -7    5.79    0.72 
  -5  12   7    6.24    1.15 
   4 -12  -7    2.13    0.40 
  -4  12   7    2.63    0.40 
   3 -12  -7    0.13    0.21 
  -3  12   7    0.08    0.23 
   2 -12  -7    6.20    0.70 
  -2  12   7    7.59    0.83 
   1 -12  -7   23.29    0.70 
  -1  12   7   21.83    0.82 
   0 -12  -7    4.58    0.30 
   0  12   7    4.10    0.30 
  -1 -12  -7    4.11    0.38 
   1  12   7    3.97    0.36 
  -2 -12  -7    5.95    0.40 
   2  12   7    5.85    0.28 
  -3 -12  -7    8.50    0.34 
   3  12   7    8.12    0.25 
  -4 -12  -7   13.55    0.40 
   4  12   7   12.47    0.30 
  -5 -12  -7    8.11    0.47 
   5  12   7    7.29    0.22 
  -6 -12  -7    2.86    0.34 
   6  12   7    2.34    0.15 
  -7 -12  -7    1.94    0.31 
   7  12   7    1.19    0.16 
  -8 -12  -7    3.00    0.35 
   8  12   7    2.55    0.22 
  -9 -12  -7    3.58    0.49 
   9  12   7    2.80    0.41 
 -10 -12  -7    0.00    0.27 
   3 -13  -7    9.69    1.23 
  -3  13   7    8.61    0.71 
   2 -13  -7    0.73    0.58 
  -2  13   7    0.44    0.53 
   1 -13  -7    0.00    0.35 
  -1  13   7    0.26    0.44 
   0 -13  -7   12.96    0.61 
   0  13   7   13.27    0.61 
  -1 -13  -7   23.66    0.85 
   1  13   7   21.47    0.69 
  -2 -13  -7    2.04    0.46 
   2  13   7    1.66    0.36 
  -3 -13  -7    0.81    0.18 
   3  13   7    0.51    0.15 
  -4 -13  -7    7.72    0.39 
   4  13   7    7.29    0.27 
  -5 -13  -7    5.93    0.47 
   5  13   7    4.62    0.20 
  -6 -13  -7    5.63    0.46 
   6  13   7    6.11    0.31 
  -7 -13  -7    2.06    0.33 
   7  13   7    1.98    0.20 
  -8 -13  -7    3.04    0.39 
   8  13   7    2.64    0.24 
  -9 -13  -7    1.22    0.35 
   9  13   7    1.25    0.67 
   2 -14  -7    6.15    1.21 
  -2  14   7    4.91    1.22 
   1 -14  -7    8.52    0.78 
  -1  14   7    7.71    1.25 
   0 -14  -7    0.08    0.20 
   0  14   7    0.20    0.20 
  -1 -14  -7    0.26    0.46 
   1  14   7    0.49    0.35 
  -2 -14  -7   16.07    0.89 
   2  14   7   15.93    0.69 
  -3 -14  -7   12.43    0.52 
   3  14   7   12.05    0.44 
  -4 -14  -7    0.87    0.22 
   4  14   7    1.01    0.17 
  -5 -14  -7    0.14    0.22 
   5  14   7    0.08    0.12 
  -6 -14  -7    5.45    0.48 
   6  14   7    4.92    0.30 
  -7 -14  -7    3.22    0.42 
   7  14   7    2.23    0.25 
  -8 -14  -7    3.05    0.39 
   8  14   7    2.94    0.40 
   1 -15  -7   10.51    8.50 
   0 -15  -7    5.91    1.07 
   0  15   7    5.08    1.08 
  -1 -15  -7    6.26    1.32 
   1  15   7    2.99    0.80 
  -2 -15  -7    0.11    0.57 
   2  15   7    0.04    0.59 
  -3 -15  -7    0.99    0.28 
   3  15   7    0.86    0.28 
  -4 -15  -7   13.03    0.67 
   4  15   7   11.60    0.40 
  -5 -15  -7    5.87    0.52 
   5  15   7    4.43    0.27 
  -6 -15  -7    0.22    0.26 
   6  15   7    0.28    0.21 
  -7 -15  -7    0.17    0.27 
   7  15   7    0.43    0.28 
   8  15   7    3.97    0.57 
   1  16   7    7.82    9.13 
  -2 -16  -7    4.84    1.30 
   2  16   7    3.97    1.21 
  -3 -16  -7    1.17    0.53 
   3  16   7    1.37    1.23 
  -4 -16  -7    0.32    0.29 
   4  16   7    0.39    0.28 
  -5 -16  -7    0.47    0.38 
   5  16   7    0.71    0.29 
  -6 -16  -7    6.87    0.72 
   6  16   7    6.37    0.79 
  -4 -11   8    0.15    0.59 
   6  10  -8    2.06    0.51 
  -6 -10   8    3.13    0.75 
   5  10  -8    1.09    0.30 
  -5 -10   8    1.33    0.58 
   4  10  -8    8.42    0.61 
  -4 -10   8    8.53    1.01 
   3  10  -8    2.64    0.50 
  -3 -10   8    2.34    7.12 
   2  10  -8    0.00    0.88 
  -2 -10   8    0.07    6.58 
   1  10  -8    2.62    1.02 
  -1 -10   8    2.19    7.02 
   0  10  -8    7.80    7.93 
   0 -10   8    7.45    7.56 
   7   9  -8    1.47    0.39 
  -7  -9   8    1.96    0.44 
   6   9  -8    3.06    0.25 
  -6  -9   8    3.58    0.41 
   5   9  -8    0.71    0.18 
  -5  -9   8    0.57    0.32 
   4   9  -8    6.14    0.33 
  -4  -9   8    7.22    0.53 
   3   9  -8    2.08    0.31 
  -3  -9   8    1.82    0.48 
   2   9  -8   10.06    0.74 
  -2  -9   8   10.78    1.37 
   1   9  -8    0.34    0.75 
  -1  -9   8    0.85    0.55 
   0   9  -8    0.79    0.39 
   0  -9   8    0.83    0.38 
  -1   9  -8    5.09    6.70 
   1  -9   8    4.32    1.01 
  -8  -8   8    0.12    0.30 
   7   8  -8    0.11    0.14 
  -7  -8   8    0.15    0.28 
   6   8  -8    9.00    0.30 
  -6  -8   8    9.60    0.56 
   5   8  -8    2.17    0.20 
  -5  -8   8    2.51    0.35 
   4   8  -8    4.61    0.28 
  -4  -8   8    4.87    0.41 
   3   8  -8    0.07    0.12 
  -3  -8   8    0.04    0.15 
   2   8  -8   12.93    0.81 
  -2  -8   8   12.04    1.50 
   1   8  -8    3.79    0.62 
  -1  -8   8    3.43    0.53 
   0   8  -8   10.05    0.71 
   0  -8   8    9.91    0.71 
  -1   8  -8    0.78    0.54 
   1  -8   8    0.09    0.75 
  -2   8  -8    1.27    6.28 
   2  -8   8    1.97    0.88 
  -3   8  -8    5.00    0.80 
   3  -8   8    3.92    0.72 
  -9  -7   8    1.21    0.37 
   8   7  -8    3.99    0.40 
  -8  -7   8    3.40    0.47 
   7   7  -8    1.16    0.18 
  -7  -7   8    0.95    0.26 
   6   7  -8    0.26    0.11 
  -6  -7   8    0.15    0.19 
   5   7  -8    0.48    0.13 
  -5  -7   8    0.66    0.24 
   4   7  -8   18.65    0.41 
  -4  -7   8   19.60    0.59 
   3   7  -8    1.89    0.15 
  -3  -7   8    2.16    0.22 
   2   7  -8    3.96    0.34 
  -2  -7   8    4.66    0.39 
   1   7  -8    1.22    0.36 
  -1  -7   8    1.89    0.38 
   0   7  -8   14.65    0.63 
   0  -7   8   13.69    0.63 
  -1   7  -8    3.42    0.52 
   1  -7   8    3.17    0.63 
  -2   7  -8    7.16    1.29 
   2  -7   8    7.31    0.74 
  -3   7  -8    0.00    6.79 
   3  -7   8    0.00    0.33 
  -4   7  -8    1.21    0.60 
   4  -7   8    1.08    0.34 
  -9  -6   8    0.22    0.28 
   8   6  -8    2.50    0.33 
  -8  -6   8    2.60    0.42 
   7   6  -8    2.51    0.22 
  -7  -6   8    2.82    0.32 
   6   6  -8    8.69    0.27 
  -6  -6   8    8.57    0.47 
   5   6  -8    0.52    0.12 
  -5  -6   8    0.61    0.21 
   4   6  -8    1.67    0.14 
  -4  -6   8    2.18    0.25 
   3   6  -8    3.04    0.17 
  -3  -6   8    3.28    0.23 
   2   6  -8   24.63    0.68 
  -2  -6   8   27.39    0.69 
   1   6  -8    0.76    0.25 
  -1  -6   8    0.66    0.25 
   0   6  -8    2.07    0.25 
   0  -6   8    2.22    0.25 
  -1   6  -8    4.76    0.37 
   1  -6   8    5.20    0.36 
  -2   6  -8   14.22    1.42 
   2  -6   8   12.61    0.81 
  -3   6  -8    1.79    0.34 
   3  -6   8    2.17    0.31 
  -4   6  -8    3.06    0.51 
   4  -6   8    1.98    0.36 
  -5   6  -8    0.46    0.36 
   5  -6   8    0.30    0.27 
  -9  -5   8    2.67    0.41 
   8   5  -8    0.91    0.23 
  -8  -5   8    1.09    0.32 
   7   5  -8    0.06    0.11 
  -7  -5   8    0.29    0.19 
   6   5  -8    8.58    0.25 
  -6  -5   8    8.49    0.44 
   5   5  -8    6.57    0.24 
  -5  -5   8    6.96    0.41 
   4   5  -8   13.89    0.30 
  -4  -5   8   14.68    0.46 
   3   5  -8    0.22    0.08 
  -3  -5   8    0.07    0.11 
   2   5  -8    4.31    0.41 
  -2  -5   8    6.44    0.41 
   1   5  -8    8.32    0.48 
  -1  -5   8    9.71    0.46 
   0   5  -8   24.59    0.74 
   0  -5   8   25.88    0.73 
  -1   5  -8    0.34    0.25 
   1  -5   8    0.00    0.26 
  -2   5  -8    0.40    0.39 
   2  -5   8    0.17    0.34 
  -3   5  -8    8.38    0.36 
   3  -5   8    7.92    0.29 
  -4   5  -8    9.57    0.56 
   4  -5   8    9.05    0.37 
  -5   5  -8    0.66    0.27 
   5  -5   8    0.65    0.23 
  -6   5  -8    0.42    0.58 
 -10  -4   8    0.39    0.30 
   9   4  -8    1.96    0.31 
  -9  -4   8    2.02    0.37 
   8   4  -8    3.86    0.40 
  -8  -4   8    5.43    0.53 
   7   4  -8    6.19    0.24 
  -7  -4   8    6.60    0.40 
   6   4  -8    0.63    0.10 
  -6  -4   8    0.62    0.20 
   5   4  -8    1.82    0.14 
  -5  -4   8    2.08    0.25 
   4   4  -8   21.41    0.30 
  -4  -4   8   24.30    0.68 
   3   4  -8   10.77    0.23 
  -3  -4   8   11.60    0.26 
   2   4  -8   17.21    0.40 
  -2  -4   8   17.93    0.44 
   1   4  -8    4.93    0.33 
  -1  -4   8    3.71    0.35 
   0   4  -8   10.15    0.42 
   0  -4   8   10.66    0.42 
  -1   4  -8   14.37    0.46 
   1  -4   8   15.36    0.47 
  -2   4  -8   18.63    0.69 
   2  -4   8   19.59    0.69 
  -3   4  -8    0.03    0.13 
   3  -4   8    0.06    0.09 
  -4   4  -8    0.24    0.22 
   4  -4   8    0.04    0.11 
  -5   4  -8    8.31    0.52 
   5  -4   8    7.42    0.33 
  -6   4  -8    5.60    0.61 
   6  -4   8    5.03    0.44 
 -10  -3   8    1.93    0.51 
   9   3  -8    2.66    0.27 
  -9  -3   8    2.71    0.39 
   8   3  -8    2.75    0.27 
  -8  -3   8    2.39    0.36 
   7   3  -8    5.24    0.19 
  -7  -3   8    6.12    0.37 
   6   3  -8   13.32    0.27 
  -6  -3   8   14.91    0.52 
   5   3  -8    9.52    0.25 
  -5  -3   8   10.59    0.44 
   4   3  -8    0.06    0.06 
  -4  -3   8    0.06    0.13 
   3   3  -8    9.53    0.22 
  -3  -3   8   10.65    0.26 
   2   3  -8   41.48    0.73 
  -2  -3   8   43.18    0.87 
   1   3  -8   13.93    0.41 
  -1  -3   8   14.89    0.41 
   0   3  -8   15.36    0.49 
   0  -3   8   14.29    0.49 
  -1   3  -8   11.22    0.35 
   1  -3   8    9.61    0.33 
  -2   3  -8   12.26    0.42 
   2  -3   8   14.06    0.42 
  -3   3  -8   14.68    0.38 
   3  -3   8   13.89    0.29 
  -4   3  -8    8.00    0.40 
   4  -3   8    8.17    0.26 
  -5   3  -8    0.78    0.25 
   5  -3   8    0.62    0.13 
  -6   3  -8    0.40    0.25 
   6  -3   8    0.37    0.13 
  -7   3  -8    5.31    0.64 
   7  -3   8    5.78    0.65 
 -10  -2   8    5.19    0.73 
   9   2  -8    1.11    0.21 
  -9  -2   8    1.78    0.46 
   8   2  -8    4.86    0.34 
  -8  -2   8    6.39    0.51 
   7   2  -8    3.42    0.16 
  -7  -2   8    3.21    0.29 
   6   2  -8    9.43    0.22 
  -6  -2   8    9.77    0.42 
   5   2  -8   12.87    0.26 
  -5  -2   8   13.79    0.47 
   4   2  -8   28.78    0.32 
  -4  -2   8   31.74    0.75 
   3   2  -8   10.96    0.21 
  -3  -2   8   11.81    0.24 
   2   2  -8    0.83    0.12 
  -2  -2   8    1.02    0.16 
   1   2  -8   25.95    0.69 
  -1  -2   8   27.30    0.72 
   0   2  -8   51.37    0.97 
   0  -2   8   49.28    0.97 
  -1   2  -8   11.26    0.41 
   1  -2   8   11.52    0.42 
  -2   2  -8    8.10    0.44 
   2  -2   8    7.71    0.40 
  -3   2  -8   16.64    0.37 
   3  -2   8   15.38    0.27 
  -4   2  -8   12.12    0.43 
   4  -2   8   10.92    0.28 
  -5   2  -8    9.63    0.51 
   5  -2   8    9.22    0.29 
  -6   2  -8    2.46    0.32 
   6  -2   8    2.32    0.18 
  -7   2  -8    0.62    0.34 
   7  -2   8    0.69    0.20 
 -10  -1   8    0.90    0.40 
   9   1  -8    0.46    0.18 
  -9  -1   8    0.23    0.33 
   8   1  -8   12.09    0.47 
  -8  -1   8   14.73    0.95 
   7   1  -8    3.27    0.18 
  -7  -1   8    3.83    0.31 
   6   1  -8   10.95    0.23 
  -6  -1   8   11.27    0.44 
   5   1  -8    1.96    0.12 
  -5  -1   8    2.08    0.22 
   4   1  -8   25.57    0.29 
  -4  -1   8   26.41    0.65 
   3   1  -8   22.51    0.29 
  -3  -1   8   24.75    0.37 
   2   1  -8   47.92    0.64 
  -2  -1   8   50.53    0.68 
   1   1  -8    6.93    0.20 
  -1  -1   8    7.24    0.23 
   0   1  -8    4.46    0.19 
   0  -1   8    4.08    0.18 
  -1   1  -8   39.84    0.72 
   1  -1   8   40.22    0.69 
  -2   1  -8   40.86    0.88 
   2  -1   8   39.62    0.72 
  -3   1  -8    6.78    0.21 
   3  -1   8    6.80    0.18 
  -4   1  -8    2.43    0.23 
   4  -1   8    2.00    0.14 
  -5   1  -8   14.71    0.58 
   5  -1   8   13.48    0.32 
  -6   1  -8    7.12    0.46 
   6  -1   8    7.42    0.25 
  -7   1  -8    4.77    0.45 
   7  -1   8    4.70    0.30 
  -8   1  -8    0.42    0.34 
 -10   0   8    4.34    0.54 
   9   0  -8    4.84    0.35 
  -9   0   8    6.97    0.72 
   8   0  -8    1.27    0.21 
  -8   0   8    1.34    0.39 
   7   0  -8    3.54    0.19 
  -7   0   8    3.65    0.36 
   6   0  -8   29.82    0.40 
  -6   0   8   32.98    0.78 
   5   0  -8    6.32    0.19 
  -5   0   8    6.66    0.33 
   4   0  -8   14.82    0.21 
  -4   0   8   15.89    0.48 
   3   0  -8    0.11    0.05 
  -3   0   8    0.09    0.06 
   2   0  -8   52.32    0.58 
  -2   0   8   53.93    0.62 
   1   0  -8   27.08    0.56 
  -1   0   8   30.34    0.63 
   0   0  -8   54.16    0.88 
   0   0   8   51.37    0.87 
  -1   0  -8    1.88    0.23 
   1   0   8    2.04    0.20 
  -2   0  -8    8.08    0.23 
   2   0   8    7.42    0.20 
  -3   0  -8   41.72    0.49 
   3   0   8   38.57    0.44 
  -4   0  -8   21.44    0.52 
   4   0   8   19.46    0.27 
  -5   0  -8    2.69    0.28 
   5   0   8    2.32    0.15 
  -6   0  -8    0.29    0.19 
   6   0   8    0.16    0.09 
  -7   0  -8    9.47    0.51 
   7   0   8    8.79    0.34 
  -8   0  -8    4.07    0.52 
   8   0   8    3.10    0.36 
 -10   1   8    1.00    0.43 
   9  -1  -8    0.21    0.18 
  -9   1   8    0.34    0.28 
   8  -1  -8    9.97    0.45 
  -8   1   8   11.18    0.85 
   7  -1  -8    7.20    0.25 
  -7   1   8    8.17    0.49 
   6  -1  -8    1.38    0.10 
  -6   1   8    1.21    0.24 
   5  -1  -8   12.76    0.25 
  -5   1   8   14.44    0.57 
   4  -1  -8   56.03    0.56 
  -4   1   8   62.12    0.78 
   3  -1  -8    8.06    0.16 
  -3   1   8    8.84    0.20 
   2  -1  -8   14.49    0.22 
  -2   1   8   15.51    0.27 
   1  -1  -8    2.55    0.24 
  -1   1   8    3.37    0.23 
   0  -1  -8   72.66    1.24 
   0   1   8   68.77    1.23 
  -1  -1  -8   23.92    0.64 
   1   1   8   24.45    0.55 
  -2  -1  -8   37.92    0.60 
   2   1   8   36.34    0.52 
  -3  -1  -8    0.10    0.09 
   3   1   8    0.06    0.06 
  -4  -1  -8    7.82    0.38 
   4   1   8    6.92    0.16 
  -5  -1  -8   28.40    0.73 
   5   1   8   26.57    0.42 
  -6  -1  -8    7.63    0.42 
   6   1   8    6.90    0.22 
  -7  -1  -8    0.41    0.20 
   7   1   8    0.68    0.14 
  -8  -1  -8    0.16    0.26 
   8   1   8    0.06    0.19 
  -9  -1  -8    3.73    0.51 
   9  -2  -8    0.08    0.18 
  -9   2   8    0.19    0.28 
   8  -2  -8    3.36    0.29 
  -8   2   8    3.93    0.37 
   7  -2  -8    1.15    0.14 
  -7   2   8    1.64    0.28 
   6  -2  -8   18.93    0.33 
  -6   2   8   20.32    0.72 
   5  -2  -8    7.26    0.19 
  -5   2   8    8.01    0.45 
   4  -2  -8    0.34    0.08 
  -4   2   8    0.26    0.11 
   3  -2  -8   33.29    0.35 
  -3   2   8   35.86    0.48 
   2  -2  -8   86.21    0.73 
  -2   2   8   88.61    0.98 
   1  -2  -8    5.01    0.16 
  -1   2   8    4.37    0.19 
   0  -2  -8    9.66    0.27 
   0   2   8    9.31    0.27 
  -1  -2  -8   11.01    0.24 
   1   2   8   11.25    0.24 
  -2  -2  -8   61.81    0.68 
   2   2   8   56.94    0.61 
  -3  -2  -8   12.73    0.27 
   3   2   8   11.71    0.20 
  -4  -2  -8   18.23    0.53 
   4   2   8   16.47    0.22 
  -5  -2  -8    0.70    0.17 
   5   2   8    0.39    0.08 
  -6  -2  -8    5.41    0.35 
   6   2   8    4.98    0.19 
  -7  -2  -8   15.08    0.56 
   7   2   8   13.68    0.36 
  -8  -2  -8    1.54    0.35 
   8   2   8    1.31    0.25 
  -9  -2  -8    0.14    0.28 
   9  -3  -8    4.14    1.03 
  -9   3   8    3.54    0.50 
   8  -3  -8    3.38    0.29 
  -8   3   8    3.12    0.35 
   7  -3  -8    0.52    0.14 
  -7   3   8    0.54    0.21 
   6  -3  -8    9.52    0.22 
  -6   3   8   10.55    0.54 
   5  -3  -8    4.94    0.18 
  -5   3   8    4.87    0.39 
   4  -3  -8   25.88    0.37 
  -4   3   8   28.23    0.51 
   3  -3  -8    3.75    0.12 
  -3   3   8    4.00    0.16 
   2  -3  -8    0.28    0.07 
  -2   3   8    0.45    0.08 
   1  -3  -8   58.15    1.08 
  -1   3   8   61.52    1.22 
   0  -3  -8   92.92    1.43 
   0   3   8   87.48    1.43 
  -1  -3  -8    0.80    0.19 
   1   3   8    0.26    0.16 
  -2  -3  -8    3.24    0.16 
   2   3   8    3.27    0.11 
  -3  -3  -8   20.39    0.30 
   3   3   8   18.20    0.24 
  -4  -3  -8   32.91    0.75 
   4   3   8   30.31    0.32 
  -5  -3  -8    3.90    0.29 
   5   3   8    3.67    0.16 
  -6  -3  -8    5.24    0.33 
   6   3   8    5.16    0.17 
  -7  -3  -8    0.54    0.18 
   7   3   8    0.55    0.11 
  -8  -3  -8    2.94    0.40 
   8   3   8    2.33    0.24 
  -9  -3  -8    6.38    0.88 
   9   3   8    5.08    0.41 
  -9   4   8    0.49    0.34 
   8  -4  -8    6.64    0.33 
  -8   4   8    7.32    0.49 
   7  -4  -8    5.06    0.25 
  -7   4   8    5.66    0.42 
   6  -4  -8    4.12    0.17 
  -6   4   8    4.44    0.35 
   5  -4  -8    5.47    0.16 
  -5   4   8    6.14    0.45 
   4  -4  -8   20.20    0.31 
  -4   4   8   23.46    0.47 
   3  -4  -8   10.06    0.19 
  -3   4   8   11.06    0.25 
   2  -4  -8   23.59    0.30 
  -2   4   8   24.41    0.36 
   1  -4  -8    0.14    0.14 
  -1   4   8    0.33    0.15 
   0  -4  -8    2.51    0.16 
   0   4   8    3.45    0.16 
  -1  -4  -8   67.76    1.24 
   1   4   8   70.46    1.08 
  -2  -4  -8   62.41    0.70 
   2   4   8   59.39    0.55 
  -3  -4  -8    0.66    0.08 
   3   4   8    0.46    0.06 
  -4  -4  -8    0.46    0.10 
   4   4   8    0.42    0.06 
  -5  -4  -8   20.01    0.56 
   5   4   8   17.94    0.30 
  -6  -4  -8   12.24    0.45 
   6   4   8   11.00    0.23 
  -7  -4  -8    0.55    0.18 
   7   4   8    0.48    0.10 
  -8  -4  -8    0.86    0.27 
   8   4   8    0.49    0.17 
  -9  -4  -8    0.52    0.28 
   9   4   8    0.21    0.16 
 -10  -4  -8    1.24    0.32 
   8  -5  -8    0.49    0.14 
  -8   5   8    0.75    0.28 
   7  -5  -8    2.20    0.19 
  -7   5   8    2.10    0.31 
   6  -5  -8   14.78    0.30 
  -6   5   8   15.87    0.61 
   5  -5  -8    6.70    0.19 
  -5   5   8    6.87    0.41 
   4  -5  -8    3.19    0.15 
  -4   5   8    3.38    0.20 
   3  -5  -8   22.12    0.29 
  -3   5   8   23.52    0.37 
   2  -5  -8   34.28    0.41 
  -2   5   8   36.03    0.48 
   1  -5  -8   14.34    0.33 
  -1   5   8   13.12    0.36 
   0  -5  -8   13.12    0.32 
   0   5   8   11.55    0.32 
  -1  -5  -8    1.94    0.15 
   1   5   8    2.12    0.14 
  -2  -5  -8    5.63    0.17 
   2   5   8    4.94    0.14 
  -3  -5  -8   52.47    0.57 
   3   5   8   48.72    0.45 
  -4  -5  -8   26.63    0.48 
   4   5   8   23.98    0.34 
  -5  -5  -8    3.21    0.26 
   5   5   8    2.86    0.14 
  -6  -5  -8    0.00    0.13 
   6   5   8    0.05    0.06 
  -7  -5  -8   12.85    0.47 
   7   5   8   12.01    0.29 
  -8  -5  -8    3.26    0.38 
   8   5   8    2.51    0.24 
  -9  -5  -8    0.17    0.24 
   9   5   8    0.02    0.13 
 -10  -5  -8    0.12    0.26 
  10   5   8    0.61    0.41 
   8  -6  -8    2.77    0.41 
  -8   6   8    2.72    0.39 
   7  -6  -8    0.60    0.15 
  -7   6   8    0.31    0.25 
   6  -6  -8    2.66    0.16 
  -6   6   8    3.22    0.36 
   5  -6  -8    6.66    0.21 
  -5   6   8    7.50    0.43 
   4  -6  -8   24.54    0.37 
  -4   6   8   27.40    0.51 
   3  -6  -8    6.18    0.19 
  -3   6   8    6.35    0.25 
   2  -6  -8    0.90    0.11 
  -2   6   8    0.60    0.10 
   1  -6  -8   50.56    1.00 
  -1   6   8   57.03    1.09 
   0  -6  -8   43.70    0.74 
   0   6   8   41.65    0.73 
  -1  -6  -8   11.79    0.37 
   1   6   8   10.04    0.33 
  -2  -6  -8    2.91    0.15 
   2   6   8    2.63    0.12 
  -3  -6  -8    7.09    0.19 
   3   6   8    6.75    0.15 
  -4  -6  -8    5.18    0.23 
   4   6   8    4.61    0.16 
  -5  -6  -8   28.32    0.81 
   5   6   8   26.00    0.39 
  -6  -6  -8    6.46    0.41 
   6   6   8    6.47    0.18 
  -7  -6  -8    3.36    0.29 
   7   6   8    2.86    0.17 
  -8  -6  -8    0.28    0.22 
   8   6   8    0.29    0.16 
  -9  -6  -8    7.24    0.55 
   9   6   8    6.05    0.35 
 -10  -6  -8    0.20    0.34 
  10   6   8    0.21    0.40 
   8  -7  -8    3.64    0.54 
  -8   7   8    4.36    0.62 
   7  -7  -8    2.87    0.23 
  -7   7   8    3.61    0.43 
   6  -7  -8    5.52    0.23 
  -6   7   8    5.39    0.45 
   5  -7  -8    0.04    0.08 
  -5   7   8    0.09    0.19 
   4  -7  -8    9.28    0.25 
  -4   7   8   10.30    0.34 
   3  -7  -8   15.76    0.33 
  -3   7   8   17.23    0.40 
   2  -7  -8   30.49    0.42 
  -2   7   8   32.19    0.45 
   1  -7  -8    3.80    0.23 
  -1   7   8    3.78    0.22 
   0  -7  -8    0.44    0.09 
   0   7   8    0.50    0.09 
  -1  -7  -8   60.98    1.10 
   1   7   8   64.05    1.00 
  -2  -7  -8   34.10    0.46 
   2   7   8   32.18    0.39 
  -3  -7  -8    4.33    0.17 
   3   7   8    4.10    0.13 
  -4  -7  -8    0.12    0.10 
   4   7   8    0.06    0.06 
  -5  -7  -8    9.33    0.47 
   5   7   8    8.38    0.21 
  -6  -7  -8    2.59    0.30 
   6   7   8    2.61    0.13 
  -7  -7  -8   13.85    0.58 
   7   7   8   11.37    0.30 
  -8  -7  -8    1.16    0.33 
   8   7   8    0.88    0.18 
  -9  -7  -8    1.91    0.42 
   9   7   8    1.89    0.23 
 -10  -7  -8    0.18    0.31 
  10   7   8    0.20    0.43 
   7  -8  -8    1.98    0.32 
  -7   8   8    1.95    0.36 
   6  -8  -8   10.46    0.38 
  -6   8   8   11.06    0.61 
   5  -8  -8    5.41    0.21 
  -5   8   8    6.03    0.47 
   4  -8  -8    7.94    0.25 
  -4   8   8    8.75    0.37 
   3  -8  -8    2.20    0.17 
  -3   8   8    2.05    0.19 
   2  -8  -8   19.12    0.54 
  -2   8   8   21.68    0.52 
   1  -8  -8   27.31    0.67 
  -1   8   8   30.10    0.65 
   0  -8  -8   24.73    0.54 
   0   8   8   23.01    0.53 
  -1  -8  -8    1.52    0.22 
   1   8   8    1.54    0.22 
  -2  -8  -8    4.54    0.17 
   2   8   8    4.25    0.16 
  -3  -8  -8   59.64    0.63 
   3   8   8   54.74    0.52 
  -4  -8  -8   18.39    0.42 
   4   8   8   17.53    0.29 
  -5  -8  -8    0.82    0.21 
   5   8   8    0.70    0.10 
  -6  -8  -8    1.28    0.25 
   6   8   8    1.41    0.10 
  -7  -8  -8    6.99    0.45 
   7   8   8    6.09    0.23 
  -8  -8  -8    0.85    0.31 
   8   8   8    0.80    0.19 
  -9  -8  -8    5.48    0.61 
   9   8   8    4.29    0.32 
 -10  -8  -8    0.00    0.27 
  10   8   8    0.18    0.46 
   7  -9  -8    2.12    0.51 
   6  -9  -8    0.05    0.18 
  -6   9   8    0.07    0.24 
   5  -9  -8    6.34    0.29 
  -5   9   8    6.48    0.50 
   4  -9  -8   19.69    0.40 
  -4   9   8   22.90    0.58 
   3  -9  -8    6.43    0.25 
  -3   9   8    7.18    0.32 
   2  -9  -8    8.60    0.32 
  -2   9   8    8.34    0.33 
   1  -9  -8   10.90    0.47 
  -1   9   8   10.77    0.45 
   0  -9  -8   28.13    0.61 
   0   9   8   26.43    0.60 
  -1  -9  -8   25.10    0.66 
   1   9   8   25.65    0.66 
  -2  -9  -8   12.41    0.29 
   2   9   8   11.86    0.30 
  -3  -9  -8    0.12    0.11 
   3   9   8    0.22    0.08 
  -4  -9  -8    7.71    0.28 
   4   9   8    6.86    0.20 
  -5  -9  -8   36.77    0.87 
   5   9   8   34.21    0.42 
  -6  -9  -8    7.56    0.48 
   6   9   8    6.83    0.19 
  -7  -9  -8    0.00    0.17 
   7   9   8    0.16    0.11 
  -8  -9  -8    2.12    0.32 
   8   9   8    1.72    0.23 
  -9  -9  -8    3.80    0.57 
   9   9   8    3.18    0.29 
 -10  -9  -8    0.41    0.27 
  10   9   8    0.13    0.55 
   6 -10  -8    5.48    0.59 
  -6  10   8    6.11    0.68 
   5 -10  -8    2.64    0.22 
  -5  10   8    3.25    0.41 
   4 -10  -8    0.30    0.14 
  -4  10   8    0.51    0.20 
   3 -10  -8   13.49    0.37 
  -3  10   8   14.22    0.43 
   2 -10  -8   27.92    0.65 
  -2  10   8   30.45    0.83 
   1 -10  -8    5.06    0.36 
  -1  10   8    5.13    0.29 
   0 -10  -8    5.19    0.29 
   0  10   8    5.44    0.29 
  -1 -10  -8   16.37    0.45 
   1  10   8   16.18    0.46 
  -2 -10  -8   26.45    0.54 
   2  10   8   25.46    0.55 
  -3 -10  -8   17.43    0.41 
   3  10   8   15.66    0.33 
  -4 -10  -8    3.74    0.23 
   4  10   8    3.21    0.16 
  -5 -10  -8    0.00    0.14 
   5  10   8    0.05    0.07 
  -6 -10  -8    6.89    0.42 
   6  10   8    6.40    0.20 
  -7 -10  -8   18.47    0.64 
   7  10   8   17.05    0.39 
  -8 -10  -8    2.63    0.32 
   8  10   8    2.06    0.24 
  -9 -10  -8    0.19    0.26 
   9  10   8    0.30    0.18 
 -10 -10  -8    1.31    0.36 
   5 -11  -8    6.34    0.47 
  -5  11   8    5.69    0.51 
   4 -11  -8    8.46    0.34 
  -4  11   8    8.35    0.57 
   3 -11  -8    1.07    0.19 
  -3  11   8    1.67    0.25 
   2 -11  -8    2.42    0.34 
  -2  11   8    1.82    0.41 
   1 -11  -8   26.07    0.82 
  -1  11   8   25.09    0.75 
   0 -11  -8   26.00    0.83 
   0  11   8   24.97    0.81 
  -1 -11  -8    3.41    0.29 
   1  11   8    2.75    0.35 
  -2 -11  -8    2.06    0.33 
   2  11   8    1.55    0.26 
  -3 -11  -8   18.18    0.44 
   3  11   8   17.32    0.34 
  -4 -11  -8   19.51    0.46 
   4  11   8   16.95    0.32 
  -5 -11  -8    7.10    0.44 
   5  11   8    6.36    0.20 
  -6 -11  -8    0.41    0.21 
   6  11   8    0.51    0.10 
  -7 -11  -8    0.20    0.22 
   7  11   8    0.20    0.12 
  -8 -11  -8    4.16    0.39 
   8  11   8    3.50    0.31 
  -9 -11  -8    7.96    0.63 
   9  11   8    6.88    0.42 
 -10 -11  -8    0.81    0.33 
   4 -12  -8    7.08    0.52 
  -4  12   8    6.25    0.54 
   3 -12  -8    7.41    0.46 
  -3  12   8    8.05    0.48 
   2 -12  -8    9.01    0.58 
  -2  12   8    8.56    0.68 
   1 -12  -8    0.10    0.24 
  -1  12   8    0.02    0.31 
   0 -12  -8    3.22    0.30 
   0  12   8    3.03    0.30 
  -1 -12  -8   23.41    0.77 
   1  12   8   21.70    0.80 
  -2 -12  -8   15.52    0.87 
   2  12   8   14.84    0.64 
  -3 -12  -8    0.83    0.18 
   3  12   8    0.79    0.15 
  -4 -12  -8    0.34    0.17 
   4  12   8    0.23    0.11 
  -5 -12  -8   13.01    0.59 
   5  12   8   12.03    0.28 
  -6 -12  -8    9.79    0.53 
   6  12   8    8.71    0.25 
  -7 -12  -8    1.70    0.31 
   7  12   8    1.47    0.18 
  -8 -12  -8    0.07    0.22 
   8  12   8    0.02    0.11 
  -9 -12  -8    0.78    0.34 
   9  12   8    0.07    0.61 
   3 -13  -8    2.08    1.17 
  -3  13   8    0.54    0.49 
   2 -13  -8   10.91    0.82 
  -2  13   8   11.83    0.83 
   1 -13  -8    6.91    0.54 
  -1  13   8    6.24    0.78 
   0 -13  -8    6.48    0.46 
   0  13   8    6.86    0.46 
  -1 -13  -8    0.63    0.32 
   1  13   8    0.11    0.24 
  -2 -13  -8    3.09    0.42 
   2  13   8    2.83    0.34 
  -3 -13  -8   21.36    0.52 
   3  13   8   21.35    0.46 
  -4 -13  -8    5.85    0.35 
   4  13   8    5.71    0.25 
  -5 -13  -8    0.08    0.20 
   5  13   8    0.12    0.10 
  -6 -13  -8    0.15    0.22 
   6  13   8    0.10    0.12 
  -7 -13  -8    7.02    0.52 
   7  13   8    6.26    0.31 
  -8 -13  -8    3.42    0.41 
   8  13   8    4.24    0.31 
  -9 -13  -8    0.19    0.32 
   2 -14  -8    0.00    0.96 
  -2  14   8    0.00    6.01 
   1 -14  -8    1.99    1.04 
  -1  14   8    4.25    1.14 
   0 -14  -8   10.80    0.60 
   0  14   8   10.42    0.59 
  -1 -14  -8    5.09    0.82 
   1  14   8    4.47    0.54 
  -2 -14  -8    3.76    0.72 
   2  14   8    3.77    0.58 
  -3 -14  -8    1.31    0.27 
   3  14   8    1.16    0.19 
  -4 -14  -8    3.04    0.30 
   4  14   8    2.48    0.21 
  -5 -14  -8   12.92    0.65 
   5  14   8   11.97    0.35 
  -6 -14  -8    1.45    0.33 
   6  14   8    0.78    0.19 
  -7 -14  -8    0.12    0.24 
   7  14   8    0.08    0.16 
  -8 -14  -8    0.35    0.28 
   8  14   8    0.11    0.25 
   1 -15  -8    0.00    4.83 
   0 -15  -8    0.21    0.45 
   0  15   8    0.00    0.45 
  -1 -15  -8    5.31    1.21 
   1  15   8    6.39    1.04 
  -2 -15  -8    7.87    0.88 
   2  15   8    8.57    0.82 
  -3 -15  -8    2.00    0.33 
   3  15   8    1.96    0.33 
  -4 -15  -8    0.50    0.28 
   4  15   8    0.60    0.16 
  -5 -15  -8    1.13    0.32 
   5  15   8    1.62    0.20 
  -6 -15  -8    1.72    0.37 
   6  15   8    1.59    0.30 
  -7 -15  -8    6.41    0.67 
   7  15   8    5.59    0.57 
   8  15   8    0.03    0.30 
   1  16   8    0.00    5.19 
  -2 -16  -8    0.00    6.46 
   2  16   8    1.04    0.96 
  -3 -16  -8    6.38    0.79 
   3  16   8    6.33    1.17 
  -4 -16  -8    2.98    0.52 
   4  16   8    3.69    0.45 
  -5 -16  -8    0.14    0.33 
   5  16   8    0.72    0.24 
  -6 -16  -8    0.11    0.28 
   6  16   8    0.61    0.41 
  -3 -10   9    4.02    0.84 
  -7  -9   9    1.19    0.62 
   6   9  -9    1.11    0.27 
  -6  -9   9    0.75    0.53 
   5   9  -9    6.95    0.55 
  -5  -9   9    7.08    0.67 
   4   9  -9    0.37    0.27 
  -4  -9   9    0.72    0.37 
   3   9  -9    0.38    0.85 
  -3  -9   9    0.59    0.47 
   2   9  -9    1.38    1.01 
  -2  -9   9    1.83    7.36 
   1   9  -9    3.58    1.10 
  -1  -9   9    3.81    7.53 
   0   9  -9    5.21    1.03 
   0  -9   9    4.09    1.03 
   7   8  -9    4.12    0.56 
  -7  -8   9    5.11    0.47 
   6   8  -9    0.27    0.19 
  -6  -8   9    0.00    0.23 
   5   8  -9    3.15    0.27 
  -5  -8   9    3.13    0.47 
   4   8  -9    3.20    0.25 
  -4  -8   9    4.06    0.42 
   3   8  -9   10.95    0.53 
  -3  -8   9   12.67    0.62 
   2   8  -9    1.11    0.47 
  -2  -8   9    0.31    0.84 
   1   8  -9    0.26    0.52 
  -1  -8   9    0.00    0.51 
   0   8  -9    2.38    0.60 
   0  -8   9    4.21    0.60 
  -1   8  -9    5.67    7.18 
   1  -8   9    6.12    1.10 
  -8  -7   9    0.20    0.29 
   7   7  -9    5.53    0.39 
  -7  -7   9    6.42    0.51 
   6   7  -9    2.46    0.19 
  -6  -7   9    2.64    0.35 
   5   7  -9    8.46    0.33 
  -5  -7   9    8.17    0.53 
   4   7  -9    0.11    0.13 
  -4  -7   9    0.09    0.25 
   3   7  -9    6.05    0.29 
  -3  -7   9    6.58    0.36 
   2   7  -9    6.34    0.71 
  -2  -7   9    8.82    1.34 
   1   7  -9   13.20    0.80 
  -1  -7   9   11.60    0.81 
   0   7  -9    0.12    0.23 
   0  -7   9    0.04    0.23 
  -1   7  -9    0.70    0.50 
   1  -7   9    0.00    0.51 
  -2   7  -9    4.82    7.03 
   2  -7   9    3.95    1.01 
  -3   7  -9    3.65    0.74 
   3  -7   9    4.01    0.66 
  -8  -6   9    1.15    0.36 
   7   6  -9    0.75    0.17 
  -7  -6   9    0.73    0.25 
   6   6  -9    1.61    0.16 
  -6  -6   9    1.54    0.28 
   5   6  -9   12.74    0.35 
  -5  -6   9   13.74    0.61 
   4   6  -9    3.82    0.22 
  -4  -6   9    4.81    0.42 
   3   6  -9   10.63    0.30 
  -3  -6   9   11.12    0.39 
   2   6  -9    2.36    0.46 
  -2  -6   9    2.08    0.51 
   1   6  -9    9.42    0.52 
  -1  -6   9    9.34    0.50 
   0   6  -9    9.91    0.56 
   0  -6   9   11.98    0.55 
  -1   6  -9   13.63    0.81 
   1  -6   9   11.46    0.80 
  -2   6  -9    0.13    0.79 
   2  -6   9    0.00    0.47 
  -3   6  -9    0.83    0.36 
   3  -6   9    0.00    0.85 
  -4   6  -9    6.62    0.85 
   4  -6   9    4.05    0.47 
  -9  -5   9    0.68    0.34 
   8   5  -9    1.70    0.29 
  -8  -5   9    1.88    0.39 
   7   5  -9    9.20    0.35 
  -7  -5   9    9.94    0.52 
   6   5  -9    1.05    0.13 
  -6  -5   9    0.82    0.23 
   5   5  -9    0.22    0.11 
  -5  -5   9    0.68    0.22 
   4   5  -9    6.67    0.24 
  -4  -5   9    6.20    0.42 
   3   5  -9   20.58    0.37 
  -3  -5   9   22.12    0.46 
   2   5  -9    3.95    0.35 
  -2  -5   9    5.57    0.34 
   1   5  -9    9.73    0.43 
  -1  -5   9   10.47    0.44 
   0   5  -9    7.15    0.41 
   0  -5   9    8.13    0.41 
  -1   5  -9   11.02    0.51 
   1  -5   9    9.39    0.52 
  -2   5  -9   11.34    1.27 
   2  -5   9   12.50    0.71 
  -3   5  -9    6.10    0.45 
   3  -5   9    5.78    0.46 
  -4   5  -9    1.43    0.32 
   4  -5   9    1.08    0.32 
  -5   5  -9    1.43    0.64 
   5  -5   9    1.57    0.34 
  -9  -4   9    4.92    0.55 
   8   4  -9    0.45    0.21 
  -8  -4   9    0.18    0.27 
   7   4  -9    2.70    0.21 
  -7  -4   9    2.83    0.32 
   6   4  -9    6.13    0.23 
  -6  -4   9    6.51    0.43 
   5   4  -9   15.13    0.34 
  -5  -4   9   17.15    0.61 
   4   4  -9    0.52    0.09 
  -4  -4   9    0.64    0.21 
   3   4  -9    0.06    0.07 
  -3  -4   9    0.13    0.11 
   2   4  -9   13.60    0.60 
  -2  -4   9   17.07    0.64 
   1   4  -9   22.78    0.69 
  -1  -4   9   28.34    0.70 
   0   4  -9    4.14    0.30 
   0  -4   9    3.64    0.29 
  -1   4  -9    6.20    0.44 
   1  -4   9    6.53    0.42 
  -2   4  -9   13.67    0.51 
   2  -4   9   11.96    0.46 
  -3   4  -9    7.42    0.37 
   3  -4   9    7.23    0.26 
  -4   4  -9    8.44    0.53 
   4  -4   9    7.69    0.35 
  -5   4  -9    2.26    0.43 
   5  -4   9    1.84    0.28 
  -6   4  -9    2.32    0.70 
   6  -4   9    1.12    0.46 
   9   3  -9    1.40    0.51 
  -9  -3   9    2.51    0.41 
   8   3  -9    3.85    0.32 
  -8  -3   9    4.57    0.51 
   7   3  -9    8.33    0.25 
  -7  -3   9    8.88    0.46 
   6   3  -9    1.56    0.14 
  -6  -3   9    1.37    0.24 
   5   3  -9    7.30    0.24 
  -5  -3   9    8.58    0.44 
   4   3  -9   13.36    0.25 
  -4  -3   9   14.17    0.53 
   3   3  -9   19.94    0.32 
  -3  -3   9   21.12    0.39 
   2   3  -9    0.00    0.22 
  -2  -3   9    0.63    0.24 
   1   3  -9    0.65    0.23 
  -1  -3   9    0.62    0.22 
   0   3  -9   24.96    0.71 
   0  -3   9   24.18    0.70 
  -1   3  -9   17.65    0.71 
   1  -3   9   22.90    0.69 
  -2   3  -9    2.18    0.34 
   2  -3   9    2.84    0.35 
  -3   3  -9    2.14    0.22 
   3  -3   9    1.78    0.15 
  -4   3  -9   13.62    0.59 
   4  -3   9   12.57    0.35 
  -5   3  -9    4.09    0.42 
   5  -3   9    3.59    0.25 
  -6   3  -9    4.70    0.47 
   6  -3   9    3.80    0.39 
   9   2  -9    0.00    0.34 
  -9  -2   9    0.43    0.38 
   8   2  -9    0.69    0.19 
  -8  -2   9    1.19    0.31 
   7   2  -9    5.16    0.18 
  -7  -2   9    6.43    0.40 
   6   2  -9    7.58    0.22 
  -6  -2   9    7.26    0.40 
   5   2  -9    9.13    0.24 
  -5  -2   9    9.59    0.44 
   4   2  -9    6.55    0.18 
  -4  -2   9    6.87    0.38 
   3   2  -9   15.39    0.28 
  -3  -2   9   17.08    0.36 
   2   2  -9   20.75    0.44 
  -2  -2   9   22.49    0.51 
   1   2  -9   16.55    0.43 
  -1  -2   9   17.55    0.43 
   0   2  -9    1.06    0.16 
   0  -2   9    0.95    0.16 
  -1   2  -9    1.77    0.22 
   1  -2   9    1.79    0.23 
  -2   2  -9   26.79    0.65 
   2  -2   9   29.58    0.61 
  -3   2  -9   10.06    0.32 
   3  -2   9    9.59    0.25 
  -4   2  -9    0.95    0.25 
   4  -2   9    0.84    0.12 
  -5   2  -9    0.19    0.21 
   5  -2   9    0.08    0.11 
  -6   2  -9    9.61    0.57 
   6  -2   9    7.95    0.30 
  -7   2  -9    1.84    0.43 
   7  -2   9    1.53    0.39 
   9   1  -9    5.27    0.40 
  -9  -1   9    5.02    0.73 
   8   1  -9    0.42    0.19 
  -8  -1   9    0.69    0.36 
   7   1  -9    0.70    0.12 
  -7  -1   9    0.99    0.22 
   6   1  -9    4.61    0.18 
  -6  -1   9    4.81    0.35 
   5   1  -9   11.50    0.26 
  -5  -1   9   13.52    0.49 
   4   1  -9    9.66    0.20 
  -4  -1   9   10.21    0.43 
   3   1  -9    6.05    0.17 
  -3  -1   9    6.42    0.21 
   2   1  -9   16.90    0.39 
  -2  -1   9   17.95    0.42 
   1   1  -9   25.65    0.61 
  -1  -1   9   28.00    0.63 
   0   1  -9   21.38    0.61 
   0  -1   9   21.74    0.61 
  -1   1  -9   10.24    0.43 
   1  -1   9    9.57    0.43 
  -2   1  -9    3.76    0.24 
   2  -1   9    4.10    0.22 
  -3   1  -9    2.77    0.17 
   3  -1   9    2.73    0.14 
  -4   1  -9   21.09    0.70 
   4  -1   9   19.39    0.36 
  -5   1  -9    3.22    0.35 
   5  -1   9    2.49    0.18 
  -6   1  -9    0.00    0.20 
   6  -1   9    0.20    0.11 
  -7   1  -9    0.05    0.22 
   7  -1   9    0.03    0.16 
   9   0  -9    2.09    0.66 
  -9   0   9    3.42    0.63 
   8   0  -9    1.86    0.25 
  -8   0   9    2.59    0.53 
   7   0  -9   11.37    0.32 
  -7   0   9   12.99    0.62 
   6   0  -9    0.07    0.08 
  -6   0   9    0.09    0.19 
   5   0  -9    3.99    0.18 
  -5   0   9    4.35    0.32 
   4   0  -9   14.76    0.24 
  -4   0   9   15.53    0.51 
   3   0  -9   19.11    0.28 
  -3   0   9   19.46    0.31 
   2   0  -9    8.88    0.21 
  -2   0   9    9.77    0.24 
   1   0  -9    1.52    0.16 
  -1   0   9    1.44    0.16 
   0   0  -9   30.45    0.66 
   0   0   9   29.54    0.65 
  -1   0  -9   26.37    0.64 
   1   0   9   27.81    0.60 
  -2   0  -9   14.70    0.49 
   2   0   9   14.48    0.42 
  -3   0  -9    2.40    0.18 
   3   0   9    1.93    0.13 
  -4   0  -9    6.30    0.40 
   4   0   9    5.64    0.18 
  -5   0  -9    2.64    0.31 
   5   0   9    2.24    0.16 
  -6   0  -9   10.84    0.54 
   6   0   9   10.09    0.29 
  -7   0  -9    0.25    0.23 
   7   0   9    0.08    0.13 
  -8   0  -9    0.13    0.31 
   9  -1  -9    0.82    0.60 
  -9   1   9    0.24    0.36 
   8  -1  -9    0.33    0.19 
  -8   1   9    0.53    0.25 
   7  -1  -9    7.31    0.27 
  -7   1   9    7.86    0.52 
   6  -1  -9    5.74    0.20 
  -6   1   9    5.94    0.45 
   5  -1  -9   18.74    0.33 
  -5   1   9   20.80    0.74 
   4  -1  -9    1.15    0.09 
  -4   1   9    1.17    0.23 
   3  -1  -9   12.17    0.22 
  -3   1   9   12.90    0.27 
   2  -1  -9   31.55    0.42 
  -2   1   9   32.33    0.54 
   1  -1  -9   20.05    0.47 
  -1   1   9   21.86    0.52 
   0  -1  -9    4.25    0.19 
   0   1   9    4.15    0.19 
  -1  -1  -9    0.26    0.16 
   1   1   9    0.24    0.16 
  -2  -1  -9   35.38    0.53 
   2   1   9   33.60    0.53 
  -3  -1  -9   19.13    0.37 
   3   1   9   17.65    0.29 
  -4  -1  -9    7.49    0.40 
   4   1   9    6.55    0.17 
  -5  -1  -9    0.18    0.18 
   5   1   9    0.00    0.09 
  -6  -1  -9    5.85    0.42 
   6   1   9    5.78    0.23 
  -7  -1  -9    1.62    0.28 
   7   1   9    1.43    0.18 
  -8  -1  -9    4.35    0.55 
   8   1   9    3.77    0.60 
   9  -2  -9    6.47    1.12 
  -9   2   9    7.32    0.67 
   8  -2  -9    1.14    0.24 
  -8   2   9    1.52    0.33 
   7  -2  -9    0.27    0.12 
  -7   2   9    0.40    0.23 
   6  -2  -9    4.56    0.18 
  -6   2   9    5.06    0.44 
   5  -2  -9   16.92    0.30 
  -5   2   9   18.66    0.70 
   4  -2  -9   11.27    0.24 
  -4   2   9   12.41    0.46 
   3  -2  -9   21.06    0.29 
  -3   2   9   22.90    0.36 
   2  -2  -9    7.64    0.21 
  -2   2   9    8.21    0.25 
   1  -2  -9   22.92    0.63 
  -1   2   9   26.49    0.70 
   0  -2  -9   42.22    0.75 
   0   2   9   38.67    0.75 
  -1  -2  -9   16.55    0.52 
   1   2   9   18.04    0.46 
  -2  -2  -9    0.43    0.13 
   2   2   9    0.32    0.11 
  -3  -2  -9    2.22    0.14 
   3   2   9    2.11    0.11 
  -4  -2  -9   28.29    0.73 
   4   2   9   25.86    0.32 
  -5  -2  -9    8.91    0.44 
   5   2   9    8.07    0.24 
  -6  -2  -9    2.33    0.28 
   6   2   9    1.96    0.15 
  -7  -2  -9    0.76    0.23 
   7   2   9    0.56    0.13 
  -8  -2  -9    3.72    0.49 
   8   2   9    4.25    0.41 
  -9  -2  -9    1.13    0.37 
  -9   3   9    0.94    0.36 
   8  -3  -9    3.52    0.32 
  -8   3   9    3.45    0.38 
   7  -3  -9   14.47    0.37 
  -7   3   9   15.81    0.73 
   6  -3  -9    1.86    0.13 
  -6   3   9    1.59    0.30 
   5  -3  -9    0.11    0.08 
  -5   3   9    0.00    0.17 
   4  -3  -9   19.08    0.31 
  -4   3   9   21.60    0.47 
   3  -3  -9   27.24    0.33 
  -3   3   9   29.11    0.41 
   2  -3  -9   17.37    0.26 
  -2   3   9   18.34    0.32 
   1  -3  -9   15.62    0.36 
  -1   3   9   15.48    0.41 
   0  -3  -9   18.45    0.45 
   0   3   9   18.34    0.45 
  -1  -3  -9   34.48    0.71 
   1   3   9   36.13    0.62 
  -2  -3  -9   36.35    0.57 
   2   3   9   33.20    0.43 
  -3  -3  -9    7.23    0.20 
   3   3   9    6.60    0.17 
  -4  -3  -9    0.28    0.15 
   4   3   9    0.42    0.07 
  -5  -3  -9    4.06    0.32 
   5   3   9    3.40    0.17 
  -6  -3  -9   16.18    0.57 
   6   3   9   15.00    0.29 
  -7  -3  -9    2.61    0.30 
   7   3   9    2.60    0.17 
  -8  -3  -9    0.71    0.30 
   8   3   9    0.81    0.23 
  -9  -3  -9    1.18    0.37 
  -9   4   9    2.97    0.69 
   8  -4  -9    0.04    0.17 
  -8   4   9    0.01    0.23 
   7  -4  -9    3.03    0.22 
  -7   4   9    2.97    0.35 
   6  -4  -9    8.59    0.24 
  -6   4   9    9.27    0.50 
   5  -4  -9   28.10    0.38 
  -5   4   9   31.04    0.98 
   4  -4  -9    0.91    0.11 
  -4   4   9    1.12    0.16 
   3  -4  -9    0.62    0.08 
  -3   4   9    0.54    0.10 
   2  -4  -9   47.21    0.54 
  -2   4   9   49.90    0.64 
   1  -4  -9   32.48    0.63 
  -1   4   9   33.78    0.70 
   0  -4  -9   17.32    0.40 
   0   4   9   15.50    0.40 
  -1  -4  -9    6.95    0.41 
   1   4   9    6.45    0.36 
  -2  -4  -9   27.89    0.42 
   2   4   9   26.76    0.35 
  -3  -4  -9   31.35    0.42 
   3   4   9   28.44    0.34 
  -4  -4  -9   19.56    0.58 
   4   4   9   17.90    0.26 
  -5  -4  -9    1.69    0.23 
   5   4   9    1.51    0.12 
  -6  -4  -9    1.73    0.24 
   6   4   9    1.51    0.12 
  -7  -4  -9    3.47    0.32 
   7   4   9    3.58    0.17 
  -8  -4  -9    7.90    0.60 
   8   4   9    7.21    0.49 
  -9  -4  -9    0.23    0.28 
   8  -5  -9    2.29    0.38 
  -8   5   9    2.12    0.35 
   7  -5  -9    4.50    0.26 
  -7   5   9    5.63    0.46 
   6  -5  -9    0.51    0.11 
  -6   5   9    0.55    0.23 
   5  -5  -9    7.54    0.21 
  -5   5   9    7.87    0.45 
   4  -5  -9   18.25    0.32 
  -4   5   9   20.14    0.47 
   3  -5  -9   39.94    0.43 
  -3   5   9   44.48    0.65 
   2  -5  -9    0.17    0.10 
  -2   5   9    0.01    0.08 
   1  -5  -9    4.43    0.28 
  -1   5   9    4.52    0.32 
   0  -5  -9   73.43    1.28 
   0   5   9   69.69    1.27 
  -1  -5  -9   26.30    0.70 
   1   5   9   25.95    0.62 
  -2  -5  -9    9.75    0.24 
   2   5   9    9.16    0.20 
  -3  -5  -9    1.08    0.12 
   3   5   9    1.04    0.08 
  -4  -5  -9   26.71    0.81 
   4   5   9   24.13    0.29 
  -5  -5  -9   18.34    0.57 
   5   5   9   17.63    0.31 
  -6  -5  -9    7.94    0.41 
   6   5   9    7.19    0.21 
  -7  -5  -9    0.10    0.17 
   7   5   9    0.11    0.09 
  -8  -5  -9    1.72    0.35 
   8   5   9    1.76    0.24 
  -9  -5  -9    2.35    0.40 
   9   5   9    1.99    0.32 
   8  -6  -9    3.79    0.52 
  -8   6   9    3.71    0.44 
   7  -6  -9    6.83    0.32 
  -7   6   9    8.74    0.56 
   6  -6  -9    5.19    0.22 
  -6   6   9    5.09    0.43 
   5  -6  -9    5.84    0.20 
  -5   6   9    6.00    0.42 
   4  -6  -9    4.59    0.19 
  -4   6   9    4.93    0.26 
   3  -6  -9   12.74    0.24 
  -3   6   9   13.98    0.36 
   2  -6  -9   29.88    0.45 
  -2   6   9   32.31    0.46 
   1  -6  -9   38.63    0.68 
  -1   6   9   42.48    0.71 
   0  -6  -9    0.30    0.09 
   0   6   9    0.47    0.09 
  -1  -6  -9   10.20    0.32 
   1   6   9    9.71    0.28 
  -2  -6  -9   72.34    0.80 
   2   6   9   67.82    0.67 
  -3  -6  -9   12.37    0.26 
   3   6   9   11.47    0.21 
  -4  -6  -9    3.28    0.21 
   4   6   9    2.99    0.14 
  -5  -6  -9    0.10    0.17 
   5   6   9    0.05    0.07 
  -6  -6  -9   18.88    0.70 
   6   6   9   16.71    0.30 
  -7  -6  -9    8.60    0.51 
   7   6   9    7.47    0.26 
  -8  -6  -9    2.61    0.51 
   8   6   9    2.28    0.25 
  -9  -6  -9    0.00    0.32 
   9   6   9    0.05    0.15 
   8  -7  -9    1.62    0.42 
   7  -7  -9    0.26    0.17 
  -7   7   9    0.08    0.24 
   6  -7  -9    8.72    0.27 
  -6   7   9    9.43    0.57 
   5  -7  -9   13.25    0.29 
  -5   7   9   14.79    0.62 
   4  -7  -9    6.63    0.23 
  -4   7   9    7.25    0.34 
   3  -7  -9    4.61    0.21 
  -3   7   9    5.23    0.26 
   2  -7  -9   17.43    0.43 
  -2   7   9   17.06    0.44 
   1  -7  -9   15.95    0.45 
  -1   7   9   17.18    0.44 
   0  -7  -9   35.79    0.70 
   0   7   9   34.47    0.69 
  -1  -7  -9   23.07    0.72 
   1   7   9   24.40    0.68 
  -2  -7  -9    1.45    0.13 
   2   7   9    1.37    0.13 
  -3  -7  -9   13.12    0.28 
   3   7   9   11.99    0.21 
  -4  -7  -9   50.10    0.77 
   4   7   9   44.86    0.55 
  -5  -7  -9    3.21    0.34 
   5   7   9    3.09    0.16 
  -6  -7  -9    0.76    0.24 
   6   7   9    0.45    0.09 
  -7  -7  -9    0.09    0.19 
   7   7   9    0.11    0.10 
  -8  -7  -9    9.02    0.76 
   8   7   9    8.59    0.43 
  -9  -7  -9    2.95    0.54 
   9   7   9    2.08    0.26 
 -10  -7  -9    1.26    0.41 
   7  -8  -9    4.43    0.55 
  -7   8   9    5.51    0.64 
   6  -8  -9    1.67    0.23 
  -6   8   9    1.43    0.34 
   5  -8  -9    0.59    0.12 
  -5   8   9    0.12    0.22 
   4  -8  -9   16.80    0.37 
  -4   8   9   19.02    0.52 
   3  -8  -9   19.53    0.40 
  -3   8   9   21.72    0.48 
   2  -8  -9    6.58    0.25 
  -2   8   9    6.62    0.28 
   1  -8  -9    1.19    0.21 
  -1   8   9    1.33    0.20 
   0  -8  -9   29.78    0.68 
   0   8   9   29.87    0.68 
  -1  -8  -9   12.35    0.45 
   1   8   9   12.12    0.45 
  -2  -8  -9   26.49    0.41 
   2   8   9   25.33    0.42 
  -3  -8  -9    7.57    0.27 
   3   8   9    7.57    0.18 
  -4  -8  -9    1.74    0.18 
   4   8   9    1.51    0.12 
  -5  -8  -9   10.76    0.56 
   5   8   9   10.15    0.21 
  -6  -8  -9   25.10    0.84 
   6   8   9   22.28    0.37 
  -7  -8  -9    0.26    0.21 
   7   8   9    0.17    0.11 
  -8  -8  -9    0.00    0.27 
   8   8   9    0.18    0.17 
  -9  -8  -9    0.64    0.33 
   9   8   9    0.18    0.17 
 -10  -8  -9    4.63    0.68 
   6  -9  -9    5.35    0.44 
  -6   9   9    5.03    0.49 
   5  -9  -9    5.33    0.27 
  -5   9   9    5.67    0.48 
   4  -9  -9    0.77    0.14 
  -4   9   9    0.59    0.19 
   3  -9  -9    2.63    0.20 
  -3   9   9    2.69    0.23 
   2  -9  -9   26.44    0.65 
  -2   9   9   29.33    0.75 
   1  -9  -9   19.86    0.53 
  -1   9   9   21.49    0.52 
   0  -9  -9    3.58    0.28 
   0   9   9    3.77    0.27 
  -1  -9  -9    0.10    0.20 
   1   9   9    0.25    0.20 
  -2  -9  -9   33.19    0.54 
   2   9   9   31.30    0.51 
  -3  -9  -9    6.40    0.27 
   3   9   9    6.03    0.18 
  -4  -9  -9   13.77    0.37 
   4   9   9   11.57    0.26 
  -5  -9  -9    1.26    0.27 
   5   9   9    1.36    0.11 
  -6  -9  -9    0.92    0.26 
   6   9   9    1.12    0.11 
  -7  -9  -9    6.69    0.49 
   7   9   9    6.11    0.26 
  -8  -9  -9    9.48    0.57 
   8   9   9    8.56    0.44 
  -9  -9  -9    0.00    0.28 
   9   9   9    0.00    0.15 
 -10  -9  -9    0.00    0.28 
   6 -10  -9    3.17    0.59 
  -6  10   9    3.08    0.54 
   5 -10  -9    3.65    0.26 
  -5  10   9    4.12    0.44 
   4 -10  -9    7.13    0.32 
  -4  10   9    6.50    0.44 
   3 -10  -9    4.87    0.27 
  -3  10   9    5.13    0.31 
   2 -10  -9    0.34    0.33 
  -2  10   9    0.00    0.39 
   1 -10  -9    7.74    0.44 
  -1  10   9    6.59    0.36 
   0 -10  -9   29.71    0.82 
   0  10   9   29.94    0.82 
  -1 -10  -9   13.02    0.52 
   1  10   9   13.22    0.52 
  -2 -10  -9    1.19    0.24 
   2  10   9    1.04    0.19 
  -3 -10  -9    1.78    0.19 
   3  10   9    1.60    0.14 
  -4 -10  -9   23.71    0.50 
   4  10   9   20.84    0.35 
  -5 -10  -9    1.25    0.24 
   5  10   9    1.72    0.12 
  -6 -10  -9    4.17    0.38 
   6  10   9    3.47    0.17 
  -7 -10  -9    0.04    0.18 
   7  10   9    0.10    0.11 
  -8 -10  -9    0.51    0.23 
   8  10   9    0.70    0.19 
  -9 -10  -9    3.04    0.45 
   9  10   9    3.87    0.89 
   5 -11  -9    0.20    0.22 
  -5  11   9    0.31    0.35 
   4 -11  -9    6.39    0.36 
  -4  11   9    6.99    0.55 
   3 -11  -9    6.93    0.41 
  -3  11   9    8.40    0.43 
   2 -11  -9    7.48    0.40 
  -2  11   9    7.31    0.47 
   1 -11  -9    2.79    0.32 
  -1  11   9    3.10    0.30 
   0 -11  -9    1.58    0.22 
   0  11   9    1.24    0.22 
  -1 -11  -9    7.48    0.36 
   1  11   9    6.60    0.43 
  -2 -11  -9   23.45    0.76 
   2  11   9   24.76    0.63 
  -3 -11  -9    4.93    0.27 
   3  11   9    4.56    0.25 
  -4 -11  -9    0.10    0.15 
   4  11   9    0.13    0.09 
  -5 -11  -9    4.31    0.38 
   5  11   9    3.58    0.18 
  -6 -11  -9   12.77    0.59 
   6  11   9   11.25    0.28 
  -7 -11  -9    0.42    0.24 
   7  11   9    0.25    0.13 
  -8 -11  -9    0.42    0.24 
   8  11   9    0.39    0.19 
  -9 -11  -9    0.09    0.28 
   9  11   9    0.21    0.61 
   4 -12  -9    2.82    0.36 
  -4  12   9    1.70    0.36 
   3 -12  -9    0.39    0.34 
  -3  12   9    0.53    0.30 
   2 -12  -9    9.03    0.75 
  -2  12   9   10.64    1.07 
   1 -12  -9   10.04    0.58 
  -1  12   9   10.67    0.73 
   0 -12  -9    5.25    0.36 
   0  12   9    4.50    0.36 
  -1 -12  -9    0.28    0.30 
   1  12   9    0.47    0.32 
  -2 -12  -9    4.27    0.40 
   2  12   9    3.53    0.32 
  -3 -12  -9    6.25    0.32 
   3  12   9    6.52    0.26 
  -4 -12  -9   13.97    0.47 
   4  12   9   12.79    0.33 
  -5 -12  -9    0.61    0.25 
   5  12   9    0.66    0.11 
  -6 -12  -9    0.13    0.22 
   6  12   9    0.01    0.09 
  -7 -12  -9    4.25    0.42 
   7  12   9    3.57    0.24 
  -8 -12  -9    4.96    0.46 
   8  12   9    4.37    0.29 
  -9 -12  -9    0.22    0.30 
   3 -13  -9    4.36    0.82 
  -3  13   9    3.40    8.03 
   2 -13  -9    1.43    0.68 
  -2  13   9    1.23    1.04 
   1 -13  -9    3.69    0.49 
  -1  13   9    3.25    0.71 
   0 -13  -9   13.93    0.73 
   0  13   9   14.49    0.73 
  -1 -13  -9    8.30    0.75 
   1  13   9    9.67    0.57 
  -2 -13  -9    1.58    0.49 
   2  13   9    2.09    0.40 
  -3 -13  -9    0.23    0.17 
   3  13   9    0.07    0.15 
  -4 -13  -9    4.90    0.34 
   4  13   9    5.14    0.25 
  -5 -13  -9    3.59    0.40 
   5  13   9    3.80    0.20 
  -6 -13  -9    5.31    0.47 
   6  13   9    5.49    0.27 
  -7 -13  -9    0.17    0.23 
   7  13   9    0.08    0.13 
  -8 -13  -9    0.00    0.22 
   8  13   9    0.73    0.30 
   2 -14  -9    6.54    7.68 
  -2  14   9    8.06    8.93 
   1 -14  -9    2.69    0.71 
  -1  14   9    3.15    1.05 
   0 -14  -9    0.35    0.20 
   0  14   9    0.00    0.20 
  -1 -14  -9    3.66    0.75 
   1  14   9    3.23    0.48 
  -2 -14  -9   14.49    1.14 
   2  14   9   15.84    0.75 
  -3 -14  -9    5.15    0.37 
   3  14   9    5.06    0.37 
  -4 -14  -9    0.21    0.25 
   4  14   9    0.53    0.16 
  -5 -14  -9    0.59    0.27 
   5  14   9    0.58    0.15 
  -6 -14  -9    4.56    0.47 
   6  14   9    4.04    0.32 
  -7 -14  -9    1.58    0.35 
   7  14   9    1.44    0.27 
  -8 -14  -9    0.82    0.39 
   8  14   9    0.99    0.37 
   0 -15  -9    5.89    0.84 
   0  15   9    6.82    0.82 
  -1 -15  -9    2.88    1.12 
   1  15   9    2.50    0.70 
  -2 -15  -9    0.00    1.10 
   2  15   9    0.25    0.67 
  -3 -15  -9    5.41    0.49 
   3  15   9    5.03    0.66 
  -4 -15  -9   10.07    0.63 
   4  15   9    9.13    0.47 
  -5 -15  -9    1.42    0.36 
   5  15   9    1.42    0.23 
  -6 -15  -9    0.05    0.27 
   6  15   9    0.20    0.28 
  -7 -15  -9    0.77    0.37 
   7  15   9    1.16    0.44 
  -2 -16  -9    6.18    9.60 
   2  16   9    4.95    8.26 
  -3 -16  -9    1.63    8.63 
   3  16   9    0.65    0.81 
  -4 -16  -9    0.26    0.33 
   4  16   9    0.51    0.25 
  -5 -16  -9    2.49    0.49 
   5  16   9    3.67    0.38 
   6   8 -10    3.46    0.38 
  -6  -8  10    3.60    0.80 
   5   8 -10    3.63    0.42 
  -5  -8  10    3.82    0.52 
   4   8 -10    1.64    0.35 
  -4  -8  10    1.66    0.56 
   3   8 -10    2.34    0.40 
  -3  -8  10    2.29    8.18 
   2   8 -10    4.55    1.15 
  -2  -8  10    3.76    8.04 
   1   8 -10    6.61    1.25 
  -1  -8  10    8.28    8.81 
   0   8 -10    0.85    0.60 
   0  -8  10    1.19    0.61 
   7   7 -10    0.00    0.26 
  -7  -7  10    0.08    0.23 
   6   7 -10    0.56    0.21 
  -6  -7  10    0.19    0.24 
   5   7 -10    2.14    0.24 
  -5  -7  10    1.77    0.39 
   4   7 -10    5.72    0.36 
  -4  -7  10    6.48    0.62 
   3   7 -10    4.29    0.36 
  -3  -7  10    5.27    0.64 
   2   7 -10    1.31    0.48 
  -2  -7  10    0.84    0.83 
   1   7 -10    6.18    0.83 
  -1  -7  10    8.43    0.85 
   0   7 -10    5.71    0.73 
   0  -7  10    5.21    0.71 
  -1   7 -10    9.11    8.41 
   1  -7  10    8.73    1.25 
  -8  -6  10    2.17    0.46 
   7   6 -10    3.76    0.40 
  -7  -6  10    3.53    0.40 
   6   6 -10    7.61    0.29 
  -6  -6  10    9.20    0.56 
   5   6 -10    0.17    0.14 
  -5  -6  10    0.20    0.23 
   4   6 -10    1.46    0.19 
  -4  -6  10    1.33    0.34 
   3   6 -10    5.15    0.29 
  -3  -6  10    6.03    0.44 
   2   6 -10    8.04    0.60 
  -2  -6  10    7.78    0.63 
   1   6 -10    3.72    0.50 
  -1  -6  10    2.82    0.49 
   0   6 -10    0.61    0.22 
   0  -6  10    0.19    0.22 
  -1   6 -10    6.79    0.83 
   1  -6  10    7.66    0.81 
  -2   6 -10    5.46    7.67 
   2  -6  10    6.01    1.15 
  -8  -5  10    3.73    0.53 
   7   5 -10    0.99    0.18 
  -7  -5  10    1.42    0.28 
   6   5 -10    4.93    0.25 
  -6  -5  10    4.96    0.43 
   5   5 -10    7.53    0.29 
  -5  -5  10    7.70    0.50 
   4   5 -10   10.24    0.32 
  -4  -5  10   10.40    0.54 
   3   5 -10    1.68    0.15 
  -3  -5  10    1.92    0.25 
   2   5 -10    2.65    0.43 
  -2  -5  10    3.95    0.48 
   1   5 -10    9.17    0.56 
  -1  -5  10   10.89    0.53 
   0   5 -10    6.43    0.45 
   0  -5  10    6.69    0.44 
  -1   5 -10    2.11    0.49 
   1  -5  10    1.75    0.50 
  -2   5 -10    0.00    0.78 
   2  -5  10    0.00    0.48 
  -3   5 -10    7.96    7.81 
   3  -5  10    8.96    0.64 
   4  -5  10    3.58    0.47 
   8   4 -10    5.52    0.73 
  -8  -4  10    4.89    0.56 
   7   4 -10    0.54    0.16 
  -7  -4  10    0.52    0.24 
   6   4 -10    4.04    0.21 
  -6  -4  10    4.67    0.40 
   5   4 -10    6.17    0.26 
  -5  -4  10    6.04    0.43 
   4   4 -10    8.48    0.27 
  -4  -4  10    9.35    0.49 
   3   4 -10   12.30    0.30 
  -3  -4  10   13.23    0.42 
   2   4 -10    8.94    0.37 
  -2  -4  10    9.97    0.39 
   1   4 -10    5.42    0.42 
  -1  -4  10    6.17    0.43 
   0   4 -10    7.71    0.40 
   0  -4  10    6.43    0.40 
  -1   4 -10   12.19    0.54 
   1  -4  10   13.20    0.57 
  -2   4 -10    2.77    0.62 
   2  -4  10    2.13    0.60 
  -3   4 -10    0.44    0.41 
   3  -4  10    0.34    0.19 
  -4   4 -10    0.09    0.31 
   4  -4  10    0.30    0.24 
  -5   4 -10    6.64    1.05 
   5  -4  10    5.69    0.54 
  -9  -3  10    0.03    0.38 
   8   3 -10    0.09    0.29 
  -8  -3  10    0.15    0.28 
   7   3 -10    6.35    0.28 
  -7  -3  10    6.66    0.45 
   6   3 -10    7.41    0.26 
  -6  -3  10    8.80    0.48 
   5   3 -10    1.06    0.13 
  -5  -3  10    0.83    0.23 
   4   3 -10    3.05    0.15 
  -4  -3  10    4.17    0.37 
   3   3 -10   16.40    0.30 
  -3  -3  10   17.52    0.49 
   2   3 -10   11.67    0.43 
  -2  -3  10   13.51    0.46 
   1   3 -10   13.91    0.53 
  -1  -3  10   16.45    0.55 
   0   3 -10    5.68    0.34 
   0  -3  10    4.94    0.34 
  -1   3 -10    9.14    0.43 
   1  -3  10    9.90    0.42 
  -2   3 -10    8.31    0.48 
   2  -3  10    8.82    0.43 
  -3   3 -10    9.87    0.43 
   3  -3  10    9.43    0.36 
  -4   3 -10    1.08    0.35 
   4  -3  10    1.00    0.18 
  -5   3 -10    0.22    0.32 
   5  -3  10    0.29    0.19 
  -6   3 -10    1.15    0.61 
   6  -3  10    0.44    0.26 
   9   2 -10    3.05    0.67 
  -9  -2  10    4.14    0.75 
   8   2 -10    2.69    0.29 
  -8  -2  10    3.14    0.65 
   7   2 -10    0.56    0.10 
  -7  -2  10    0.39    0.25 
   6   2 -10    0.38    0.11 
  -6  -2  10    0.57    0.21 
   5   2 -10   17.15    0.40 
  -5  -2  10   19.28    0.64 
   4   2 -10    9.50    0.23 
  -4  -2  10   10.99    0.50 
   3   2 -10    0.52    0.10 
  -3  -2  10    0.70    0.14 
   2   2 -10    0.92    0.20 
  -2  -2  10    0.83    0.24 
   1   2 -10   28.87    0.82 
  -1  -2  10   30.47    0.85 
   0   2 -10   13.08    0.49 
   0  -2  10   12.70    0.49 
  -1   2 -10   12.30    0.55 
   1  -2  10   13.76    0.52 
  -2   2 -10    1.92    0.39 
   2  -2  10    1.80    0.37 
  -3   2 -10   12.61    0.44 
   3  -2  10   11.17    0.29 
  -4   2 -10    6.97    0.61 
   4  -2  10    6.17    0.28 
  -5   2 -10    6.60    0.52 
   5  -2  10    5.86    0.31 
  -6   2 -10    0.27    0.24 
   6  -2  10    0.00    0.21 
   9   1 -10    0.39    0.42 
  -9  -1  10    0.00    0.36 
   8   1 -10    5.29    0.39 
  -8  -1  10    5.55    0.76 
   7   1 -10    8.39    0.26 
  -7  -1  10    8.78    0.57 
   6   1 -10    4.46    0.20 
  -6  -1  10    4.79    0.39 
   5   1 -10    3.38    0.18 
  -5  -1  10    4.02    0.35 
   4   1 -10    2.91    0.14 
  -4  -1  10    2.95    0.30 
   3   1 -10   35.90    0.49 
  -3  -1  10   37.54    0.49 
   2   1 -10    8.19    0.26 
  -2  -1  10    8.97    0.27 
   1   1 -10    0.01    0.19 
  -1  -1  10    0.01    0.18 
   0   1 -10    0.27    0.13 
   0  -1  10    0.19    0.12 
  -1   1 -10   33.74    0.86 
   1  -1  10   32.87    0.82 
  -2   1 -10    8.68    0.47 
   2  -1  10    9.75    0.43 
  -3   1 -10    7.82    0.34 
   3  -1  10    6.98    0.24 
  -4   1 -10    0.24    0.21 
   4  -1  10    0.13    0.10 
  -5   1 -10   11.51    0.58 
   5  -1  10    9.95    0.32 
  -6   1 -10    4.83    0.45 
   6  -1  10    3.62    0.22 
  -7   1 -10    3.29    0.40 
   7  -1  10    3.07    0.48 
   9   0 -10    1.40    0.59 
  -9   0  10    0.48    0.42 
   8   0 -10    0.51    0.20 
  -8   0  10    0.09    0.33 
   7   0 -10    2.04    0.18 
  -7   0  10    2.15    0.35 
   6   0 -10   11.84    0.28 
  -6   0  10   13.11    0.65 
   5   0 -10   14.90    0.31 
  -5   0  10   16.86    0.59 
   4   0 -10    3.14    0.14 
  -4   0  10    3.82    0.32 
   3   0 -10   10.40    0.22 
  -3   0  10   11.42    0.26 
   2   0 -10    7.23    0.30 
  -2   0  10    7.51    0.29 
   1   0 -10   47.52    1.01 
  -1   0  10   57.99    1.01 
   0   0 -10    4.67    0.28 
   0   0  10    4.17    0.28 
  -1   0 -10    0.16    0.19 
   1   0  10    0.01    0.19 
  -2   0 -10    2.08    0.24 
   2   0  10    2.39    0.21 
  -3   0 -10   29.12    0.54 
   3   0  10   27.13    0.39 
  -4   0 -10    4.29    0.38 
   4   0  10    3.80    0.17 
  -5   0 -10    3.63    0.37 
   5   0  10    2.47    0.18 
  -6   0 -10    0.08    0.22 
   6   0  10    0.12    0.11 
  -7   0 -10    6.01    0.50 
   7   0  10    5.92    0.47 
  -9   1  10    3.17    0.66 
   8  -1 -10    5.40    0.40 
  -8   1  10    6.79    0.55 
   7  -1 -10    0.36    0.12 
  -7   1  10    0.77    0.27 
   6  -1 -10    0.09    0.09 
  -6   1  10    0.00    0.20 
   5  -1 -10    8.50    0.25 
  -5   1  10    9.18    0.55 
   4  -1 -10   20.33    0.30 
  -4   1  10   21.40    0.79 
   3  -1 -10   22.49    0.32 
  -3   1  10   24.07    0.39 
   2  -1 -10    0.65    0.14 
  -2   1  10    0.47    0.14 
   1  -1 -10   21.83    0.57 
  -1   1  10   22.65    0.63 
   0  -1 -10   12.50    0.44 
   0   1  10   11.88    0.44 
  -1  -1 -10   41.60    1.01 
   1   1  10   49.34    1.02 
  -2  -1 -10    0.91    0.18 
   2   1  10    1.08    0.22 
  -3  -1 -10    0.67    0.14 
   3   1  10    0.54    0.10 
  -4  -1 -10    4.52    0.37 
   4   1  10    3.96    0.17 
  -5  -1 -10   18.33    0.66 
   5   1  10   16.83    0.37 
  -6  -1 -10    1.00    0.26 
   6   1  10    0.85    0.13 
  -7  -1 -10    0.84    0.27 
   7   1  10    1.02    0.18 
  -8  -1 -10    0.22    0.31 
  -9   2  10    0.31    0.34 
   8  -2 -10    2.66    0.31 
  -8   2  10    2.64    0.41 
   7  -2 -10    6.25    0.29 
  -7   2  10    7.54    0.56 
   6  -2 -10    8.85    0.25 
  -6   2  10   10.02    0.59 
   5  -2 -10    0.15    0.09 
  -5   2  10    0.00    0.19 
   4  -2 -10    0.50    0.08 
  -4   2  10    0.43    0.21 
   3  -2 -10   20.49    0.31 
  -3   2  10   22.34    0.37 
   2  -2 -10   25.93    0.40 
  -2   2  10   27.49    0.48 
   1  -2 -10   24.68    0.54 
  -1   2  10   26.19    0.60 
   0  -2 -10    0.43    0.13 
   0   2  10    0.59    0.13 
  -1  -2 -10   25.87    0.63 
   1   2  10   25.67    0.56 
  -2  -2 -10   14.85    0.34 
   2   2  10   13.67    0.30 
  -3  -2 -10   29.98    0.42 
   3   2  10   28.06    0.37 
  -4  -2 -10    0.13    0.17 
   4   2  10    0.05    0.07 
  -5  -2 -10    1.31    0.25 
   5   2  10    1.28    0.14 
  -6  -2 -10    4.24    0.38 
   6   2  10    3.50    0.20 
  -7  -2 -10    8.66    0.52 
   7   2  10    7.64    0.33 
  -8  -2 -10    0.41    0.30 
   8  -3 -10    2.17    0.30 
  -8   3  10    2.78    0.36 
   7  -3 -10    1.73    0.18 
  -7   3  10    2.25    0.37 
   6  -3 -10    7.79    0.23 
  -6   3  10    8.58    0.58 
   5  -3 -10   13.53    0.31 
  -5   3  10   14.84    0.68 
   4  -3 -10   12.40    0.27 
  -4   3  10   13.98    0.63 
   3  -3 -10    0.50    0.10 
  -3   3  10    0.58    0.11 
   2  -3 -10    3.51    0.19 
  -2   3  10    3.56    0.25 
   1  -3 -10   31.76    0.76 
  -1   3  10   33.72    0.86 
   0  -3 -10   24.49    0.58 
   0   3  10   19.84    0.58 
  -1  -3 -10   18.49    0.60 
   1   3  10   18.42    0.53 
  -2  -3 -10    4.56    0.22 
   2   3  10    4.63    0.19 
  -3  -3 -10   22.41    0.36 
   3   3  10   20.98    0.31 
  -4  -3 -10   10.36    0.46 
   4   3  10    9.91    0.21 
  -5  -3 -10   12.61    0.53 
   5   3  10   11.75    0.28 
  -6  -3 -10    0.75    0.22 
   6   3  10    0.68    0.12 
  -7  -3 -10    1.15    0.27 
   7   3  10    0.96    0.14 
  -8  -3 -10    2.77    0.44 
   8   3  10    2.00    0.32 
   8  -4 -10    2.97    0.41 
  -8   4  10    3.41    0.41 
   7  -4 -10    5.56    0.32 
  -7   4  10    5.40    0.45 
   6  -4 -10    2.91    0.17 
  -6   4  10    3.71    0.44 
   5  -4 -10    5.60    0.19 
  -5   4  10    6.05    0.51 
   4  -4 -10   15.87    0.32 
  -4   4  10   16.54    0.71 
   3  -4 -10   22.47    0.32 
  -3   4  10   23.98    0.45 
   2  -4 -10   10.55    0.25 
  -2   4  10   11.45    0.28 
   1  -4 -10    5.35    0.33 
  -1   4  10    4.83    0.37 
   0  -4 -10    8.57    0.31 
   0   4  10    9.05    0.31 
  -1  -4 -10   34.36    0.86 
   1   4  10   34.92    0.75 
  -2  -4 -10   12.88    0.38 
   2   4  10   12.61    0.31 
  -3  -4 -10    8.66    0.24 
   3   4  10    8.00    0.20 
  -4  -4 -10    7.00    0.40 
   4   4  10    7.19    0.18 
  -5  -4 -10   14.22    0.54 
   5   4  10   13.04    0.29 
  -6  -4 -10    5.61    0.39 
   6   4  10    5.01    0.20 
  -7  -4 -10    3.56    0.35 
   7   4  10    3.47    0.17 
  -8  -4 -10    0.60    0.31 
   8   4  10    0.91    0.25 
  -9  -4 -10    0.94    0.35 
  -8   5  10    0.40    0.28 
   7  -5 -10    4.66    0.28 
  -7   5  10    4.35    0.43 
   6  -5 -10    5.01    0.22 
  -6   5  10    5.85    0.45 
   5  -5 -10    5.99    0.20 
  -5   5  10    6.99    0.45 
   4  -5 -10    1.46    0.13 
  -4   5  10    1.58    0.26 
   3  -5 -10   16.95    0.27 
  -3   5  10   18.15    0.45 
   2  -5 -10   22.65    0.38 
  -2   5  10   23.29    0.43 
   1  -5 -10   25.23    0.63 
  -1   5  10   25.03    0.66 
   0  -5 -10    5.31    0.24 
   0   5  10    4.43    0.24 
  -1  -5 -10   10.64    0.37 
   1   5  10   10.28    0.33 
  -2  -5 -10   12.04    0.32 
   2   5  10   11.32    0.24 
  -3  -5 -10   21.64    0.36 
   3   5  10   20.22    0.31 
  -4  -5 -10    4.51    0.41 
   4   5  10    4.36    0.15 
  -5  -5 -10    2.58    0.33 
   5   5  10    2.21    0.15 
  -6  -5 -10    6.99    0.42 
   6   5  10    6.21    0.21 
  -7  -5 -10    6.31    0.42 
   7   5  10    6.00    0.20 
  -8  -5 -10    2.47    0.41 
   8   5  10    1.68    0.24 
  -9  -5 -10    0.77    0.32 
   7  -6 -10    0.03    0.13 
  -7   6  10    0.22    0.26 
   6  -6 -10    2.73    0.18 
  -6   6  10    2.83    0.36 
   5  -6 -10   10.05    0.26 
  -5   6  10   12.57    0.58 
   4  -6 -10    8.15    0.24 
  -4   6  10    8.82    0.37 
   3  -6 -10    4.46    0.18 
  -3   6  10    5.29    0.26 
   2  -6 -10    0.13    0.12 
  -2   6  10    0.09    0.12 
   1  -6 -10   32.99    0.82 
  -1   6  10   36.28    0.79 
   0  -6 -10   22.41    0.55 
   0   6  10   21.44    0.55 
  -1  -6 -10   25.56    0.66 
   1   6  10   24.50    0.62 
  -2  -6 -10    0.31    0.12 
   2   6  10    0.44    0.14 
  -3  -6 -10   13.33    0.31 
   3   6  10   12.60    0.24 
  -4  -6 -10   10.11    0.53 
   4   6  10    9.62    0.20 
  -5  -6 -10    8.50    0.51 
   5   6  10    7.84    0.23 
  -6  -6 -10    0.90    0.25 
   6   6  10    0.77    0.11 
  -7  -6 -10    0.38    0.23 
   7   6  10    0.29    0.11 
  -8  -6 -10    3.23    0.57 
   8   6  10    3.29    0.31 
  -9  -6 -10    2.25    0.53 
   9   6  10    1.40    0.51 
   7  -7 -10    4.11    0.38 
  -7   7  10    4.51    0.46 
   6  -7 -10    4.84    0.23 
  -6   7  10    4.71    0.45 
   5  -7 -10    0.63    0.11 
  -5   7  10    0.87    0.27 
   4  -7 -10    7.46    0.24 
  -4   7  10    8.29    0.38 
   3  -7 -10   20.08    0.38 
  -3   7  10   21.82    0.48 
   2  -7 -10    8.96    0.29 
  -2   7  10    9.03    0.28 
   1  -7 -10    1.27    0.21 
  -1   7  10    1.52    0.20 
   0  -7 -10    0.75    0.15 
   0   7  10    0.90    0.15 
  -1  -7 -10   36.83    0.80 
   1   7  10   38.08    0.81 
  -2  -7 -10   13.89    0.34 
   2   7  10   13.61    0.32 
  -3  -7 -10   13.18    0.31 
   3   7  10   12.00    0.23 
  -4  -7 -10    0.62    0.22 
   4   7  10    0.50    0.09 
  -5  -7 -10   10.17    0.56 
   5   7  10   10.37    0.25 
  -6  -7 -10    7.05    0.50 
   6   7  10    5.92    0.21 
  -7  -7 -10    1.88    0.33 
   7   7  10    1.70    0.17 
  -8  -7 -10    0.29    0.32 
   8   7  10    0.13    0.17 
  -9  -7 -10    0.07    0.32 
   9   7  10    0.30    0.36 
   7  -8 -10    2.71    0.52 
  -7   8  10    3.08    0.54 
   6  -8 -10    3.09    0.34 
  -6   8  10    2.67    0.40 
   5  -8 -10    8.37    0.28 
  -5   8  10    9.49    0.55 
   4  -8 -10    3.65    0.21 
  -4   8  10    3.73    0.33 
   3  -8 -10    3.18    0.20 
  -3   8  10    3.68    0.25 
   2  -8 -10   15.37    0.47 
  -2   8  10   16.84    0.46 
   1  -8 -10   28.28    0.72 
  -1   8  10   29.01    0.75 
   0  -8 -10    4.71    0.31 
   0   8  10    5.60    0.31 
  -1  -8 -10    0.06    0.20 
   1   8  10    0.11    0.20 
  -2  -8 -10    3.67    0.20 
   2   8  10    3.88    0.20 
  -3  -8 -10   33.34    0.64 
   3   8  10   29.23    0.37 
  -4  -8 -10    5.44    0.37 
   4   8  10    5.23    0.21 
  -5  -8 -10    4.80    0.43 
   5   8  10    5.00    0.17 
  -6  -8 -10    1.49    0.31 
   6   8  10    1.68    0.13 
  -7  -8 -10    7.97    0.54 
   7   8  10    6.61    0.29 
  -8  -8 -10    2.61    0.40 
   8   8  10    1.89    0.26 
  -9  -8 -10    0.00    0.31 
   9   8  10    0.04    0.41 
   6  -9 -10    0.23    0.29 
  -6   9  10    0.00    0.26 
   5  -9 -10    8.93    0.34 
  -5   9  10    8.98    0.58 
   4  -9 -10    4.78    0.27 
  -4   9  10    5.51    0.40 
   3  -9 -10   11.03    0.34 
  -3   9  10   11.88    0.40 
   2  -9 -10    0.67    0.27 
  -2   9  10    1.39    0.35 
   1  -9 -10    9.39    0.48 
  -1   9  10    9.79    0.47 
   0  -9 -10   20.21    0.63 
   0   9  10   19.24    0.62 
  -1  -9 -10   27.28    0.75 
   1   9  10   26.95    0.71 
  -2  -9 -10    1.07    0.18 
   2   9  10    1.05    0.23 
  -3  -9 -10    0.96    0.16 
   3   9  10    0.66    0.10 
  -4  -9 -10    6.09    0.32 
   4   9  10    5.43    0.20 
  -5  -9 -10   17.84    0.76 
   5   9  10   16.16    0.30 
  -6  -9 -10    1.03    0.28 
   6   9  10    0.94    0.12 
  -7  -9 -10    1.76    0.33 
   7   9  10    1.11    0.15 
  -8  -9 -10    2.17    0.36 
   8   9  10    1.69    0.26 
  -9  -9 -10    4.58    0.73 
   9   9  10    3.37    0.75 
   5 -10 -10    0.62    0.20 
  -5  10  10    0.49    0.28 
   4 -10 -10    1.75    0.20 
  -4  10  10    1.44    0.32 
   3 -10 -10   16.64    0.47 
  -3  10  10   17.10    0.50 
   2 -10 -10    7.92    0.46 
  -2  10  10    6.04    0.49 
   1 -10 -10   10.61    0.43 
  -1  10  10   10.06    0.44 
   0 -10 -10    0.00    0.11 
   0  10  10    0.01    0.11 
  -1 -10 -10   12.99    0.47 
   1  10  10   12.58    0.47 
  -2 -10 -10   17.03    0.46 
   2  10  10   17.14    0.46 
  -3 -10 -10   19.48    0.46 
   3  10  10   17.43    0.37 
  -4 -10 -10    0.04    0.14 
   4  10  10    0.06    0.09 
  -5 -10 -10    1.98    0.30 
   5  10  10    1.12    0.12 
  -6 -10 -10    5.81    0.44 
   6  10  10    5.50    0.21 
  -7 -10 -10    7.58    0.49 
   7  10  10    6.80    0.30 
  -8 -10 -10    0.05    0.20 
   8  10  10    0.24    0.20 
  -9 -10 -10    0.44    0.32 
   9  10  10    0.67    0.59 
   5 -11 -10    9.30    0.62 
  -5  11  10   10.37    0.80 
   4 -11 -10    5.00    0.38 
  -4  11  10    4.01    0.44 
   3 -11 -10    0.28    0.23 
  -3  11  10    0.07    0.19 
   2 -11 -10    5.21    0.66 
  -2  11  10    6.80    0.96 
   1 -11 -10   22.16    0.77 
  -1  11  10   24.49    0.73 
   0 -11 -10    6.89    0.39 
   0  11  10    6.13    0.39 
  -1 -11 -10    5.25    0.44 
   1  11  10    4.49    0.42 
  -2 -11 -10    0.80    0.36 
   2  11  10    1.31    0.27 
  -3 -11 -10   12.60    0.40 
   3  11  10   12.07    0.31 
  -4 -11 -10   10.87    0.42 
   4  11  10   10.06    0.27 
  -5 -11 -10   10.19    0.55 
   5  11  10    8.05    0.24 
  -6 -11 -10    0.54    0.25 
   6  11  10    0.36    0.11 
  -7 -11 -10    1.20    0.30 
   7  11  10    0.87    0.15 
  -8 -11 -10    4.71    0.44 
   8  11  10    3.72    0.33 
  -9 -11 -10    1.73    0.41 
   4 -12 -10    2.52    0.41 
  -4  12  10    2.76    0.74 
   3 -12 -10   14.40    1.07 
  -3  12  10   14.46    0.83 
   2 -12 -10    3.13    0.48 
  -2  12  10    3.52    0.73 
   1 -12 -10    0.03    0.32 
  -1  12  10    0.00    0.42 
   0 -12 -10   11.31    0.57 
   0  12  10   11.14    0.56 
  -1 -12 -10   17.93    0.74 
   1  12  10   18.72    0.76 
  -2 -12 -10    5.01    0.51 
   2  12  10    2.98    0.45 
  -3 -12 -10    1.90    0.21 
   3  12  10    1.75    0.20 
  -4 -12 -10    1.28    0.23 
   4  12  10    1.93    0.17 
  -5 -12 -10    8.05    0.53 
   5  12  10    8.07    0.25 
  -6 -12 -10    4.85    0.44 
   6  12  10    4.87    0.22 
  -7 -12 -10    4.08    0.42 
   7  12  10    3.20    0.24 
  -8 -12 -10    0.96    0.30 
   8  12  10    0.64    0.28 
  -3  13  10    2.84    8.27 
   2 -13 -10    4.02    0.84 
  -2  13  10    3.52    1.25 
   1 -13 -10   16.06    0.86 
  -1  13  10   13.81    1.05 
   0 -13 -10    1.81    0.31 
   0  13  10    1.07    0.31 
  -1 -13 -10    0.00    0.43 
   1  13  10    0.04    0.32 
  -2 -13 -10   12.23    1.02 
   2  13  10   13.22    0.66 
  -3 -13 -10   13.72    0.48 
   3  13  10   12.98    0.42 
  -4 -13 -10    1.72    0.29 
   4  13  10    1.39    0.19 
  -5 -13 -10    0.30    0.26 
   5  13  10    0.34    0.14 
  -6 -13 -10    2.85    0.39 
   6  13  10    2.15    0.19 
  -7 -13 -10    4.24    0.45 
   7  13  10    3.33    0.29 
  -8 -13 -10    1.90    0.37 
   1 -14 -10    5.06    0.86 
  -1  14  10    6.28    1.24 
   0 -14 -10    5.45    0.58 
   0  14  10    4.07    0.58 
  -1 -14 -10   11.58    1.12 
   1  14  10    7.54    0.86 
  -2 -14 -10    0.61    0.77 
   2  14  10    0.78    0.48 
  -3 -14 -10    0.72    0.25 
   3  14  10    0.70    0.26 
  -4 -14 -10   10.52    0.62 
   4  14  10    9.67    0.36 
  -5 -14 -10    6.43    0.51 
   5  14  10    6.10    0.30 
  -6 -14 -10    0.41    0.29 
   6  14  10    0.27    0.22 
  -7 -14 -10    0.10    0.23 
   7  14  10    0.00    0.24 
   8  14  10    1.97    0.48 
   0 -15 -10    2.95    0.55 
   0  15  10    0.78    0.53 
  -1 -15 -10    5.76    1.31 
   1  15  10    5.72    0.84 
  -2 -15 -10    4.41    1.32 
   2  15  10    3.79    0.83 
  -3 -15 -10    3.89    0.66 
   3  15  10    3.77    1.05 
  -4 -15 -10    0.20    0.26 
   4  15  10    0.06    0.19 
  -5 -15 -10    1.10    0.32 
   5  15  10    1.37    0.25 
  -6 -15 -10    5.99    0.68 
   6  15  10    5.50    0.63 
   7  15  10    2.65    0.59 
  -3 -16 -10    2.07    8.88 
  -4 -16 -10    1.75    0.68 
   4  16  10    1.85    0.40 
  -5 -16 -10    1.59    0.44 
   5  16  10    0.48    0.37 
   6   7 -11    2.78    0.36 
  -6  -7  11    3.63    0.81 
   5   7 -11    0.46    0.27 
  -5  -7  11    0.38    0.49 
   4   7 -11    0.09    0.25 
  -4  -7  11    0.50    0.45 
   3   7 -11    0.64    0.29 
  -3  -7  11    0.78    0.36 
   2   7 -11   11.20    1.35 
  -2  -7  11   12.04    9.61 
   1   7 -11    0.83    0.81 
  -1  -7  11    1.57    0.85 
   0   7 -11    1.73    0.66 
   0  -7  11    1.27    0.66 
   7   6 -11    1.80    0.43 
  -7  -6  11    2.18    0.45 
   6   6 -11    2.20    0.33 
  -6  -6  11    2.30    0.37 
   5   6 -11    5.46    0.42 
  -5  -6  11    5.68    0.58 
   4   6 -11    5.64    0.42 
  -4  -6  11    6.07    0.62 
   3   6 -11    0.29    0.25 
  -3  -6  11    0.00    0.38 
   2   6 -11    0.71    0.51 
  -2  -6  11    1.47    0.69 
   1   6 -11    3.17    0.72 
  -1  -6  11    2.35    0.69 
   0   6 -11    9.62    0.79 
   0  -6  11   11.65    0.77 
  -1   6 -11    0.00    0.85 
   1  -6  11    0.00    0.81 
   7   5 -11    1.74    0.41 
  -7  -5  11    2.16    0.34 
   6   5 -11    0.06    0.13 
  -6  -5  11    0.04    0.21 
   5   5 -11    0.91    0.16 
  -5  -5  11    1.38    0.30 
   4   5 -11    6.24    0.33 
  -4  -5  11    6.09    0.58 
   3   5 -11    8.79    0.41 
  -3  -5  11    8.61    0.52 
   2   5 -11    5.78    0.56 
  -2  -5  11    5.53    0.59 
   1   5 -11    0.42    0.41 
  -1  -5  11    0.00    0.37 
   0   5 -11    0.69    0.32 
   0  -5  11    2.48    0.32 
  -1   5 -11    4.48    0.67 
   1  -5  11    5.03    0.70 
  -2   5 -11    7.61    9.17 
   2  -5  11    6.05    1.35 
   3  -5  11    0.34    0.29 
  -8  -4  11    0.42    0.33 
   7   4 -11    1.84    0.26 
  -7  -4  11    1.59    0.30 
   6   4 -11    6.92    0.28 
  -6  -4  11    7.86    0.51 
   5   4 -11    2.18    0.19 
  -5  -4  11    2.30    0.33 
   4   4 -11    0.04    0.11 
  -4  -4  11    0.05    0.21 
   3   4 -11    0.06    0.11 
  -3  -4  11    0.15    0.19 
   2   4 -11   13.41    0.56 
  -2  -4  11   11.69    0.64 
   1   4 -11    9.66    0.54 
  -1  -4  11   10.85    0.50 
   0   4 -11    4.20    0.40 
   0  -4  11    5.15    0.40 
  -1   4 -11    1.18    0.37 
   1  -4  11    0.72    0.41 
  -2   4 -11    3.06    0.68 
   2  -4  11    2.57    0.51 
  -3   4 -11    4.47    0.53 
   3  -4  11    3.55    0.46 
   4  -4  11    3.59    0.47 
  -8  -3  11    2.96    0.49 
   7   3 -11    1.96    0.18 
  -7  -3  11    1.76    0.32 
   6   3 -11    3.61    0.21 
  -6  -3  11    3.74    0.39 
   5   3 -11    3.85    0.23 
  -5  -3  11    4.13    0.39 
   4   3 -11   15.32    0.31 
  -4  -3  11   16.54    0.65 
   3   3 -11    1.65    0.15 
  -3  -3  11    1.36    0.22 
   2   3 -11    0.60    0.31 
  -2  -3  11    0.61    0.34 
   1   3 -11    0.47    0.27 
  -1  -3  11    0.85    0.29 
   0   3 -11   15.09    0.58 
   0  -3  11   15.10    0.58 
  -1   3 -11    8.27    0.50 
   1  -3  11    9.17    0.53 
  -2   3 -11    1.88    0.59 
   2  -3  11    1.79    0.56 
  -3   3 -11    2.36    0.54 
   3  -3  11    1.92    0.33 
  -4   3 -11    4.48    0.74 
   4  -3  11    2.90    0.42 
  -5   3 -11    4.26    0.85 
   5  -3  11    3.22    0.41 
  -8  -2  11    2.95    0.66 
   7   2 -11    3.33    0.21 
  -7  -2  11    3.71    0.38 
   6   2 -11    5.20    0.26 
  -6  -2  11    5.88    0.45 
   5   2 -11    1.94    0.17 
  -5  -2  11    1.78    0.29 
   4   2 -11   10.13    0.25 
  -4  -2  11   11.36    0.53 
   3   2 -11    7.71    0.25 
  -3  -2  11    8.44    0.34 
   2   2 -11   22.20    0.70 
  -2  -2  11   27.55    0.69 
   1   2 -11    0.03    0.23 
  -1  -2  11    0.00    0.25 
   0   2 -11    1.82    0.26 
   0  -2  11    3.08    0.26 
  -1   2 -11    2.04    0.29 
   1  -2  11    2.07    0.27 
  -2   2 -11   13.79    0.64 
   2  -2  11   12.65    0.56 
  -3   2 -11    4.39    0.39 
   3  -2  11    4.52    0.28 
  -4   2 -11    0.00    0.27 
   4  -2  11    0.47    0.17 
  -5   2 -11    3.51    0.51 
   5  -2  11    2.67    0.32 
  -6   2 -11    2.70    0.83 
   6  -2  11    1.41    0.43 
   8   1 -11    0.30    0.38 
  -8  -1  11    0.00    0.33 
   7   1 -11    0.52    0.11 
  -7  -1  11    0.49    0.27 
   6   1 -11    8.87    0.28 
  -6  -1  11   10.02    0.53 
   5   1 -11    4.94    0.24 
  -5  -1  11    6.03    0.43 
   4   1 -11    7.80    0.23 
  -4  -1  11    8.98    0.48 
   3   1 -11    0.49    0.10 
  -3  -1  11    0.46    0.12 
   2   1 -11   19.62    0.58 
  -2  -1  11   22.61    0.62 
   1   1 -11   10.29    0.48 
  -1  -1  11   11.71    0.49 
   0   1 -11   27.07    0.77 
   0  -1  11   26.30    0.76 
  -1   1 -11    0.76    0.25 
   1  -1  11    0.51    0.23 
  -2   1 -11    4.41    0.34 
   2  -1  11    4.15    0.31 
  -3   1 -11    2.88    0.26 
   3  -1  11    3.39    0.20 
  -4   1 -11    9.04    0.68 
   4  -1  11    8.09    0.35 
  -5   1 -11    1.67    0.40 
   5  -1  11    2.26    0.22 
  -6   1 -11    0.00    0.24 
   6  -1  11    0.12    0.22 
   8   0 -11    4.99    0.54 
  -8   0  11    5.65    0.84 
   7   0 -11    3.07    0.22 
  -7   0  11    3.64    0.43 
   6   0 -11    0.07    0.09 
  -6   0  11    0.28    0.25 
   5   0 -11    2.42    0.17 
  -5   0  11    3.28    0.41 
   4   0 -11   19.54    0.32 
  -4   0  11   21.40    0.69 
   3   0 -11    6.03    0.20 
  -3   0  11    6.69    0.23 
   2   0 -11    8.08    0.31 
  -2   0  11    9.40    0.32 
   1   0 -11    0.75    0.26 
  -1   0  11    0.91    0.27 
   0   0 -11   27.06    0.76 
   0   0  11   26.55    0.75 
  -1   0 -11   11.95    0.50 
   1   0  11   12.44    0.47 
  -2   0 -11   19.29    0.70 
   2   0  11   23.05    0.70 
  -3   0 -11    1.99    0.23 
   3   0  11    1.86    0.15 
  -4   0 -11    5.13    0.44 
   4   0  11    5.06    0.25 
  -5   0 -11    2.84    0.36 
   5   0  11    3.05    0.21 
  -6   0 -11    3.88    0.42 
   6   0  11    3.79    0.25 
  -7   0 -11    1.01    0.37 
   7   0  11    0.89    0.35 
   8  -1 -11    2.14    0.41 
  -8   1  11    2.75    0.43 
   7  -1 -11    4.27    0.25 
  -7   1  11    5.46    0.54 
   6  -1 -11   10.01    0.28 
  -6   1  11   10.13    0.63 
   5  -1 -11    3.19    0.18 
  -5   1  11    3.57    0.42 
   4  -1 -11    0.51    0.09 
  -4   1  11    0.58    0.26 
   3  -1 -11    7.95    0.22 
  -3   1  11    8.82    0.26 
   2  -1 -11   32.69    0.56 
  -2   1  11   33.68    0.61 
   1  -1 -11    3.61    0.27 
  -1   1  11    3.51    0.28 
   0  -1 -11    7.13    0.37 
   0   1  11    8.07    0.37 
  -1  -1 -11    3.38    0.27 
   1   1  11    3.53    0.26 
  -2  -1 -11   25.11    0.63 
   2   1  11   25.61    0.59 
  -3  -1 -11    8.96    0.31 
   3   1  11    8.69    0.24 
  -4  -1 -11   11.28    0.55 
   4   1  11   10.64    0.26 
  -5  -1 -11    3.33    0.37 
   5   1  11    2.74    0.20 
  -6  -1 -11    4.34    0.42 
   6   1  11    4.28    0.23 
  -7  -1 -11    1.41    0.31 
   7   1  11    1.80    0.39 
   8  -2 -11    1.86    0.66 
  -8   2  11    2.88    0.44 
   7  -2 -11    0.58    0.15 
  -7   2  11    0.88    0.30 
   6  -2 -11    7.16    0.25 
  -6   2  11    7.97    0.57 
   5  -2 -11    9.88    0.28 
  -5   2  11   11.30    0.64 
   4  -2 -11   15.71    0.28 
  -4   2  11   15.88    0.72 
   3  -2 -11    1.64    0.13 
  -3   2  11    2.01    0.15 
   2  -2 -11    2.81    0.23 
  -2   2  11    2.85    0.23 
   1  -2 -11   15.82    0.55 
  -1   2  11   17.04    0.57 
   0  -2 -11   36.09    0.89 
   0   2  11   34.83    0.89 
  -1  -2 -11    1.80    0.28 
   1   2  11    1.22    0.26 
  -2  -2 -11    4.42    0.33 
   2   2  11    5.05    0.34 
  -3  -2 -11    7.64    0.25 
   3   2  11    7.32    0.22 
  -4  -2 -11   15.95    0.61 
   4   2  11   15.31    0.30 
  -5  -2 -11    5.02    0.42 
   5   2  11    4.79    0.24 
  -6  -2 -11    4.83    0.43 
   6   2  11    4.12    0.23 
  -7  -2 -11    3.08    0.37 
   7   2  11    3.63    0.27 
  -8  -2 -11    2.52    0.65 
   8  -3 -11    5.92    1.09 
  -8   3  11    5.33    0.48 
   7  -3 -11    2.12    0.21 
  -7   3  11    2.81    0.43 
   6  -3 -11    4.41    0.21 
  -6   3  11    5.23    0.50 
   5  -3 -11    0.06    0.10 
  -5   3  11    0.23    0.23 
   4  -3 -11   17.11    0.33 
  -4   3  11   18.15    0.76 
   3  -3 -11   17.31    0.30 
  -3   3  11   18.83    0.43 
   2  -3 -11   17.30    0.36 
  -2   3  11   17.61    0.40 
   1  -3 -11    0.22    0.18 
  -1   3  11    0.46    0.20 
   0  -3 -11    6.21    0.33 
   0   3  11    6.99    0.33 
  -1  -3 -11   21.33    0.57 
   1   3  11   21.47    0.54 
  -2  -3 -11   27.58    0.56 
   2   3  11   24.78    0.52 
  -3  -3 -11    0.12    0.09 
   3   3  11    0.09    0.08 
  -4  -3 -11    1.68    0.27 
   4   3  11    1.25    0.11 
  -5  -3 -11    8.14    0.48 
   5   3  11    7.56    0.29 
  -6  -3 -11    7.31    0.48 
   6   3  11    7.13    0.26 
  -7  -3 -11    2.10    0.32 
   7   3  11    1.81    0.20 
  -8  -3 -11    1.23    0.37 
  -8   4  11    0.36    0.29 
   7  -4 -11    1.38    0.19 
  -7   4  11    1.28    0.29 
   6  -4 -11   10.60    0.32 
  -6   4  11   12.09    0.71 
   5  -4 -11    3.43    0.21 
  -5   4  11    3.88    0.45 
   4  -4 -11    4.24    0.20 
  -4   4  11    4.19    0.44 
   3  -4 -11    1.05    0.11 
  -3   4  11    1.09    0.17 
   2  -4 -11   29.71    0.53 
  -2   4  11   31.51    0.75 
   1  -4 -11   21.28    0.62 
  -1   4  11   22.38    0.64 
   0  -4 -11   14.46    0.49 
   0   4  11   12.70    0.48 
  -1  -4 -11    0.70    0.20 
   1   4  11    0.86    0.18 
  -2  -4 -11    8.63    0.29 
   2   4  11    8.20    0.26 
  -3  -4 -11   20.25    0.37 
   3   4  11   18.62    0.30 
  -4  -4 -11   12.52    0.64 
   4   4  11   11.39    0.24 
  -5  -4 -11    0.55    0.21 
   5   4  11    0.47    0.11 
  -6  -4 -11    0.17    0.20 
   6   4  11    0.28    0.11 
  -7  -4 -11    5.34    0.44 
   7   4  11    5.14    0.24 
  -8  -4 -11    2.01    0.42 
  -8   5  11    4.62    1.02 
   7  -5 -11    0.00    0.21 
  -7   5  11    0.06    0.24 
   6  -5 -11    1.36    0.15 
  -6   5  11    1.16    0.29 
   5  -5 -11    4.60    0.20 
  -5   5  11    5.63    0.53 
   4  -5 -11   17.60    0.39 
  -4   5  11   19.59    0.83 
   3  -5 -11    3.28    0.18 
  -3   5  11    3.29    0.26 
   2  -5 -11    1.69    0.19 
  -2   5  11    2.07    0.21 
   1  -5 -11    5.46    0.38 
  -1   5  11    5.80    0.39 
   0  -5 -11   36.18    0.92 
   0   5  11   37.32    0.91 
  -1  -5 -11   18.37    0.65 
   1   5  11   18.28    0.60 
  -2  -5 -11    7.71    0.33 
   2   5  11    6.68    0.30 
  -3  -5 -11    4.33    0.20 
   3   5  11    4.22    0.17 
  -4  -5 -11    7.49    0.52 
   4   5  11    6.30    0.19 
  -5  -5 -11   13.58    0.67 
   5   5  11   12.23    0.30 
  -6  -5 -11    3.52    0.43 
   6   5  11    3.27    0.18 
  -7  -5 -11    0.77    0.25 
   7   5  11    0.68    0.11 
  -8  -5 -11    0.08    0.25 
   8   5  11    0.15    0.31 
   7  -6 -11    6.49    0.44 
  -7   6  11    6.69    0.54 
   6  -6 -11    9.15    0.29 
  -6   6  11    9.85    0.58 
   5  -6 -11    0.06    0.09 
  -5   6  11    0.14    0.22 
   4  -6 -11    4.03    0.20 
  -4   6  11    4.90    0.40 
   3  -6 -11   13.18    0.31 
  -3   6  11   13.57    0.41 
   2  -6 -11   21.56    0.48 
  -2   6  11   23.67    0.55 
   1  -6 -11    1.42    0.21 
  -1   6  11    1.43    0.23 
   0  -6 -11    0.21    0.13 
   0   6  11    0.12    0.13 
  -1  -6 -11    8.70    0.39 
   1   6  11    8.98    0.37 
  -2  -6 -11   32.39    0.65 
   2   6  11   31.03    0.53 
  -3  -6 -11   10.03    0.32 
   3   6  11    9.56    0.25 
  -4  -6 -11    1.73    0.30 
   4   6  11    1.84    0.12 
  -5  -6 -11    6.71    0.52 
   5   6  11    5.90    0.23 
  -6  -6 -11    4.01    0.44 
   6   6  11    3.68    0.19 
  -7  -6 -11    6.39    0.54 
   7   6  11    6.29    0.28 
  -8  -6 -11    0.42    0.38 
   8   6  11    0.55    0.20 
   7  -7 -11    0.30    0.33 
  -7   7  11    0.01    0.30 
   6  -7 -11    3.95    0.26 
  -6   7  11    4.61    0.46 
   5  -7 -11    9.95    0.29 
  -5   7  11   11.92    0.60 
   4  -7 -11   12.37    0.32 
  -4   7  11   13.15    0.60 
   3  -7 -11    1.08    0.14 
  -3   7  11    1.22    0.20 
   2  -7 -11   10.23    0.42 
  -2   7  11   11.00    0.44 
   1  -7 -11   22.62    0.67 
  -1   7  11   21.87    0.65 
   0  -7 -11   19.55    0.61 
   0   7  11   19.07    0.61 
  -1  -7 -11    0.45    0.23 
   1   7  11    0.00    0.21 
  -2  -7 -11    0.39    0.17 
   2   7  11    0.71    0.16 
  -3  -7 -11   10.01    0.37 
   3   7  11    9.48    0.23 
  -4  -7 -11   18.99    0.78 
   4   7  11   18.57    0.36 
  -5  -7 -11    4.07    0.44 
   5   7  11    3.81    0.20 
  -6  -7 -11    0.00    0.19 
   6   7  11    0.12    0.10 
  -7  -7 -11    5.62    0.52 
   7   7  11    4.75    0.26 
  -8  -7 -11    1.82    0.52 
   8   7  11    1.34    0.25 
  -9  -7 -11    3.28    0.65 
   6  -8 -11    0.29    0.27 
  -6   8  11    0.00    0.26 
   5  -8 -11    0.58    0.15 
  -5   8  11    0.56    0.27 
   4  -8 -11    8.43    0.29 
  -4   8  11    9.66    0.56 
   3  -8 -11   13.35    0.33 
  -3   8  11   14.92    0.43 
   2  -8 -11   11.25    0.37 
  -2   8  11   13.11    0.42 
   1  -8 -11    5.40    0.38 
  -1   8  11    6.49    0.38 
   0  -8 -11   16.25    0.56 
   0   8  11   14.98    0.55 
  -1  -8 -11   21.98    0.65 
   1   8  11   20.49    0.66 
  -2  -8 -11   12.45    0.51 
   2   8  11   12.37    0.45 
  -3  -8 -11    0.21    0.16 
   3   8  11    0.39    0.10 
  -4  -8 -11    1.04    0.28 
   4   8  11    1.19    0.13 
  -5  -8 -11    6.67    0.54 
   5   8  11    6.50    0.26 
  -6  -8 -11    8.09    0.58 
   6   8  11    7.84    0.25 
  -7  -8 -11    1.39    0.32 
   7   8  11    1.40    0.18 
  -8  -8 -11    0.05    0.24 
   8   8  11    0.13    0.18 
  -9  -8 -11    3.27    0.66 
   6  -9 -11    6.56    0.79 
  -6   9  11    7.69    0.74 
   5  -9 -11    2.48    0.25 
  -5   9  11    2.63    0.39 
   4  -9 -11    0.69    0.16 
  -4   9  11    1.01    0.26 
   3  -9 -11    3.33    0.21 
  -3   9  11    3.38    0.28 
   2  -9 -11   13.19    0.51 
  -2   9  11   13.68    0.68 
   1  -9 -11   14.75    0.50 
  -1   9  11   14.82    0.53 
   0  -9 -11    6.95    0.38 
   0   9  11    6.45    0.37 
  -1  -9 -11    6.94    0.38 
   1   9  11    7.22    0.38 
  -2  -9 -11   17.39    0.46 
   2   9  11   16.40    0.43 
  -3  -9 -11   15.18    0.43 
   3   9  11   13.58    0.31 
  -4  -9 -11    4.29    0.45 
   4   9  11    5.16    0.23 
  -5  -9 -11    1.92    0.35 
   5   9  11    1.39    0.12 
  -6  -9 -11    1.43    0.34 
   6   9  11    1.32    0.14 
  -7  -9 -11    3.41    0.44 
   7   9  11    3.09    0.23 
  -8  -9 -11    3.18    0.43 
   8   9  11    2.30    0.30 
  -9  -9 -11    0.23    0.38 
   5 -10 -11    3.37    0.42 
  -5  10  11    3.64    0.45 
   4 -10 -11   11.57    0.39 
  -4  10  11   12.75    0.64 
   3 -10 -11    0.79    0.22 
  -3  10  11    1.34    0.25 
   2 -10 -11    2.52    0.44 
  -2  10  11    3.36    0.64 
   1 -10 -11    8.68    0.47 
  -1  10  11    9.43    0.49 
   0 -10 -11   12.99    0.51 
   0  10  11   11.17    0.51 
  -1 -10 -11    9.36    0.54 
   1  10  11    8.18    0.50 
  -2 -10 -11    2.16    0.43 
   2  10  11    3.07    0.36 
  -3 -10 -11    9.79    0.38 
   3  10  11    8.47    0.26 
  -4 -10 -11   12.81    0.57 
   4  10  11   11.78    0.29 
  -5 -10 -11    7.84    0.50 
   5  10  11    6.76    0.22 
  -6 -10 -11    1.13    0.28 
   6  10  11    1.05    0.13 
  -7 -10 -11    2.38    0.41 
   7  10  11    1.88    0.20 
  -8 -10 -11    1.12    0.33 
   8  10  11    0.47    0.31 
   5 -11 -11    0.14    0.38 
  -5  11  11    0.15    0.34 
   4 -11 -11    5.75    0.46 
  -4  11  11    6.38    0.53 
   3 -11 -11    5.18    0.40 
  -3  11  11    5.30    0.51 
   2 -11 -11   13.48    0.70 
  -2  11  11   15.09    1.03 
   1 -11 -11    0.57    0.33 
  -1  11  11    0.00    0.36 
   0 -11 -11    4.97    0.36 
   0  11  11    4.66    0.36 
  -1 -11 -11    9.32    0.49 
   1  11  11    9.60    0.47 
  -2 -11 -11    7.87    0.70 
   2  11  11    7.87    0.50 
  -3 -11 -11    3.85    0.26 
   3  11  11    3.76    0.20 
  -4 -11 -11    0.40    0.23 
   4  11  11    0.22    0.11 
  -5 -11 -11    6.83    0.50 
   5  11  11    5.91    0.22 
  -6 -11 -11    6.75    0.51 
   6  11  11    6.19    0.24 
  -7 -11 -11    2.98    0.40 
   7  11  11    2.18    0.24 
  -8 -11 -11    0.31    0.27 
   8  11  11    0.00    0.52 
   4 -12 -11    1.60    0.48 
   3 -12 -11    0.01    0.88 
  -3  12  11    0.37    1.30 
   2 -12 -11   10.65    0.80 
  -2  12  11    8.78    1.01 
   1 -12 -11    6.62    0.55 
  -1  12  11    6.57    0.64 
   0 -12 -11   12.02    0.60 
   0  12  11   11.86    0.60 
  -1 -12 -11    0.59    0.37 
   1  12  11    0.11    0.32 
  -2 -12 -11    6.09    0.68 
   2  12  11    6.79    0.43 
  -3 -12 -11    9.00    0.40 
   3  12  11    8.52    0.29 
  -4 -12 -11    3.67    0.35 
   4  12  11    3.26    0.23 
  -5 -12 -11    1.15    0.29 
   5  12  11    0.80    0.14 
  -6 -12 -11    0.16    0.24 
   6  12  11    0.13    0.11 
  -7 -12 -11    3.73    0.44 
   7  12  11    3.74    0.30 
  -8 -12 -11    3.50    0.44 
   2 -13 -11    0.63    0.72 
  -2  13  11    0.07    1.06 
   1 -13 -11    3.75    0.62 
  -1  13  11    2.64    1.10 
   0 -13 -11    9.61    0.63 
   0  13  11    9.04    0.62 
  -1 -13 -11    4.25    0.65 
   1  13  11    4.09    0.54 
  -2 -13 -11    6.75    1.10 
   2  13  11    6.88    0.70 
  -3 -13 -11    2.05    0.28 
   3  13  11    1.70    0.26 
  -4 -13 -11    6.09    0.44 
   4  13  11    5.66    0.30 
  -5 -13 -11    5.32    0.48 
   5  13  11    4.91    0.27 
  -6 -13 -11    0.36    0.28 
   6  13  11    0.96    0.20 
  -7 -13 -11    0.16    0.26 
   7  13  11    0.28    0.22 
  -8 -13 -11    0.00    0.53 
   1 -14 -11    0.97    0.66 
  -1  14  11    0.36    0.92 
   0 -14 -11    0.00    0.22 
   0  14  11    0.11    0.22 
  -1 -14 -11    5.78    1.17 
   1  14  11    4.50    0.63 
  -2 -14 -11    8.70    1.07 
   2  14  11    6.73    0.80 
  -3 -14 -11    2.93    0.46 
   3  14  11    3.20    0.36 
  -4 -14 -11    2.22    0.37 
   4  14  11    2.48    0.25 
  -5 -14 -11    2.35    0.38 
   5  14  11    1.74    0.26 
  -6 -14 -11    4.53    0.49 
   6  14  11    3.06    0.42 
  -7 -14 -11    2.75    0.52 
   7  14  11    2.08    0.48 
   0 -15 -11    6.56    7.40 
   0  15  11    6.87    7.95 
  -1 -15 -11    0.13    0.97 
   1  15  11    0.24    0.65 
  -2 -15 -11    0.66    1.12 
   2  15  11    0.66    0.71 
  -3 -15 -11    7.12    1.38 
   3  15  11    7.39    0.87 
  -4 -15 -11    2.60    0.41 
   4  15  11    2.54    0.39 
  -5 -15 -11    0.81    0.42 
   5  15  11    0.74    0.29 
  -6 -15 -11    0.52    0.36 
   6  15  11    0.67    0.41 
   5   6 -12    0.17    0.25 
   4   6 -12    4.12    0.48 
   3   6 -12   11.24    0.84 
  -3  -6  12   12.12    1.10 
   2   6 -12    0.00    0.84 
  -2  -6  12    1.32    6.36 
   1   6 -12    1.68    0.87 
  -1  -6  12    0.00    0.87 
   0   6 -12    1.85    0.70 
   0  -6  12    1.80    0.70 
   6   5 -12    1.98    0.33 
  -6  -5  12    2.77    0.69 
   5   5 -12    5.79    0.50 
  -5  -5  12    5.88    0.60 
   4   5 -12    1.04    0.31 
  -4  -5  12    0.59    0.48 
   3   5 -12    0.31    0.36 
  -3  -5  12    0.00    0.43 
   2   5 -12    5.54    1.43 
  -2  -5  12    8.80    1.06 
   1   5 -12    9.86    1.55 
  -1  -5  12   16.55    1.15 
   0   5 -12    0.66    0.36 
   0  -5  12    0.34    0.35 
  -1   5 -12    1.75    0.87 
   1  -5  12    1.10    0.87 
   7   4 -12    3.22    0.51 
  -7  -4  12    4.01    0.58 
   6   4 -12    0.18    0.16 
  -6  -4  12    0.25    0.23 
   5   4 -12    5.74    0.35 
  -5  -4  12    6.59    0.53 
   4   4 -12    4.96    0.34 
  -4  -4  12    5.09    0.55 
   3   4 -12    7.86    0.46 
  -3  -4  12    8.94    0.64 
   2   4 -12    0.37    0.38 
  -2  -4  12    0.46    0.58 
   1   4 -12    0.39    0.36 
  -1  -4  12    0.00    0.51 
   0   4 -12   12.01    0.71 
   0  -4  12   13.33    0.70 
  -1   4 -12   13.19    1.17 
   1  -4  12   18.16    1.56 
  -2   4 -12    0.09    6.07 
   2  -4  12    0.15    0.84 
   3  -4  12    0.11    0.28 
   7   3 -12    4.56    0.58 
  -7  -3  12    5.69    0.49 
   6   3 -12    3.34    0.22 
  -6  -3  12    3.38    0.40 
   5   3 -12    4.97    0.27 
  -5  -3  12    4.78    0.44 
   4   3 -12    0.38    0.16 
  -4  -3  12    0.37    0.27 
   3   3 -12   12.09    0.44 
  -3  -3  12   11.83    0.57 
   2   3 -12    7.25    0.54 
  -2  -3  12    8.41    0.52 
   1   3 -12    8.64    0.56 
  -1  -3  12   10.06    0.51 
   0   3 -12    0.14    0.18 
   0  -3  12    0.00    0.18 
  -1   3 -12    0.43    0.51 
   1  -3  12    0.29    0.36 
  -2   3 -12   13.76    1.04 
   2  -3  12   16.86    1.43 
  -3   3 -12    8.21    0.98 
   3  -3  12    7.76    0.77 
   4  -3  12    0.11    0.26 
  -8  -2  12    0.97    0.55 
   7   2 -12    0.02    0.13 
  -7  -2  12    0.07    0.26 
   6   2 -12    2.30    0.19 
  -6  -2  12    3.07    0.37 
   5   2 -12    9.16    0.32 
  -5  -2  12   10.80    0.58 
   4   2 -12    3.65    0.19 
  -4  -2  12    3.96    0.39 
   3   2 -12    4.87    0.25 
  -3  -2  12    5.31    0.36 
   2   2 -12    1.90    0.38 
  -2  -2  12    1.83    0.40 
   1   2 -12   14.77    0.64 
  -1  -2  12   18.41    0.66 
   0   2 -12    6.97    0.42 
   0  -2  12    7.80    0.42 
  -1   2 -12    4.56    0.51 
   1  -2  12    6.12    0.55 
  -2   2 -12    0.15    0.57 
   2  -2  12    0.14    0.38 
  -3   2 -12    0.09    0.30 
   3  -2  12    0.48    0.26 
  -4   2 -12   11.45    1.11 
   4  -2  12   10.88    0.67 
   5  -2  12    3.50    0.63 
  -8  -1  12    3.41    0.74 
   7   1 -12    4.85    0.27 
  -7  -1  12    5.35    0.55 
   6   1 -12    0.72    0.13 
  -6  -1  12    1.51    0.37 
   5   1 -12    0.16    0.13 
  -5  -1  12    0.40    0.23 
   4   1 -12    6.94    0.23 
  -4  -1  12    6.72    0.47 
   3   1 -12   13.14    0.35 
  -3  -1  12   14.11    0.51 
   2   1 -12    2.18    0.29 
  -2  -1  12    3.09    0.32 
   1   1 -12    3.48    0.32 
  -1  -1  12    4.40    0.33 
   0   1 -12    4.98    0.35 
   0  -1  12    5.19    0.35 
  -1   1 -12   16.99    0.66 
   1  -1  12   19.92    0.64 
  -2   1 -12    5.65    0.52 
   2  -1  12    5.12    0.53 
  -3   1 -12    1.69    0.29 
   3  -1  12    2.00    0.32 
  -4   1 -12    0.64    0.35 
   4  -1  12    0.58    0.19 
  -5   1 -12    0.46    0.34 
   5  -1  12    0.44    0.27 
   8   0 -12    0.00    0.41 
  -8   0  12    0.07    0.40 
   7   0 -12    3.37    0.24 
  -7   0  12    4.19    0.50 
   6   0 -12    4.87    0.24 
  -6   0  12    5.79    0.55 
   5   0 -12    7.64    0.29 
  -5   0  12    8.67    0.62 
   4   0 -12    0.32    0.09 
  -4   0  12    0.15    0.24 
   3   0 -12    2.38    0.16 
  -3   0  12    2.19    0.20 
   2   0 -12   11.90    0.53 
  -2   0  12   12.82    0.57 
   1   0 -12   12.99    0.52 
  -1   0  12   14.09    0.53 
   0   0 -12    0.90    0.19 
   0   0  12    0.93    0.19 
  -1   0 -12    1.47    0.33 
   1   0  12    2.46    0.32 
  -2   0 -12    7.79    0.41 
   2   0  12    7.27    0.38 
  -3   0 -12   13.31    0.52 
   3   0  12   11.95    0.34 
  -4   0 -12    3.96    0.52 
   4   0  12    3.15    0.28 
  -5   0 -12    0.27    0.33 
   5   0  12    0.08    0.20 
  -6   0 -12    0.96    0.56 
   6   0  12    0.89    0.28 
   8  -1 -12    0.87    0.58 
  -8   1  12    0.88    0.33 
   7  -1 -12    0.88    0.16 
  -7   1  12    0.98    0.33 
   6  -1 -12    0.12    0.10 
  -6   1  12    0.14    0.26 
   5  -1 -12    8.59    0.29 
  -5   1  12    8.31    0.61 
   4  -1 -12    8.08    0.23 
  -4   1  12    7.82    0.57 
   3  -1 -12    9.23    0.26 
  -3   1  12   10.01    0.35 
   2  -1 -12    0.17    0.32 
  -2   1  12    0.11    0.24 
   1  -1 -12    5.51    0.42 
  -1   1  12    6.97    0.43 
   0  -1 -12   15.30    0.57 
   0   1  12   16.19    0.56 
  -1  -1 -12   11.22    0.54 
   1   1  12   12.40    0.52 
  -2  -1 -12    0.12    0.32 
   2   1  12    0.29    0.29 
  -3  -1 -12    0.36    0.19 
   3   1  12    0.50    0.14 
  -4  -1 -12    7.78    0.51 
   4   1  12    6.65    0.28 
  -5  -1 -12    6.64    0.52 
   5   1  12    6.52    0.32 
  -6  -1 -12    1.00    0.29 
   6   1  12    0.80    0.19 
  -7  -1 -12    0.00    0.40 
   7   1  12    0.19    0.33 
  -8   2  12    1.80    0.57 
   7  -2 -12    6.85    0.33 
  -7   2  12    8.38    0.66 
   6  -2 -12    0.59    0.12 
  -6   2  12    0.27    0.25 
   5  -2 -12    0.34    0.12 
  -5   2  12    0.59    0.29 
   4  -2 -12    2.24    0.14 
  -4   2  12    2.21    0.37 
   3  -2 -12   14.86    0.30 
  -3   2  12   15.56    0.45 
   2  -2 -12    9.51    0.37 
  -2   2  12   10.76    0.38 
   1  -2 -12    6.95    0.35 
  -1   2  12    6.77    0.36 
   0  -2 -12    2.03    0.26 
   0   2  12    2.85    0.26 
  -1  -2 -12    9.96    0.44 
   1   2  12   10.95    0.42 
  -2  -2 -12   15.21    0.58 
   2   2  12   14.35    0.53 
  -3  -2 -12    4.38    0.33 
   3   2  12    4.38    0.23 
  -4  -2 -12    0.64    0.26 
   4   2  12    0.92    0.12 
  -5  -2 -12    0.06    0.19 
   5   2  12    0.01    0.12 
  -6  -2 -12    5.30    0.47 
   6   2  12    4.58    0.25 
  -7  -2 -12    2.84    0.39 
   7   2  12    2.36    0.44 
  -8   3  12    0.63    0.36 
   7  -3 -12    2.06    0.26 
  -7   3  12    2.30    0.42 
   6  -3 -12    4.35    0.22 
  -6   3  12    4.14    0.50 
   5  -3 -12   13.58    0.34 
  -5   3  12   15.00    0.77 
   4  -3 -12    0.20    0.10 
  -4   3  12    0.10    0.24 
   3  -3 -12    0.08    0.09 
  -3   3  12    0.08    0.14 
   2  -3 -12    8.88    0.41 
  -2   3  12    8.55    0.45 
   1  -3 -12   20.27    0.57 
  -1   3  12   20.09    0.62 
   0  -3 -12    8.78    0.41 
   0   3  12    8.33    0.40 
  -1  -3 -12    3.93    0.37 
   1   3  12    3.77    0.35 
  -2  -3 -12    6.17    0.32 
   2   3  12    6.19    0.32 
  -3  -3 -12    9.98    0.34 
   3   3  12    9.13    0.26 
  -4  -3 -12   10.67    0.54 
   4   3  12    9.82    0.27 
  -5  -3 -12    0.84    0.26 
   5   3  12    0.97    0.15 
  -6  -3 -12    1.31    0.30 
   6   3  12    1.40    0.16 
  -7  -3 -12    0.41    0.25 
   7   3  12    0.04    0.25 
   7  -4 -12    4.62    0.41 
  -7   4  12    4.22    0.45 
   6  -4 -12    0.20    0.11 
  -6   4  12    0.12    0.27 
   5  -4 -12    5.39    0.25 
  -5   4  12    5.28    0.53 
   4  -4 -12   10.13    0.29 
  -4   4  12   10.29    0.65 
   3  -4 -12   18.27    0.40 
  -3   4  12   20.28    0.52 
   2  -4 -12    0.00    0.19 
  -2   4  12    0.21    0.17 
   1  -4 -12    0.85    0.25 
  -1   4  12    0.16    0.28 
   0  -4 -12   15.70    0.56 
   0   4  12   15.77    0.55 
  -1  -4 -12   16.63    0.63 
   1   4  12   15.70    0.56 
  -2  -4 -12    4.23    0.43 
   2   4  12    4.12    0.37 
  -3  -4 -12    0.89    0.14 
   3   4  12    0.60    0.12 
  -4  -4 -12    8.52    0.59 
   4   4  12    7.40    0.22 
  -5  -4 -12    6.20    0.53 
   5   4  12    5.49    0.26 
  -6  -4 -12    5.49    0.47 
   6   4  12    4.78    0.26 
  -7  -4 -12    0.09    0.23 
   7   4  12    0.05    0.12 
   7  -5 -12    5.69    0.58 
  -7   5  12    6.62    0.54 
   6  -5 -12    2.89    0.21 
  -6   5  12    3.68    0.42 
   5  -5 -12    6.54    0.30 
  -5   5  12    7.64    0.64 
   4  -5 -12    2.04    0.20 
  -4   5  12    2.35    0.39 
   3  -5 -12    9.82    0.32 
  -3   5  12   10.68    0.46 
   2  -5 -12   17.76    0.57 
  -2   5  12   18.32    0.50 
   1  -5 -12   17.92    0.60 
  -1   5  12   18.00    0.62 
   0  -5 -12    1.03    0.20 
   0   5  12    0.59    0.19 
  -1  -5 -12    3.23    0.28 
   1   5  12    2.93    0.25 
  -2  -5 -12   19.24    0.49 
   2   5  12   17.33    0.42 
  -3  -5 -12   10.53    0.39 
   3   5  12   10.25    0.26 
  -4  -5 -12    1.32    0.32 
   4   5  12    1.01    0.12 
  -5  -5 -12    0.06    0.24 
   5   5  12    0.18    0.11 
  -6  -5 -12    6.90    0.57 
   6   5  12    6.52    0.27 
  -7  -5 -12    2.94    0.44 
   7   5  12    2.71    0.20 
  -8  -5 -12    1.81    0.52 
  -7   6  12    0.05    0.33 
   6  -6 -12    3.39    0.26 
  -6   6  12    3.45    0.42 
   5  -6 -12   11.81    0.38 
  -5   6  12   12.20    0.62 
   4  -6 -12    4.56    0.24 
  -4   6  12    4.74    0.42 
   3  -6 -12    6.69    0.25 
  -3   6  12    7.75    0.40 
   2  -6 -12    8.92    0.52 
  -2   6  12    9.70    0.47 
   1  -6 -12   14.61    0.61 
  -1   6  12   15.76    0.63 
   0  -6 -12   21.34    0.66 
   0   6  12   20.51    0.66 
  -1  -6 -12   12.23    0.64 
   1   6  12   11.15    0.59 
  -2  -6 -12    2.24    0.22 
   2   6  12    2.55    0.25 
  -3  -6 -12    4.95    0.30 
   3   6  12    4.52    0.19 
  -4  -6 -12   14.97    0.73 
   4   6  12   13.57    0.27 
  -5  -6 -12    4.29    0.47 
   5   6  12    3.64    0.20 
  -6  -6 -12    0.07    0.25 
   6   6  12    0.28    0.11 
  -7  -6 -12    0.23    0.27 
   7   6  12    0.08    0.13 
  -8  -6 -12    4.38    0.77 
   6  -7 -12    0.38    0.21 
  -6   7  12    0.27    0.29 
   5  -7 -12    0.19    0.15 
  -5   7  12    0.08    0.24 
   4  -7 -12    9.06    0.36 
  -4   7  12   10.30    0.57 
   3  -7 -12   15.58    0.36 
  -3   7  12   15.91    0.46 
   2  -7 -12    4.84    0.31 
  -2   7  12    4.20    0.33 
   1  -7 -12    4.06    0.31 
  -1   7  12    4.60    0.32 
   0  -7 -12   16.22    0.57 
   0   7  12   15.71    0.57 
  -1  -7 -12   14.38    0.64 
   1   7  12   14.30    0.60 
  -2  -7 -12   17.91    0.50 
   2   7  12   16.18    0.55 
  -3  -7 -12    3.91    0.28 
   3   7  12    3.85    0.23 
  -4  -7 -12    3.72    0.45 
   4   7  12    3.37    0.18 
  -5  -7 -12    4.38    0.48 
   5   7  12    4.04    0.21 
  -6  -7 -12    7.55    0.60 
   6   7  12    7.98    0.27 
  -7  -7 -12    0.93    0.32 
   7   7  12    0.66    0.15 
  -8  -7 -12    0.21    0.35 
   8   7  12    0.44    0.37 
   6  -8 -12    7.83    0.83 
  -6   8  12    7.09    0.71 
   5  -8 -12    3.11    0.27 
  -5   8  12    3.34    0.42 
   4  -8 -12    0.05    0.14 
  -4   8  12    0.20    0.24 
   3  -8 -12    0.51    0.13 
  -3   8  12    0.65    0.18 
   2  -8 -12   17.66    0.61 
  -2   8  12   18.53    0.79 
   1  -8 -12   14.35    0.52 
  -1   8  12   16.11    0.54 
   0  -8 -12    3.05    0.30 
   0   8  12    3.64    0.30 
  -1  -8 -12    1.23    0.33 
   1   8  12    1.58    0.31 
  -2  -8 -12   18.54    0.50 
   2   8  12   17.86    0.50 
  -3  -8 -12   11.49    0.48 
   3   8  12    9.93    0.31 
  -4  -8 -12    9.54    0.63 
   4   8  12    8.68    0.29 
  -5  -8 -12    0.96    0.30 
   5   8  12    0.41    0.12 
  -6  -8 -12    3.08    0.42 
   6   8  12    2.98    0.19 
  -7  -8 -12    2.34    0.41 
   7   8  12    2.26    0.21 
  -8  -8 -12    3.99    0.49 
   8   8  12    3.01    0.69 
   5  -9 -12    7.21    0.43 
  -5   9  12    6.91    0.55 
   4  -9 -12   10.08    0.37 
  -4   9  12   10.99    0.61 
   3  -9 -12    3.42    0.28 
  -3   9  12    3.56    0.31 
   2  -9 -12    1.47    0.33 
  -2   9  12    0.42    0.56 
   1  -9 -12    2.44    0.33 
  -1   9  12    2.56    0.35 
   0  -9 -12   21.71    0.70 
   0   9  12   21.03    0.70 
  -1  -9 -12    8.10    0.54 
   1   9  12    9.98    0.52 
  -2  -9 -12    2.08    0.30 
   2   9  12    1.19    0.31 
  -3  -9 -12    0.07    0.18 
   3   9  12    0.21    0.12 
  -4  -9 -12   14.00    0.76 
   4   9  12   13.48    0.39 
  -5  -9 -12    5.74    0.54 
   5   9  12    5.52    0.27 
  -6  -9 -12    2.96    0.43 
   6   9  12    3.08    0.19 
  -7  -9 -12    0.00    0.24 
   7   9  12    0.05    0.13 
  -8  -9 -12    2.08    0.41 
   8   9  12    1.41    0.59 
   5 -10 -12    0.40    0.28 
  -5  10  12    0.61    0.36 
   4 -10 -12    1.09    0.26 
  -4  10  12    1.34    0.41 
   3 -10 -12   13.00    0.50 
  -3  10  12   14.18    0.58 
   2 -10 -12   12.69    0.68 
  -2  10  12   12.61    0.97 
   1 -10 -12    1.88    0.33 
  -1  10  12    2.41    0.31 
   0 -10 -12    2.02    0.26 
   0  10  12    2.33    0.26 
  -1 -10 -12    3.40    0.35 
   1  10  12    3.13    0.32 
  -2 -10 -12   18.95    0.80 
   2  10  12   18.27    0.60 
  -3 -10 -12    3.04    0.27 
   3  10  12    3.23    0.20 
  -4 -10 -12    0.25    0.23 
   4  10  12    0.57    0.13 
  -5 -10 -12    0.15    0.24 
   5  10  12    0.35    0.13 
  -6 -10 -12    8.73    0.67 
   6  10  12    8.01    0.28 
  -7 -10 -12    2.07    0.40 
   7  10  12    2.60    0.23 
  -8 -10 -12    1.22    0.36 
   8  10  12    0.83    0.66 
   4 -11 -12    1.48    0.37 
   3 -11 -12    0.15    0.25 
  -3  11  12    0.25    0.40 
   2 -11 -12    1.43    0.53 
  -2  11  12    2.56    0.80 
   1 -11 -12   17.67    0.73 
  -1  11  12   17.59    0.82 
   0 -11 -12   10.67    0.55 
   0  11  12    9.63    0.55 
  -1 -11 -12    0.16    0.31 
   1  11  12    0.62    0.33 
  -2 -11 -12    4.41    0.60 
   2  11  12    2.47    0.33 
  -3 -11 -12    4.02    0.28 
   3  11  12    3.56    0.21 
  -4 -11 -12   12.68    0.61 
   4  11  12   10.65    0.38 
  -5 -11 -12    0.43    0.26 
   5  11  12    0.29    0.15 
  -6 -11 -12    0.01    0.22 
   6  11  12    0.11    0.11 
  -7 -11 -12    0.55    0.29 
   7  11  12    0.39    0.20 
  -8 -11 -12    3.37    0.54 
   3 -12 -12    5.60    1.11 
  -3  12  12    6.01    8.17 
   2 -12 -12    1.33    0.74 
  -2  12  12    0.69    1.04 
   1 -12 -12    0.34    0.39 
  -1  12  12    0.22    0.58 
   0 -12 -12    3.60    0.46 
   0  12  12    5.14    0.46 
  -1 -12 -12   14.96    0.83 
   1  12  12   13.38    0.71 
  -2 -12 -12    6.25    1.03 
   2  12  12    6.77    0.67 
  -3 -12 -12    0.20    0.19 
   3  12  12    0.30    0.17 
  -4 -12 -12    4.21    0.43 
   4  12  12    3.68    0.25 
  -5 -12 -12    2.95    0.40 
   5  12  12    2.97    0.23 
  -6 -12 -12    4.25    0.46 
   6  12  12    4.75    0.29 
  -7 -12 -12    0.07    0.26 
   7  12  12    0.05    0.33 
   2 -13 -12    5.09    1.25 
  -2  13  12    7.09    8.43 
   1 -13 -12    5.83    0.79 
  -1  13  12    5.65    1.17 
   0 -13 -12    0.00    0.24 
   0  13  12    0.29    0.24 
  -1 -13 -12    0.44    0.62 
   1  13  12    0.21    0.39 
  -2 -13 -12    5.42    0.85 
   2  13  12    6.54    0.53 
  -3 -13 -12    9.68    0.52 
   3  13  12    8.39    0.44 
  -4 -13 -12    3.25    0.41 
   4  13  12    2.83    0.23 
  -5 -13 -12    0.52    0.28 
   5  13  12    0.77    0.18 
  -6 -13 -12    3.31    0.44 
   6  13  12    2.77    0.48 
  -7 -13 -12    1.89    0.47 
   7  13  12    1.51    0.45 
   1 -14 -12    7.49    7.52 
   0 -14 -12    6.40    0.70 
   0  14  12    6.07    0.68 
  -1 -14 -12    4.10    1.24 
   1  14  12    2.47    0.78 
  -2 -14 -12    0.24    1.10 
   2  14  12    0.95    0.74 
  -3 -14 -12    0.84    0.47 
   3  14  12    0.48    0.30 
  -4 -14 -12    3.88    0.54 
   4  14  12    3.97    0.39 
  -5 -14 -12    4.02    0.46 
   5  14  12    4.13    0.35 
  -6 -14 -12    1.19    0.43 
   6  14  12    0.89    0.44 
   1  15  12    5.23    8.09 
  -2 -15 -12    5.52    9.06 
   2  15  12    6.34    1.25 
  -3 -15 -12    1.73    8.78 
   3  15  12    0.89    1.12 
   4  15  12    1.15    0.33 
  -5 -15 -12    0.55    0.37 
   5  15  12    0.87    0.40 
   4   5 -13    1.45    0.34 
   3   5 -13    1.05    0.43 
   2   5 -13    4.70    1.10 
  -2  -5  13    6.41    7.85 
   1   5 -13    0.00    0.76 
  -1  -5  13    0.00    0.81 
   0   5 -13    0.91    3.82 
   0  -5  13    0.83    3.64 
   6   4 -13    4.09    0.43 
  -6  -4  13    5.29    0.93 
   5   4 -13    0.91    0.30 
   4   4 -13    0.83    0.30 
  -4  -4  13    1.15    0.52 
   3   4 -13    4.02    0.61 
  -3  -4  13    4.64    0.77 
   2   4 -13    3.63    0.94 
  -2  -4  13    2.06    0.70 
   1   4 -13    0.52    0.60 
  -1  -4  13    0.52    0.59 
   0   4 -13    4.46    0.74 
   0  -4  13    4.90    0.73 
  -1   4 -13    0.07    0.81 
   1  -4  13    0.00    0.77 
   7   3 -13    0.00    0.32 
   6   3 -13    0.13    0.22 
  -6  -3  13    0.11    0.30 
   5   3 -13    4.25    0.44 
  -5  -3  13    4.16    0.52 
   4   3 -13    5.14    0.50 
  -4  -3  13    5.50    0.78 
   3   3 -13    1.33    0.28 
  -3  -3  13    0.89    0.48 
   2   3 -13    0.00    0.41 
  -2  -3  13    0.52    0.64 
   1   3 -13   10.10    0.75 
  -1  -3  13   13.25    0.77 
   0   3 -13    2.12    0.37 
   0  -3  13    2.23    0.36 
  -1   3 -13    0.21    0.60 
   1  -3  13    1.13    0.59 
  -2   3 -13    1.61    7.49 
   2  -3  13    3.76    1.11 
  -7  -2  13    0.16    0.44 
   6   2 -13    2.14    0.25 
  -6  -2  13    1.95    0.43 
   5   2 -13    0.20    0.20 
  -5  -2  13    0.21    0.23 
   4   2 -13    1.08    0.20 
  -4  -2  13    1.13    0.49 
   3   2 -13    9.52    0.44 
  -3  -2  13    9.36    0.68 
   2   2 -13    6.00    0.49 
  -2  -2  13    5.36    0.57 
   1   2 -13    0.10    0.42 
  -1  -2  13    0.50    0.35 
   0   2 -13    0.49    0.22 
   0  -2  13    0.07    0.21 
  -1   2 -13   14.47    0.77 
   1  -2  13   16.73    0.75 
  -2   2 -13    0.65    0.68 
   2  -2  13    0.14    0.94 
  -3   2 -13    0.00    0.45 
   3  -2  13    0.00    0.39 
   7   1 -13    3.84    0.53 
  -7  -1  13    3.47    0.52 
   6   1 -13    5.48    0.34 
  -6  -1  13    6.02    0.60 
   5   1 -13    1.70    0.19 
  -5  -1  13    1.33    0.36 
   4   1 -13    1.97    0.24 
  -4  -1  13    2.48    0.43 
   3   1 -13    1.65    0.26 
  -3  -1  13    2.55    0.42 
   2   1 -13    3.17    0.51 
  -2  -1  13    3.05    0.43 
   1   1 -13   13.25    0.70 
  -1  -1  13   14.55    0.58 
   0   1 -13    4.01    0.43 
   0  -1  13    4.35    0.43 
  -1   1 -13    0.00    0.35 
   1  -1  13    0.09    0.41 
  -2   1 -13    1.60    0.63 
   2  -1  13    1.36    0.41 
  -3   1 -13   16.97    1.28 
   3  -1  13   16.25    0.90 
  -4   1 -13    0.00    0.47 
   4  -1  13    0.42    0.29 
   7   0 -13    0.76    0.33 
  -7   0  13    1.38    0.37 
   6   0 -13    0.01    0.13 
  -6   0  13    0.47    0.29 
   5   0 -13   10.03    0.37 
  -5   0  13   10.87    0.72 
   4   0 -13    9.54    0.34 
  -4   0  13   10.84    0.71 
   3   0 -13    2.91    0.23 
  -3   0  13    2.21    0.54 
   2   0 -13    0.49    0.28 
  -2   0  13    0.69    0.31 
   1   0 -13    5.13    0.44 
  -1   0  13    6.17    0.45 
   0   0 -13    5.30    0.38 
   0   0  13    5.74    0.38 
  -1   0 -13   11.11    0.58 
   1   0  13   12.75    0.69 
  -2   0 -13    2.14    0.57 
   2   0  13    1.62    0.49 
  -3   0 -13    0.35    0.45 
   3   0  13    0.25    0.23 
  -4   0 -13    4.47    0.78 
   4   0  13    2.39    0.38 
   5   0  13   10.51    0.64 
   7  -1 -13    2.71    0.45 
  -7   1  13    3.34    0.50 
   6  -1 -13    5.11    0.26 
  -6   1  13    6.79    0.62 
   5  -1 -13    0.76    0.15 
  -5   1  13    1.57    0.37 
   4  -1 -13    0.11    0.11 
  -4   1  13    0.15    0.25 
   3  -1 -13   19.46    0.47 
  -3   1  13   21.04    0.64 
   2  -1 -13   12.63    0.50 
  -2   1  13   14.94    0.53 
   1  -1 -13    3.39    0.35 
  -1   1  13    3.81    0.35 
   0  -1 -13    0.02    0.13 
   0   1  13    0.05    0.13 
  -1  -1 -13    8.52    0.45 
   1   1  13    9.82    0.44 
  -2  -1 -13    6.88    0.43 
   2   1  13    6.94    0.50 
  -3  -1 -13    9.52    0.66 
   3   1  13    7.77    0.40 
  -4  -1 -13    0.92    0.49 
   4   1  13    0.40    0.19 
  -5  -1 -13    0.40    0.33 
   5   1  13    0.34    0.26 
  -6  -1 -13    2.93    0.76 
   6   1  13    3.03    0.40 
   7  -2 -13    0.42    0.24 
  -7   2  13    0.00    0.28 
   6  -2 -13    5.71    0.26 
  -6   2  13    5.93    0.59 
   5  -2 -13    7.03    0.28 
  -5   2  13    8.73    0.64 
   4  -2 -13    7.63    0.27 
  -4   2  13    8.81    0.63 
   3  -2 -13    0.23    0.13 
  -3   2  13    0.24    0.18 
   2  -2 -13    1.26    0.34 
  -2   2  13    0.43    0.26 
   1  -2 -13   28.21    0.84 
  -1   2  13   27.97    0.85 
   0  -2 -13   12.34    0.51 
   0   2  13   11.83    0.51 
  -1  -2 -13    3.21    0.35 
   1   2  13    3.97    0.35 
  -2  -2 -13    0.50    0.31 
   2   2  13    0.54    0.28 
  -3  -2 -13    9.20    0.65 
   3   2  13    9.50    0.39 
  -4  -2 -13    5.61    0.58 
   4   2  13    4.89    0.33 
  -5  -2 -13    4.09    0.44 
   5   2  13    4.11    0.37 
  -6  -2 -13    0.00    0.22 
   6   2  13    0.06    0.22 
   7  -3 -13    2.30    0.39 
  -7   3  13    2.38    0.46 
   6  -3 -13    2.92    0.21 
  -6   3  13    3.21    0.48 
   5  -3 -13    1.69    0.17 
  -5   3  13    1.39    0.37 
   4  -3 -13    9.78    0.30 
  -4   3  13   10.16    0.67 
   3  -3 -13   10.95    0.34 
  -3   3  13   12.55    0.49 
   2  -3 -13    7.67    0.32 
  -2   3  13    7.04    0.39 
   1  -3 -13    0.00    0.25 
  -1   3  13    0.35    0.26 
   0  -3 -13    3.27    0.30 
   0   3  13    3.33    0.30 
  -1  -3 -13   29.03    0.85 
   1   3  13   28.20    0.83 
  -2  -3 -13    6.09    0.53 
   2   3  13    8.31    0.50 
  -3  -3 -13    1.46    0.51 
   3   3  13    1.30    0.19 
  -4  -3 -13    1.17    0.35 
   4   3  13    1.09    0.14 
  -5  -3 -13    9.05    0.57 
   5   3  13    7.55    0.31 
  -6  -3 -13    2.61    0.38 
   6   3  13    2.83    0.27 
  -7  -3 -13    1.27    0.55 
   7   3  13    1.46    0.39 
   7  -4 -13    2.69    0.51 
  -7   4  13    2.32    0.49 
   6  -4 -13    5.74    0.29 
  -6   4  13    7.11    0.66 
   5  -4 -13    2.86    0.22 
  -5   4  13    2.44    0.44 
   4  -4 -13    3.16    0.20 
  -4   4  13    3.34    0.46 
   3  -4 -13    6.50    0.28 
  -3   4  13    6.50    0.36 
   2  -4 -13   14.16    0.46 
  -2   4  13   15.09    0.52 
   1  -4 -13   14.43    0.50 
  -1   4  13   14.16    0.56 
   0  -4 -13    4.59    0.32 
   0   4  13    3.25    0.32 
  -1  -4 -13    0.23    0.26 
   1   4  13    0.77    0.25 
  -2  -4 -13    5.43    0.34 
   2   4  13    4.93    0.34 
  -3  -4 -13   21.06    0.63 
   3   4  13   18.77    0.45 
  -4  -4 -13    3.32    0.45 
   4   4  13    3.33    0.21 
  -5  -4 -13    0.04    0.25 
   5   4  13    0.34    0.14 
  -6  -4 -13    1.17    0.34 
   6   4  13    1.14    0.20 
  -7  -4 -13    4.41    0.80 
   7   4  13    4.49    0.56 
   7  -5 -13    0.20    0.35 
  -7   5  13    0.13    0.33 
   6  -5 -13    0.96    0.22 
  -6   5  13    0.58    0.27 
   5  -5 -13    6.27    0.30 
  -5   5  13    6.99    0.63 
   4  -5 -13    8.08    0.32 
  -4   5  13    8.37    0.73 
   3  -5 -13    1.99    0.22 
  -3   5  13    2.78    0.30 
   2  -5 -13    2.03    0.31 
  -2   5  13    2.05    0.29 
   1  -5 -13   12.24    0.54 
  -1   5  13   14.01    0.60 
   0  -5 -13   13.96    0.53 
   0   5  13   12.41    0.53 
  -1  -5 -13   12.76    0.56 
   1   5  13   10.93    0.49 
  -2  -5 -13    1.60    0.39 
   2   5  13    1.04    0.26 
  -3  -5 -13    1.33    0.23 
   3   5  13    1.23    0.15 
  -4  -5 -13    5.78    0.54 
   4   5  13    4.69    0.23 
  -5  -5 -13   10.15    0.69 
   5   5  13   10.24    0.34 
  -6  -5 -13    1.29    0.36 
   6   5  13    0.85    0.16 
  -7  -5 -13    0.20    0.29 
   7   5  13    0.00    0.30 
   6  -6 -13    5.03    0.54 
  -6   6  13    5.49    0.51 
   5  -6 -13    0.06    0.15 
  -5   6  13    0.09    0.23 
   4  -6 -13    3.30    0.26 
  -4   6  13    3.58    0.40 
   3  -6 -13   11.96    0.35 
  -3   6  13   13.03    0.49 
   2  -6 -13    7.78    0.40 
  -2   6  13    8.49    0.42 
   1  -6 -13    0.53    0.26 
  -1   6  13    0.63    0.31 
   0  -6 -13    0.78    0.18 
   0   6  13    0.00    0.18 
  -1  -6 -13   16.56    0.61 
   1   6  13   17.25    0.54 
  -2  -6 -13   10.92    0.51 
   2   6  13   10.01    0.45 
  -3  -6 -13    6.35    0.36 
   3   6  13    6.13    0.26 
  -4  -6 -13    0.14    0.24 
   4   6  13    0.14    0.10 
  -5  -6 -13    1.63    0.37 
   5   6  13    1.19    0.15 
  -6  -6 -13    2.97    0.44 
   6   6  13    2.60    0.20 
  -7  -6 -13    3.86    0.49 
   7   6  13    3.32    0.49 
   6  -7 -13    2.82    0.56 
  -6   7  13    3.03    0.53 
   5  -7 -13    3.43    0.33 
  -5   7  13    4.05    0.44 
   4  -7 -13    5.41    0.32 
  -4   7  13    5.70    0.53 
   3  -7 -13    0.47    0.16 
  -3   7  13    0.74    0.22 
   2  -7 -13    6.09    0.45 
  -2   7  13    7.28    0.60 
   1  -7 -13   16.55    0.67 
  -1   7  13   21.70    0.75 
   0  -7 -13    4.44    0.34 
   0   7  13    4.84    0.34 
  -1  -7 -13    0.49    0.31 
   1   7  13    0.26    0.26 
  -2  -7 -13    0.07    0.24 
   2   7  13    0.24    0.30 
  -3  -7 -13   15.19    0.49 
   3   7  13   13.95    0.35 
  -4  -7 -13    5.37    0.54 
   4   7  13    4.44    0.23 
  -5  -7 -13    2.26    0.41 
   5   7  13    2.04    0.17 
  -6  -7 -13    0.14    0.27 
   6   7  13    0.13    0.12 
  -7  -7 -13    1.66    0.38 
   7   7  13    0.89    0.27 
  -6   8  13    0.35    0.60 
   5  -8 -13    6.39    0.45 
  -5   8  13    6.36    0.53 
   4  -8 -13    4.90    0.30 
  -4   8  13    5.13    0.60 
   3  -8 -13    4.51    0.27 
  -3   8  13    4.94    0.38 
   2  -8 -13    3.40    0.38 
  -2   8  13    3.23    0.55 
   1  -8 -13    4.03    0.40 
  -1   8  13    4.05    0.46 
   0  -8 -13    8.32    0.44 
   0   8  13    8.04    0.44 
  -1  -8 -13   15.80    0.76 
   1   8  13   18.63    0.65 
  -2  -8 -13    1.04    0.29 
   2   8  13    1.73    0.39 
  -3  -8 -13    0.11    0.21 
   3   8  13    0.09    0.17 
  -4  -8 -13    0.64    0.30 
   4   8  13    0.41    0.12 
  -5  -8 -13    8.82    0.66 
   5   8  13    8.79    0.30 
  -6  -8 -13    2.30    0.42 
   6   8  13    1.40    0.16 
  -7  -8 -13    0.40    0.31 
   7   8  13    0.47    0.22 
   5  -9 -13    1.63    0.34 
  -5   9  13    1.79    0.62 
   4  -9 -13    0.24    0.27 
  -4   9  13    0.17    0.31 
   3  -9 -13   11.33    0.50 
  -3   9  13   11.79    0.61 
   2  -9 -13    7.26    0.56 
  -2   9  13    7.17    0.82 
   1  -9 -13    3.75    0.37 
  -1   9  13    4.61    0.41 
   0  -9 -13    1.08    0.21 
   0   9  13    1.11    0.21 
  -1  -9 -13    7.14    0.47 
   1   9  13    6.80    0.40 
  -2  -9 -13    7.25    0.62 
   2   9  13    7.38    0.44 
  -3  -9 -13   13.36    0.45 
   3   9  13   12.03    0.35 
  -4  -9 -13    0.59    0.40 
   4   9  13    0.19    0.16 
  -5  -9 -13    0.48    0.29 
   5   9  13    0.32    0.14 
  -6  -9 -13    1.19    0.37 
   6   9  13    1.17    0.15 
  -7  -9 -13    4.40    0.56 
   7   9  13    3.66    0.37 
   4 -10 -13    2.26    0.40 
   3 -10 -13    1.18    0.41 
  -3  10  13    0.73    0.49 
   2 -10 -13    1.99    0.51 
  -2  10  13    1.30    0.77 
   1 -10 -13   18.92    0.78 
  -1  10  13   19.02    1.00 
   0 -10 -13    5.32    0.44 
   0  10  13    7.22    0.45 
  -1 -10 -13    2.03    0.40 
   1  10  13    2.85    0.37 
  -2 -10 -13    0.00    0.59 
   2  10  13    0.14    0.37 
  -3 -10 -13    8.69    0.45 
   3  10  13    7.63    0.32 
  -4 -10 -13    5.69    0.47 
   4  10  13    5.03    0.29 
  -5 -10 -13    7.56    0.54 
   5  10  13    5.86    0.32 
  -6 -10 -13    0.11    0.27 
   6  10  13    0.37    0.13 
  -7 -10 -13    0.65    0.33 
   7  10  13    0.37    0.28 
   3 -11 -13    6.36    0.93 
  -3  11  13    7.13    7.97 
   2 -11 -13    1.39    0.66 
  -2  11  13    0.99    0.71 
   1 -11 -13    0.00    0.38 
  -1  11  13    0.00    0.46 
   0 -11 -13    4.02    0.42 
   0  11  13    2.70    0.41 
  -1 -11 -13   17.65    1.03 
   1  11  13   16.71    0.76 
  -2 -11 -13    3.62    0.87 
   2  11  13    3.77    0.56 
  -3 -11 -13    1.22    0.24 
   3  11  13    1.00    0.17 
  -4 -11 -13    0.28    0.33 
   4  11  13    0.77    0.17 
  -5 -11 -13    7.20    0.54 
   5  11  13    5.81    0.30 
  -6 -11 -13    3.58    0.44 
   6  11  13    2.59    0.23 
  -7 -11 -13    2.44    0.42 
   7  11  13    1.94    0.48 
   2 -12 -13    7.59    1.04 
  -2  12  13    8.03    1.46 
   1 -12 -13    7.65    0.89 
  -1  12  13    7.10    1.26 
   0 -12 -13    0.73    0.25 
   0  12  13    0.53    0.25 
  -1 -12 -13    0.35    0.47 
   1  12  13    0.40    0.38 
  -2 -12 -13    5.22    0.81 
   2  12  13    4.30    0.51 
  -3 -12 -13   14.01    0.67 
   3  12  13   12.81    0.52 
  -4 -12 -13    0.38    0.33 
   4  12  13    1.23    0.20 
  -5 -12 -13    0.51    0.28 
   5  12  13    0.28    0.18 
  -6 -12 -13    0.92    0.33 
   6  12  13    1.08    0.32 
  -7 -12 -13    2.97    0.57 
   7  12  13    2.38    0.54 
   1 -13 -13    3.42    1.11 
  -1  13  13    3.74    1.19 
   0 -13 -13    8.84    0.92 
   0  13  13    9.01    0.91 
  -1 -13 -13    6.32    1.34 
   1  13  13    4.73    0.87 
  -2 -13 -13    0.00    0.75 
   2  13  13    0.00    0.65 
  -3 -13 -13    1.00    0.53 
   3  13  13    0.49    0.36 
  -4 -13 -13    4.48    0.58 
   4  13  13    4.02    0.45 
  -5 -13 -13    8.36    0.61 
   5  13  13    7.81    0.47 
  -6 -13 -13    0.16    0.32 
   6  13  13    0.45    0.40 
   0 -14 -13    0.00    0.55 
   0  14  13    1.23    0.56 
  -1 -14 -13    5.53    1.27 
   1  14  13    5.63    1.11 
  -2 -14 -13    8.15    1.55 
   2  14  13    8.13    1.03 
  -3 -14 -13    2.44    8.56 
   3  14  13    4.01    0.92 
   4  14  13    0.17    0.27 
  -5 -14 -13    0.24    0.42 
   5  14  13    0.17    0.26 
  -2  -4  14    0.00    6.17 
  -1  -4  14    1.38    6.02 
   5   3 -14    0.23    0.36 
   4   3 -14    1.63    0.35 
   3   3 -14    2.15    0.49 
  -3  -3  14    1.97    0.66 
   2   3 -14    9.41    1.03 
  -2  -3  14   11.57    1.59 
   1   3 -14    2.80    0.65 
  -1  -3  14    1.47    0.94 
   0   3 -14    0.30    0.47 
   0  -3  14    0.00    0.47 
  -1   3 -14    1.89    6.47 
   6   2 -14    4.00    0.65 
   5   2 -14    4.19    0.46 
   4   2 -14    1.72    0.36 
  -4  -2  14    2.87    0.62 
   3   2 -14    0.92    0.42 
  -3  -2  14    0.93    0.53 
   2   2 -14    3.16    0.79 
  -2  -2  14    4.37    1.15 
   1   2 -14    2.20    0.70 
  -1  -2  14    3.51    0.48 
   0   2 -14   10.30    0.97 
   0  -2  14   10.91    0.95 
  -1   2 -14    3.00    0.95 
   1  -2  14    0.65    0.64 
  -2   2 -14    0.00    5.88 
   6   1 -14    0.32    0.24 
  -6  -1  14    0.83    0.50 
   5   1 -14    0.74    0.29 
  -5  -1  14    1.09    0.56 
   4   1 -14   10.35    0.65 
  -4  -1  14   10.96    1.02 
   3   1 -14    4.21    0.42 
  -3  -1  14    5.09    0.77 
   2   1 -14    3.45    0.45 
  -2  -1  14    2.03    0.53 
   1   1 -14    0.51    0.38 
  -1  -1  14    0.07    0.37 
   0   1 -14    5.94    0.51 
   0  -1  14    5.21    0.50 
  -1   1 -14    2.10    0.48 
   1  -1  14    4.28    0.69 
  -2   1 -14   11.10    1.59 
   2  -1  14   11.02    1.01 
   3  -1  14    0.62    0.44 
   6   0 -14    2.63    0.35 
  -6   0  14    3.77    0.81 
   5   0 -14    9.04    0.59 
  -5   0  14    7.96    0.70 
   4   0 -14    0.14    0.19 
  -4   0  14    0.00    0.36 
   3   0 -14    1.78    0.32 
  -3   0  14    1.56    0.55 
   2   0 -14   13.81    0.78 
  -2   0  14   18.93    0.94 
   1   0 -14    2.81    0.44 
  -1   0  14    5.18    0.45 
   0   0 -14    2.42    0.36 
   0   0  14    1.85    0.35 
  -1   0 -14    0.69    0.37 
   1   0  14    0.46    0.38 
  -2   0 -14    4.98    1.15 
   2   0  14    6.57    0.78 
  -3   0 -14    2.21    0.66 
   3   0  14    1.88    0.49 
   4   0  14    5.30    0.53 
   6  -1 -14    3.43    0.39 
  -6   1  14    3.50    0.51 
   5  -1 -14    0.16    0.23 
  -5   1  14    0.70    0.33 
   4  -1 -14    3.52    0.30 
  -4   1  14    5.28    0.78 
   3  -1 -14    7.02    0.40 
  -3   1  14    7.81    0.89 
   2  -1 -14    0.19    0.40 
  -2   1  14    0.19    0.36 
   1  -1 -14    3.30    0.49 
  -1   1  14    4.42    0.49 
   0  -1 -14   16.21    0.80 
   0   1  14   17.80    0.79 
  -1  -1 -14    0.67    0.45 
   1   1  14    2.55    0.43 
  -2  -1 -14    1.12    0.52 
   2   1  14    0.00    0.45 
  -3  -1 -14    1.91    0.61 
   3   1  14    1.14    0.45 
  -4  -1 -14    4.10    0.76 
   4   1  14    3.33    0.44 
   6  -2 -14    2.95    0.36 
  -6   2  14    3.93    0.54 
   5  -2 -14    0.11    0.20 
  -5   2  14    0.12    0.28 
   4  -2 -14    9.57    0.43 
  -4   2  14   10.64    0.75 
   3  -2 -14    0.58    0.20 
  -3   2  14    0.29    0.31 
   2  -2 -14    5.13    0.47 
  -2   2  14    4.91    0.40 
   1  -2 -14    3.86    0.42 
  -1   2  14    3.58    0.35 
   0  -2 -14    0.72    0.22 
   0   2  14    0.76    0.21 
  -1  -2 -14    4.89    0.50 
   1   2  14    6.29    0.49 
  -2  -2 -14   12.15    0.94 
   2   2  14   15.13    0.77 
  -3  -2 -14    0.38    0.44 
   3   2  14    0.83    0.27 
  -4  -2 -14    0.00    0.43 
   4   2  14    0.00    0.23 
   5   2  14    1.69    0.34 
   6  -3 -14    3.92    0.36 
  -6   3  14    3.88    0.54 
   5  -3 -14    2.55    0.25 
  -5   3  14    3.14    0.48 
   4  -3 -14    3.24    0.26 
  -4   3  14    3.54    0.50 
   3  -3 -14    1.95    0.24 
  -3   3  14    1.82    0.31 
   2  -3 -14   17.92    0.86 
  -2   3  14   21.09    0.82 
   1  -3 -14    1.21    0.31 
  -1   3  14    0.81    0.30 
   0  -3 -14    3.65    0.34 
   0   3  14    3.92    0.34 
  -1  -3 -14    1.70    0.35 
   1   3  14    1.38    0.42 
  -2  -3 -14    0.93    0.36 
   2   3  14    1.60    0.40 
  -3  -3 -14    5.84    0.81 
   3   3  14    5.01    0.41 
  -4  -3 -14    7.70    1.00 
   4   3  14    6.85    0.39 
  -5  -3 -14    1.43    0.53 
   5   3  14    0.00    0.22 
   6   3  14    0.21    0.25 
   6  -4 -14    0.09    0.19 
  -6   4  14    0.00    0.44 
   5  -4 -14    3.48    0.31 
  -5   4  14    3.94    0.53 
   4  -4 -14    7.05    0.36 
  -4   4  14    7.61    0.66 
   3  -4 -14    3.57    0.31 
  -3   4  14    3.22    0.37 
   2  -4 -14    1.88    0.37 
  -2   4  14    2.09    0.39 
   1  -4 -14    4.45    0.45 
  -1   4  14    6.84    0.45 
   0  -4 -14   22.24    0.75 
   0   4  14   22.36    0.74 
  -1  -4 -14    0.48    0.30 
   1   4  14    0.09    0.31 
  -2  -4 -14    1.38    0.40 
   2   4  14    1.40    0.47 
  -3  -4 -14    0.61    0.46 
   3   4  14    0.03    0.16 
  -4  -4 -14    1.20    0.53 
   4   4  14    1.21    0.22 
  -5  -4 -14    3.69    0.52 
   5   4  14    3.17    0.38 
  -6  -4 -14    3.06    0.71 
   6   4  14    2.42    0.35 
   6  -5 -14    2.43    0.35 
  -6   5  14    2.43    0.48 
   5  -5 -14    0.49    0.21 
  -5   5  14    1.05    0.37 
   4  -5 -14    1.22    0.20 
  -4   5  14    1.73    0.52 
   3  -5 -14    7.61    0.42 
  -3   5  14    8.40    0.59 
   2  -5 -14   10.26    0.52 
  -2   5  14   10.56    0.57 
   1  -5 -14    2.70    0.29 
  -1   5  14    1.98    0.33 
   0  -5 -14    0.51    0.19 
   0   5  14    0.56    0.18 
  -1  -5 -14    7.33    0.45 
   1   5  14   10.08    0.44 
  -2  -5 -14   19.11    0.83 
   2   5  14   20.59    0.85 
  -3  -5 -14    0.37    0.33 
   3   5  14    0.02    0.15 
  -4  -5 -14    0.31    0.28 
   4   5  14    0.27    0.17 
  -5  -5 -14    1.40    0.39 
   5   5  14    0.36    0.26 
  -6  -5 -14    1.11    0.37 
   6   5  14    1.03    0.27 
   6  -6 -14    4.60    0.46 
  -6   6  14    3.80    0.61 
   5  -6 -14    5.06    0.38 
  -5   6  14    5.86    0.51 
   4  -6 -14    2.58    0.28 
  -4   6  14    3.32    0.50 
   3  -6 -14    0.14    0.23 
  -3   6  14    0.00    0.28 
   2  -6 -14    4.71    0.73 
  -2   6  14    5.39    0.57 
   1  -6 -14   11.66    0.56 
  -1   6  14   12.13    0.58 
   0  -6 -14    9.10    0.47 
   0   6  14    8.77    0.47 
  -1  -6 -14    1.45    0.33 
   1   6  14    0.65    0.29 
  -2  -6 -14    0.14    0.39 
   2   6  14    0.28    0.37 
  -3  -6 -14   11.94    0.60 
   3   6  14   10.99    0.36 
  -4  -6 -14   15.12    0.82 
   4   6  14   12.53    0.47 
  -5  -6 -14    0.06    0.27 
   5   6  14    0.04    0.13 
  -6  -6 -14    0.24    0.28 
   6   6  14    0.18    0.17 
   7   6  14    0.71    0.37 
   5  -7 -14    0.60    0.35 
  -5   7  14    1.02    0.56 
   4  -7 -14    9.08    0.59 
  -4   7  14    9.93    0.91 
   3  -7 -14    7.83    0.42 
  -3   7  14    8.46    0.68 
   2  -7 -14    3.60    0.55 
  -2   7  14    2.52    0.67 
   1  -7 -14    0.00    0.38 
  -1   7  14    0.69    0.37 
   0  -7 -14    8.73    0.52 
   0   7  14    9.09    0.51 
  -1  -7 -14   13.10    0.59 
   1   7  14   12.00    0.56 
  -2  -7 -14    5.99    0.58 
   2   7  14    4.46    0.51 
  -3  -7 -14    0.10    0.24 
   3   7  14    0.06    0.15 
  -4  -7 -14    0.01    0.26 
   4   7  14    0.03    0.13 
  -5  -7 -14   11.32    0.76 
   5   7  14    9.23    0.34 
  -6  -7 -14    5.70    0.60 
   6   7  14    6.83    0.38 
  -7  -7 -14    0.17    0.42 
   7   7  14    0.00    0.30 
   5  -8 -14    3.80    0.44 
  -5   8  14    3.45    0.81 
   4  -8 -14    0.09    0.26 
  -4   8  14    0.24    0.31 
   3  -8 -14    3.06    0.35 
  -3   8  14    2.30    0.43 
   2  -8 -14   14.52    0.89 
  -2   8  14   14.12    1.09 
   1  -8 -14    8.53    0.59 
  -1   8  14    7.68    0.56 
   0  -8 -14    1.11    0.29 
   0   8  14    2.68    0.29 
  -1  -8 -14    0.27    0.37 
   1   8  14    0.94    0.37 
  -2  -8 -14    9.99    0.58 
   2   8  14   10.36    0.71 
  -3  -8 -14    9.60    0.55 
   3   8  14    8.38    0.44 
  -4  -8 -14    3.13    0.47 
   4   8  14    2.56    0.23 
  -5  -8 -14    0.15    0.27 
   5   8  14    0.20    0.13 
  -6  -8 -14    0.05    0.28 
   6   8  14    0.22    0.17 
  -7  -8 -14    6.36    0.92 
   7   8  14    6.12    0.70 
   4  -9 -14    9.65    0.67 
   3  -9 -14    2.16    0.48 
  -3   9  14    2.63    0.48 
   2  -9 -14    0.00    0.47 
  -2   9  14    0.54    0.73 
   1  -9 -14    6.19    0.59 
  -1   9  14    7.09    0.67 
   0  -9 -14   12.94    0.73 
   0   9  14   14.88    0.72 
  -1  -9 -14    5.22    0.57 
   1   9  14    4.96    0.57 
  -2  -9 -14    0.21    0.71 
   2   9  14    0.00    0.53 
  -3  -9 -14    1.90    0.40 
   3   9  14    1.78    0.31 
  -4  -9 -14   11.11    0.87 
   4   9  14    8.82    0.36 
  -5  -9 -14    4.46    0.56 
   5   9  14    4.14    0.26 
  -6  -9 -14    1.39    0.39 
   6   9  14    0.75    0.20 
  -7  -9 -14    0.03    0.40 
   7   9  14    0.00    0.33 
   3 -10 -14    3.25    0.51 
  -3  10  14    3.37    0.72 
   2 -10 -14    9.51    0.95 
  -2  10  14   11.82    0.99 
   1 -10 -14    1.42    0.37 
  -1  10  14    1.52    0.49 
   0 -10 -14    1.86    0.30 
   0  10  14    0.84    0.30 
  -1 -10 -14    6.41    0.69 
   1  10  14    6.78    0.57 
  -2 -10 -14   11.40    1.15 
   2  10  14    8.74    0.86 
  -3 -10 -14    1.94    0.43 
   3  10  14    1.83    0.28 
  -4 -10 -14    0.44    0.32 
   4  10  14    0.32    0.21 
  -5 -10 -14    2.19    0.37 
   5  10  14    1.23    0.24 
  -6 -10 -14    5.49    0.62 
   6  10  14    5.58    0.42 
   7  10  14    1.92    0.47 
  -3  11  14    0.00    7.88 
   2 -11 -14    6.24    0.92 
  -2  11  14    7.21    1.41 
   1 -11 -14    3.61    0.74 
  -1  11  14    3.88    1.08 
   0 -11 -14    8.66    0.60 
   0  11  14    7.71    0.59 
  -1 -11 -14    0.12    0.50 
   1  11  14    0.41    0.37 
  -2 -11 -14    2.89    0.77 
   2  11  14    2.33    0.47 
  -3 -11 -14    5.38    0.58 
   3  11  14    6.29    0.45 
  -4 -11 -14    6.19    0.81 
   4  11  14    5.16    0.48 
  -5 -11 -14    0.14    0.26 
   5  11  14    0.39    0.24 
  -6 -11 -14    0.33    0.37 
   6  11  14    0.12    0.23 
  -2  12  14    0.66    6.93 
   1 -12 -14    3.96    1.03 
  -1  12  14    2.30    1.09 
   0 -12 -14    6.91    0.67 
   0  12  14    7.45    0.68 
  -1 -12 -14    3.49    1.14 
   1  12  14    2.56    0.73 
  -2 -12 -14    4.56    1.05 
   2  12  14    4.99    0.94 
  -3 -12 -14    0.15    0.36 
   3  12  14    0.18    0.34 
  -4 -12 -14    3.32    0.53 
   4  12  14    2.60    0.40 
  -5 -12 -14    3.65    0.47 
   5  12  14    3.49    0.39 
  -6 -12 -14    2.97    0.53 
   6  12  14    2.02    0.36 
   0 -13 -14    0.80    0.44 
   0  13  14    1.05    0.44 
  -1 -13 -14    3.51    1.16 
   1  13  14    2.93    1.03 
  -2 -13 -14    5.99    1.49 
   2  13  14    5.99    0.91 
  -3 -13 -14    1.35    0.63 
   3  13  14    0.99    0.44 
   4  13  14    2.11    0.38 
  -5 -13 -14    0.00    0.37 
   5  13  14    0.13    0.26 
  -2 -14 -14    0.23    7.45 
  -3 -14 -14    5.98    8.47 
   2   2 -15    0.24    0.90 
  -2  -2  15    0.76    6.40 
   1   2 -15    1.53    5.97 
  -1  -2  15    0.52    0.85 
   0   2 -15    1.58    4.62 
   0  -2  15    1.52    4.41 
   4   1 -15    0.57    0.31 
   3   1 -15    1.17    0.41 
   2   1 -15    1.83    1.08 
  -2  -1  15    5.61    1.26 
   1   1 -15    2.35    0.74 
  -1  -1  15    1.43    0.75 
   0   1 -15    0.65    0.36 
   0  -1  15    0.22    0.36 
  -1   1 -15    0.58    0.84 
   1  -1  15    1.23    5.70 
   5   0 -15    4.09    0.46 
   4   0 -15    1.20    0.32 
  -4   0  15    0.60    0.58 
   3   0 -15    3.72    0.56 
  -3   0  15    4.27    0.74 
   2   0 -15    0.00    0.81 
  -2   0  15    1.19    0.67 
   1   0 -15    4.08    0.78 
  -1   0  15    4.45    0.56 
   0   0 -15    4.39    0.74 
   0   0  15    5.65    0.73 
  -1   0 -15    6.34    0.77 
   1   0  15    5.31    0.73 
  -2   0 -15    0.07    6.10 
   2   0  15    0.57    0.90 
   5  -1 -15    0.11    0.25 
   4  -1 -15    1.88    0.37 
  -4   1  15    1.36    0.59 
   3  -1 -15    8.17    0.64 
  -3   1  15   10.20    1.03 
   2  -1 -15    1.46    0.62 
  -2   1  15    1.19    0.66 
   1  -1 -15    2.36    0.46 
  -1   1  15    2.96    0.46 
   0  -1 -15    0.00    0.21 
   0   1  15    0.52    0.21 
  -1  -1 -15    6.07    0.56 
   1   1  15    6.20    0.77 
  -2  -1 -15    4.57    1.25 
   2   1  15    5.89    1.08 
   3   1  15    2.13    0.59 
   5  -2 -15   10.72    0.65 
   4  -2 -15    2.00    0.37 
  -4   2  15    3.15    0.71 
   3  -2 -15    0.00    0.23 
  -3   2  15    0.15    0.46 
   2  -2 -15    4.30    0.63 
  -2   2  15    6.71    0.94 
   1  -2 -15   11.62    0.74 
  -1   2  15   13.04    0.75 
   0  -2 -15    1.38    0.33 
   0   2  15    1.93    0.33 
  -1  -2 -15    2.04    0.47 
   1   2  15    2.48    0.45 
  -2  -2 -15    0.00    0.68 
   2   2  15    0.49    0.81 
  -3  -2 -15    6.07    0.88 
   3   2  15    4.86    0.59 
   4   2  15    4.09    0.49 
   5  -3 -15    1.53    0.34 
  -5   3  15    0.58    0.53 
   4  -3 -15    2.82    0.40 
  -4   3  15    2.61    0.64 
   3  -3 -15   15.65    0.63 
  -3   3  15   17.17    1.24 
   2  -3 -15    0.45    0.47 
  -2   3  15    1.26    0.52 
   1  -3 -15    1.50    0.39 
  -1   3  15    0.54    0.40 
   0  -3 -15    9.55    0.61 
   0   3  15    8.57    0.60 
  -1  -3 -15   12.34    0.75 
   1   3  15   13.95    0.73 
  -2  -3 -15    0.42    0.68 
   2   3  15    0.00    0.61 
  -3  -3 -15    1.19    0.58 
   3   3  15    0.58    0.39 
  -4  -3 -15    1.51    0.64 
   4   3  15    1.68    0.37 
   5  -4 -15    4.01    0.39 
  -5   4  15    5.55    0.97 
   4  -4 -15    0.56    0.28 
  -4   4  15    0.79    0.53 
   3  -4 -15    2.12    0.31 
  -3   4  15    2.06    0.60 
   2  -4 -15    4.01    0.59 
  -2   4  15    4.66    0.61 
   1  -4 -15   13.73    0.81 
  -1   4  15   18.95    0.84 
   0  -4 -15    0.76    0.25 
   0   4  15    0.62    0.25 
  -1  -4 -15    1.38    0.40 
   1   4  15    0.30    0.39 
  -2  -4 -15   10.72    0.96 
   2   4  15   11.84    0.63 
  -3  -4 -15    8.91    1.06 
   3   4  15    8.10    0.63 
  -4  -4 -15    0.26    0.51 
   4   4  15    0.12    0.26 
   5   4  15    0.01    0.25 
   5  -5 -15    4.64    0.42 
  -5   5  15    5.99    1.01 
   4  -5 -15    3.79    0.39 
  -4   5  15    5.65    0.88 
   3  -5 -15    3.91    0.37 
  -3   5  15    4.05    0.72 
   2  -5 -15    2.46    0.59 
  -2   5  15    3.63    0.88 
   1  -5 -15    3.24    0.46 
  -1   5  15    2.68    0.45 
   0  -5 -15    4.25    0.48 
   0   5  15    5.61    0.48 
  -1  -5 -15   14.82    0.84 
   1   5  15   18.11    0.80 
  -2  -5 -15    0.46    0.53 
   2   5  15    0.00    0.47 
  -3  -5 -15    2.39    0.66 
   3   5  15    1.61    0.30 
  -4  -5 -15   10.32    1.12 
   4   5  15    8.94    0.63 
   5   5  15    3.47    0.43 
   5  -6 -15    0.00    0.25 
  -5   6  15    0.72    0.50 
   4  -6 -15    4.26    0.42 
  -4   6  15    6.85    0.95 
   3  -6 -15    7.03    0.63 
  -3   6  15    7.75    0.69 
   2  -6 -15    5.77    0.53 
  -2   6  15    4.85    0.79 
   1  -6 -15    2.43    0.36 
  -1   6  15    1.89    0.42 
   0  -6 -15    7.82    0.49 
   0   6  15    5.78    0.48 
  -1  -6 -15    3.05    0.46 
   1   6  15    2.52    0.45 
  -2  -6 -15    2.89    0.63 
   2   6  15    3.63    0.59 
  -3  -6 -15    9.89    1.09 
   3   6  15    7.66    0.49 
  -4  -6 -15    0.00    0.48 
   4   6  15    0.00    0.22 
  -5  -6 -15    1.91    0.64 
   5   6  15    1.13    0.32 
  -6  -6 -15    6.77    0.99 
   6   6  15    6.22    0.77 
   4  -7 -15    2.76    0.41 
   3  -7 -15    0.34    0.38 
  -3   7  15    0.17    0.33 
   2  -7 -15    8.79    0.83 
  -2   7  15    9.74    1.01 
   1  -7 -15    5.82    0.50 
  -1   7  15    5.76    0.57 
   0  -7 -15    3.87    0.47 
   0   7  15    4.76    0.47 
  -1  -7 -15    0.41    0.42 
   1   7  15    0.18    0.36 
  -2  -7 -15    9.70    0.93 
   2   7  15   10.16    0.59 
  -3  -7 -15    1.21    0.55 
   3   7  15    1.55    0.28 
  -4  -7 -15    1.27    0.57 
   4   7  15    1.08    0.31 
  -5  -7 -15    3.89    0.54 
   5   7  15    3.37    0.42 
  -6  -7 -15    0.00    0.38 
   6   7  15    0.18    0.24 
   4  -8 -15    1.42    0.50 
   3  -8 -15    2.89    0.84 
  -3   8  15    5.09    0.59 
   2  -8 -15    0.19    1.05 
  -2   8  15    1.03    0.70 
   1  -8 -15    1.54    0.46 
  -1   8  15    1.49    0.65 
   0  -8 -15   11.20    0.78 
   0   8  15   10.75    0.76 
  -1  -8 -15    6.23    0.58 
   1   8  15    5.46    0.50 
  -2  -8 -15    2.57    0.84 
   2   8  15    2.03    0.53 
  -3  -8 -15    0.00    0.31 
   3   8  15    0.07    0.19 
  -4  -8 -15    8.88    1.03 
   4   8  15    8.97    0.53 
  -5  -8 -15    0.29    0.32 
   5   8  15    0.86    0.30 
  -6  -8 -15    0.58    0.48 
   6   8  15    0.26    0.25 
   3  -9 -15    6.40    0.75 
  -3   9  15    8.20    1.06 
   2  -9 -15    1.92    1.18 
  -2   9  15    2.80    1.10 
   1  -9 -15    3.48    0.56 
  -1   9  15    2.71    0.67 
   0  -9 -15    0.34    0.21 
   0   9  15    0.00    0.21 
  -1  -9 -15    2.04    0.69 
   1   9  15    1.93    0.44 
  -2  -9 -15    9.12    1.07 
   2   9  15    9.66    0.81 
  -3  -9 -15    1.91    0.44 
   3   9  15    2.86    0.40 
  -4  -9 -15    0.40    0.55 
   4   9  15    0.45    0.25 
  -5  -9 -15    0.32    0.34 
   5   9  15    0.70    0.24 
  -6  -9 -15    6.69    0.96 
   6   9  15    6.35    0.52 
  -3  10  15    0.07    0.51 
   2 -10 -15    5.18    8.25 
  -2  10  15    3.15    1.34 
   1 -10 -15    7.63    1.40 
  -1  10  15    7.74    1.39 
   0 -10 -15    2.16    0.42 
   0  10  15    1.82    0.42 
  -1 -10 -15    1.56    0.72 
   1  10  15    0.63    0.54 
  -2 -10 -15    0.00    0.74 
   2  10  15    0.79    0.99 
  -3 -10 -15    3.38    0.52 
   3  10  15    3.28    0.76 
  -4 -10 -15    6.00    0.88 
   4  10  15    5.52    0.47 
  -5 -10 -15    0.10    0.43 
   5  10  15    0.36    0.23 
  -6 -10 -15    0.02    0.45 
   6  10  15    0.43    0.33 
  -2  11  15    0.50    6.73 
   1 -11 -15    0.00    5.50 
  -1  11  15    0.00    0.92 
   0 -11 -15    5.84    0.82 
   0  11  15    7.64    0.81 
  -1 -11 -15   10.42    1.47 
   1  11  15    7.42    1.32 
  -2 -11 -15    1.21    1.17 
   2  11  15    1.41    1.11 
  -3 -11 -15    0.32    0.37 
   3  11  15    0.00    0.33 
  -4 -11 -15    0.79    0.58 
   4  11  15    1.32    0.45 
  -5 -11 -15    3.53    0.75 
   5  11  15    2.93    0.42 
   0 -12 -15    0.00    0.32 
   0  12  15    0.00    0.32 
  -1 -12 -15    0.26    0.97 
   1  12  15    0.00    5.24 
  -2 -12 -15    8.78    1.42 
   2  12  15    6.56    7.87 
  -3 -12 -15    4.33    0.81 
   3  12  15    5.66    0.70 
   4  12  15    0.05    0.28 
  -5 -12 -15    0.16    0.42 
   5  12  15    0.08    0.38 
  -2 -13 -15    0.10    7.23 
  -3 -13 -15    0.62    0.61 
  -1   0  16    2.01    1.11 
   0   0 -16    0.26    3.21 
   0   0  16    0.27    3.07 
   3  -1 -16    0.03    0.32 
   2  -1 -16    0.02    0.92 
   1  -1 -16    2.69    0.76 
  -1   1  16    5.41    1.09 
   0  -1 -16    4.39    0.76 
   0   1  16    4.68    0.75 
  -1  -1 -16    6.51    1.11 
   3  -2 -16    4.63    0.54 
   2  -2 -16    5.23    1.03 
  -2   2  16    4.86    1.11 
   1  -2 -16    0.00    0.59 
  -1   2  16    0.69    0.59 
   0  -2 -16    0.61    0.41 
   0   2  16    1.04    0.41 
  -1  -2 -16    2.38    1.09 
   1   2  16    3.94    0.74 
   4  -3 -16    1.58    0.36 
   3  -3 -16    1.52    0.37 
  -3   3  16    3.30    0.72 
   2  -3 -16    4.53    1.04 
  -2   3  16    4.07    1.11 
   1  -3 -16    4.54    0.75 
  -1   3  16    5.33    0.74 
   0  -3 -16    3.90    0.63 
   0   3  16    2.58    0.62 
  -1  -3 -16    0.41    0.59 
   1   3  16    1.02    0.58 
   2   3  16    1.69    0.93 
   3   3  16    1.60    0.58 
   4  -4 -16    4.83    0.53 
   3  -4 -16    0.97    0.34 
  -3   4  16    1.12    0.59 
   2  -4 -16    0.58    0.86 
  -2   4  16    0.40    0.94 
   1  -4 -16    4.29    0.80 
  -1   4  16    4.81    0.65 
   0  -4 -16    4.03    0.52 
   0   4  16    3.17    0.52 
  -1  -4 -16    2.32    0.75 
   1   4  16    3.85    0.73 
  -2  -4 -16    0.99    1.18 
   2   4  16    0.68    1.03 
   3   4  16    0.95    0.43 
   4  -5 -16    1.32    0.35 
   3  -5 -16    5.88    0.58 
  -3   5  16    4.40    0.75 
   2  -5 -16    7.15    1.05 
  -2   5  16    5.79    1.13 
   1  -5 -16    0.48    0.55 
  -1   5  16    0.24    0.45 
   0  -5 -16    0.00    0.23 
   0   5  16    0.00    0.22 
  -1  -5 -16    5.71    0.65 
   1   5  16    6.43    0.79 
  -2  -5 -16    2.44    1.18 
   2   5  16    2.16    1.04 
  -3  -5 -16    1.06    0.63 
   3   5  16    2.31    0.43 
   4   5  16    0.63    0.31 
   3  -6 -16    0.15    0.30 
   2  -6 -16    3.68    1.06 
  -2   6  16    2.16    1.08 
   1  -6 -16    7.62    0.97 
  -1   6  16    9.77    0.78 
   0  -6 -16    4.12    0.47 
   0   6  16    3.51    0.46 
  -1  -6 -16    0.28    0.45 
   1   6  16    0.05    0.54 
  -2  -6 -16    0.41    1.00 
   2   6  16    0.23    0.86 
  -3  -6 -16    6.53    0.94 
   3   6  16    6.82    0.63 
   4   6  16    1.66    0.37 
   3  -7 -16    2.74    0.46 
   2  -7 -16    2.82    0.73 
  -2   7  16    2.74    1.06 
   1  -7 -16    2.47    0.56 
  -1   7  16    2.17    0.70 
   0  -7 -16    3.36    0.38 
   0   7  16    1.54    0.38 
  -1  -7 -16    9.19    0.78 
   1   7  16   11.31    0.95 
  -2  -7 -16    1.95    1.20 
   2   7  16    0.00    1.05 
  -3  -7 -16    0.00    0.54 
   3   7  16    0.00    0.27 
   4   7  16    1.38    0.35 
   2  -8 -16    4.20    0.80 
  -2   8  16    6.17    7.36 
   1  -8 -16    2.61    0.72 
  -1   8  16    3.04    0.70 
   0  -8 -16    1.74    0.31 
   0   8  16    0.33    0.30 
  -1  -8 -16    2.94    0.71 
   1   8  16    2.43    0.54 
  -2  -8 -16    2.53    1.14 
   2   8  16    2.05    1.06 
  -3  -8 -16    8.53    1.11 
   3   8  16    7.21    0.62 
   4   8  16    0.77    0.32 
   2  -9 -16    1.82    6.95 
  -2   9  16    3.09    7.29 
   1  -9 -16    8.55    1.58 
  -1   9  16    7.87    1.41 
   0  -9 -16    3.20    0.67 
   0   9  16    3.00    0.63 
  -1  -9 -16    1.32    0.71 
   1   9  16    2.31    0.71 
  -2  -9 -16    0.09    1.12 
   2   9  16    0.79    0.72 
  -3  -9 -16    4.64    0.88 
   3   9  16    3.49    0.46 
   4   9  16    1.46    0.30 
   1 -10 -16    0.00    5.42 
  -1  10  16    3.32    0.89 
   0 -10 -16    2.76    0.64 
   0  10  16    2.64    0.61 
  -1 -10 -16   11.18    1.50 
   1  10  16   10.22    1.49 
  -2 -10 -16    2.01    7.91 
   2  10  16    0.12    0.78 
   3  10  16    1.60    0.40 
   4  10  16    0.35    0.31 
   0 -11 -16    7.75    1.05 
   0  11  16    1.70    1.04 
   1  11  16    0.00    5.17 
  -2 -11 -16    2.74    7.83 
   2  11  16    3.29    6.63 
  -1   3  17    0.94    5.89 
   0  -3 -17    6.11    1.16 
   0   3  17    3.89    1.15 
  -2   4  17    4.16    7.41 
   1  -4 -17    0.83    4.93 
  -1   4  17    1.24    0.87 
   0  -4 -17    0.75    0.54 
   0   4  17    0.19    0.54 
  -1  -4 -17    0.85    5.62 
  -2   5  17    2.76    7.22 
   1  -5 -17    2.19    1.05 
  -1   5  17    5.68    1.14 
   0  -5 -17    4.06    0.69 
   0   5  17    2.74    0.68 
  -1  -5 -17    0.62    0.86 
   1   5  17    0.38    5.29 
  -2   6  17    3.06    6.66 
   1  -6 -17    0.65    0.82 
  -1   6  17    0.66    0.83 
   0  -6 -17    5.74    0.77 
   0   6  17    4.29    0.75 
  -1  -6 -17    3.97    1.14 
   1   6  17    4.86    1.05 
  -2  -6 -17    3.21    7.96 
   1  -7 -17    3.41    6.35 
  -1   7  17    3.25    1.03 
   0  -7 -17    2.47    0.56 
   0   7  17    1.79    0.55 
  -1  -7 -17    0.00    0.82 
   1   7  17    0.00    0.82 
  -2  -7 -17    4.73    7.76 
  -1   8  17    1.04    6.49 
   0  -8 -17    4.92    1.03 
   0   8  17    3.96    1.02 
  -1  -8 -17    3.50    1.04 
   1   8  17    3.08    6.83 
  -2  -8 -17    1.34    7.15 
   0  -9 -17    0.89    3.67 
   0   9  17    0.97    3.94 
  -1  -9 -17    1.80    6.19 
   0   0   0    0.00    0.00 
;
_shelx_hkl_checksum              54242
loop_
_space_group_symop_operation_xyz
'x, y, z'
'-x, -y, -z'
loop_
_atom_site_label
_atom_site_type_symbol
_atom_site_fract_x
_atom_site_fract_y
_atom_site_fract_z
_atom_site_U_iso_or_equiv
_atom_site_adp_type
_atom_site_occupancy
_atom_site_site_symmetry_order
_atom_site_calc_flag
_atom_site_refinement_flags_posn
_atom_site_refinement_flags_adp
_atom_site_refinement_flags_occupancy
_atom_site_disorder_assembly
_atom_site_disorder_group
I1 I 0.61128(2) 0.81184(2) 0.76371(2) 0.01816(3) Uani 0.9942(3) 1 d . . P A 1
I1' I 0.504(3) 0.8045(16) 0.7670(15) 0.01816(3) Uani 0.0058(3) 1 d . . P A 2
S1 S 0.91637(5) 0.19785(4) 0.87866(3) 0.01956(6) Uani 1 1 d . . . . .
N1 N 0.88186(16) 0.28631(12) 0.58772(11) 0.01439(16) Uani 1 1 d . . . . .
N2 N 0.74191(15) 0.49444(11) 0.64794(10) 0.01229(15) Uani 1 1 d . . . . .
H2 H 0.697(3) 0.559(2) 0.697(2) 0.028(5) Uiso 1 1 d . . . . .
C1 C 0.84264(17) 0.33381(13) 0.69990(12) 0.01297(17) Uani 1 1 d . . . . .
C2 C 0.80067(17) 0.42152(14) 0.45772(12) 0.01377(17) Uani 1 1 d . . . . .
C3 C 0.7966(2) 0.43875(17) 0.31170(14) 0.0192(2) Uani 1 1 d . . . . .
H3 H 0.8549 0.3482 0.2853 0.023 Uiso 1 1 calc R U . . .
C4 C 0.7033(2) 0.59423(19) 0.20756(14) 0.0224(2) Uani 1 1 d . . . . .
H4 H 0.6972 0.6111 0.1068 0.027 Uiso 1 1 calc R U . . .
C5 C 0.61702(19) 0.72832(17) 0.24645(13) 0.0209(2) Uani 1 1 d . . . . .
H5 H 0.5554 0.8335 0.1713 0.025 Uiso 1 1 calc R U . . .
C6 C 0.61936(19) 0.71135(15) 0.39132(13) 0.01666(19) Uani 1 1 d . . . . .
H6 H 0.5603 0.8017 0.4178 0.020 Uiso 1 1 calc R U . . .
C7 C 0.71327(17) 0.55416(13) 0.49591(12) 0.01247(17) Uani 1 1 d . . . . .
C8 C 0.9901(2) 0.11964(16) 0.60136(17) 0.0245(3) Uani 1 1 d . . . . .
H8A H 1.1017 0.0630 0.6853 0.037 Uiso 1 1 calc R U . . .
H8B H 1.0547 0.1202 0.5118 0.037 Uiso 1 1 calc R U . . .
H8C H 0.8864 0.0638 0.6162 0.037 Uiso 1 1 calc R U . . .
C9 C 0.8327(2) 0.33075(19) 0.97551(15) 0.0252(3) Uani 1 1 d . . . . .
H9A H 0.9008 0.4131 0.9418 0.038 Uiso 1 1 calc R U . . .
H9B H 0.8748 0.2674 1.0809 0.038 Uiso 1 1 calc R U . . .
H9C H 0.6772 0.3840 0.9565 0.038 Uiso 1 1 calc R U . . .
loop_
_atom_site_aniso_label
_atom_site_aniso_U_11
_atom_site_aniso_U_22
_atom_site_aniso_U_33
_atom_site_aniso_U_23
_atom_site_aniso_U_13
_atom_site_aniso_U_12
I1 0.02379(5) 0.01241(4) 0.01565(4) -0.00574(3) 0.00286(3) -0.00276(3)
I1' 0.02379(5) 0.01241(4) 0.01565(4) -0.00574(3) 0.00286(3) -0.00276(3)
S1 0.02332(14) 0.01466(13) 0.01416(12) 0.00103(10) -0.00077(10) -0.00609(10)
N1 0.0155(4) 0.0118(4) 0.0160(4) -0.0063(3) 0.0029(3) -0.0039(3)
N2 0.0147(4) 0.0113(4) 0.0106(4) -0.0043(3) 0.0015(3) -0.0043(3)
C1 0.0137(4) 0.0113(4) 0.0125(4) -0.0031(3) 0.0013(3) -0.0045(3)
C2 0.0127(4) 0.0170(5) 0.0136(4) -0.0072(4) 0.0028(3) -0.0063(3)
C3 0.0187(5) 0.0288(6) 0.0159(5) -0.0132(5) 0.0048(4) -0.0107(4)
C4 0.0185(5) 0.0389(7) 0.0117(5) -0.0084(5) 0.0028(4) -0.0142(5)
C5 0.0176(5) 0.0257(6) 0.0128(5) 0.0018(4) -0.0021(4) -0.0099(4)
C6 0.0153(5) 0.0150(5) 0.0156(5) -0.0013(4) -0.0005(3) -0.0057(3)
C7 0.0124(4) 0.0139(4) 0.0109(4) -0.0039(3) 0.0010(3) -0.0053(3)
C8 0.0281(6) 0.0158(5) 0.0313(7) -0.0128(5) 0.0066(5) -0.0058(4)
C9 0.0311(7) 0.0304(7) 0.0136(5) -0.0079(5) 0.0032(4) -0.0110(5)
loop_
_atom_type_symbol
_atom_type_description
_atom_type_scat_dispersion_real
_atom_type_scat_dispersion_imag
_atom_type_scat_source
C C 0.0033 0.0016 'International Tables Vol C Tables 4.2.6.8 and 6.1.1.4'
H H 0.0000 0.0000 'International Tables Vol C Tables 4.2.6.8 and 6.1.1.4'
N N 0.0061 0.0033 'International Tables Vol C Tables 4.2.6.8 and 6.1.1.4'
S S 0.1246 0.1234 'International Tables Vol C Tables 4.2.6.8 and 6.1.1.4'
I I -0.4742 1.8119 'International Tables Vol C Tables 4.2.6.8 and 6.1.1.4'
loop_
_geom_angle_atom_site_label_1
_geom_angle_atom_site_label_2
_geom_angle_atom_site_label_3
_geom_angle
C1 S1 C9 101.35(6)
C1 N1 C2 108.58(9)
C1 N1 C8 125.30(11)
C2 N1 C8 126.11(10)
C1 N2 C7 108.71(9)
C1 N2 H2 129.1(13)
C7 N2 H2 122.2(13)
N2 C1 N1 109.42(10)
N2 C1 S1 128.86(9)
N1 C1 S1 121.72(9)
N1 C2 C7 106.67(9)
N1 C2 C3 131.76(11)
C7 C2 C3 121.57(11)
C4 C3 C2 116.50(12)
C4 C3 H3 121.8
C2 C3 H3 121.8
C3 C4 C5 121.80(11)
C3 C4 H4 119.1
C5 C4 H4 119.1
C6 C5 C4 121.80(12)
C6 C5 H5 119.1
C4 C5 H5 119.1
C5 C6 C7 116.14(12)
C5 C6 H6 121.9
C7 C6 H6 121.9
N2 C7 C2 106.61(9)
N2 C7 C6 131.21(10)
C2 C7 C6 122.19(11)
N1 C8 H8A 109.5
N1 C8 H8B 109.5
H8A C8 H8B 109.5
N1 C8 H8C 109.5
H8A C8 H8C 109.5
H8B C8 H8C 109.5
S1 C9 H9A 109.5
S1 C9 H9B 109.5
H9A C9 H9B 109.5
S1 C9 H9C 109.5
H9A C9 H9C 109.5
H9B C9 H9C 109.5
loop_
_geom_bond_atom_site_label_1
_geom_bond_atom_site_label_2
_geom_bond_distance
S1 C1 1.7164(11)
S1 C9 1.8027(15)
N1 C1 1.3407(14)
N1 C2 1.3882(15)
N1 C8 1.4596(16)
N2 C1 1.3370(14)
N2 C7 1.3889(14)
N2 H2 0.896(18)
C2 C7 1.3904(15)
C2 C3 1.3949(16)
C3 C4 1.380(2)
C3 H3 0.9500
C4 C5 1.406(2)
C4 H4 0.9500
C5 C6 1.3843(17)
C5 H5 0.9500
C6 C7 1.3925(16)
C6 H6 0.9500
C8 H8A 0.9800
C8 H8B 0.9800
C8 H8C 0.9800
C9 H9A 0.9800
C9 H9B 0.9800
C9 H9C 0.9800
loop_
_geom_hbond_atom_site_label_D
_geom_hbond_atom_site_label_H
_geom_hbond_atom_site_label_A
_geom_hbond_distance_DH
_geom_hbond_distance_HA
_geom_hbond_distance_DA
_geom_hbond_angle_DHA
_geom_hbond_site_symmetry_A
N2 H2 I1 0.896(18) 2.604(19) 3.4600(9) 160.2(17) .
N2 H2 I1' 0.896(18) 2.60(2) 3.468(13) 163.4(17) .
C8 H8A I1' 0.98 2.85 3.632(16) 136.9 1_645
C9 H9B I1' 0.98 3.06 3.532(17) 110.8 2_667
loop_
_geom_torsion_atom_site_label_1
_geom_torsion_atom_site_label_2
_geom_torsion_atom_site_label_3
_geom_torsion_atom_site_label_4
_geom_torsion
C7 N2 C1 N1 0.29(13)
C7 N2 C1 S1 -179.27(8)
C2 N1 C1 N2 -0.80(13)
C8 N1 C1 N2 179.77(11)
C2 N1 C1 S1 178.79(8)
C8 N1 C1 S1 -0.63(16)
C9 S1 C1 N2 -2.50(12)
C9 S1 C1 N1 177.99(10)
C1 N1 C2 C7 0.99(12)
C8 N1 C2 C7 -179.59(11)
C1 N1 C2 C3 -179.08(12)
C8 N1 C2 C3 0.3(2)
N1 C2 C3 C4 -179.31(12)
C7 C2 C3 C4 0.61(17)
C2 C3 C4 C5 0.06(18)
C3 C4 C5 C6 -0.60(19)
C4 C5 C6 C7 0.43(17)
C1 N2 C7 C2 0.33(12)
C1 N2 C7 C6 -179.61(12)
N1 C2 C7 N2 -0.80(11)
C3 C2 C7 N2 179.26(10)
N1 C2 C7 C6 179.15(11)
C3 C2 C7 C6 -0.79(17)
C5 C6 C7 N2 -179.82(11)
C5 C6 C7 C2 0.25(16)
