#------------------------------------------------------------------------------
#$Date: 2017-09-11 17:09:03 +0300 (Mon, 11 Sep 2017) $
#$Revision: 200456 $
#$URL: file:///home/coder/svn-repositories/cod/cif/4/03/28/4032803.cif $
#------------------------------------------------------------------------------
#
# This file is available in the Crystallography Open Database (COD),
# http://www.crystallography.net/
#
# All data on this site have been placed in the public domain by the
# contributors.
#
data_4032803
loop_
_publ_author_name
'Huang, Adrian'
'Wo, Kellie'
'Lee, So Yeun Christine'
'Kneitschel, Nika'
'Chang, Jennifer'
'Zhu, Kathleen'
'Mello, Tatsiana'
'Bancroft, Laura'
'Norman, Natalie J.'
'Zheng, Shao-Liang'
_publ_section_title
;
 Regioselective Synthesis, NMR, and Crystallographic Analysis of
 N1-Substituted Pyrazoles.
;
_journal_issue                   17
_journal_name_full               'The Journal of organic chemistry'
_journal_page_first              8864
_journal_page_last               8872
_journal_paper_doi               10.1021/acs.joc.7b01006
_journal_volume                  82
_journal_year                    2017
_chemical_formula_sum            'C7 H4 Br N5 O2'
_chemical_formula_weight         270.06
_space_group_crystal_system      monoclinic
_space_group_IT_number           14
_space_group_name_Hall           '-P 2yn'
_space_group_name_H-M_alt        'P 1 21/n 1'
_symmetry_space_group_name_Hall  '-P 2yn'
_symmetry_space_group_name_H-M   'P 1 21/n 1'
_atom_sites_solution_hydrogens   geom
_audit_creation_method           SHELXL-2014/6
_cell_angle_alpha                90
_cell_angle_beta                 106.4764(9)
_cell_angle_gamma                90
_cell_formula_units_Z            4
_cell_length_a                   5.9065(2)
_cell_length_b                   23.8475(7)
_cell_length_c                   6.5610(2)
_cell_measurement_reflns_used    9947
_cell_measurement_temperature    100(2)
_cell_measurement_theta_max      17.1
_cell_measurement_theta_min      3.35
_cell_volume                     886.20(5)
_computing_cell_refinement       'SAINT 8.34C (Bruker-AXS, 2014)'
_computing_data_collection       'APEX2 v2014.3.0 (Bruker-AXS, 2014)'
_computing_data_reduction        'SAINT 8.34C (Bruker-AXS, 2014)'
_computing_molecular_graphics    'Bruker SHELXTL (Sheldrick, 2015)'
_computing_publication_material  'Bruker SHELXTL (Sheldrick, 2015)'
_computing_structure_refinement  'SHELXL-2014 (Sheldrick, 2015)'
_computing_structure_solution    'SHELXT-2014 (Sheldrick, 2015)'
_diffrn_ambient_temperature      100(2)
_diffrn_measured_fraction_theta_full 0.999
_diffrn_measured_fraction_theta_max 0.998
_diffrn_measurement_device_type
;
Bruker D8 goniometer with CCD area detector  
;
_diffrn_measurement_method       'omega and phi scans'
_diffrn_radiation_monochromator  graphite
_diffrn_radiation_source         'fine-focus sealed tube'
_diffrn_radiation_type           MoK\a
_diffrn_radiation_wavelength     0.71073
_diffrn_reflns_av_R_equivalents  0.0275
_diffrn_reflns_av_unetI/netI     0.0165
_diffrn_reflns_Laue_measured_fraction_full 0.999
_diffrn_reflns_Laue_measured_fraction_max 0.998
_diffrn_reflns_limit_h_max       7
_diffrn_reflns_limit_h_min       -7
_diffrn_reflns_limit_k_max       30
_diffrn_reflns_limit_k_min       -30
_diffrn_reflns_limit_l_max       8
_diffrn_reflns_limit_l_min       -8
_diffrn_reflns_number            17435
_diffrn_reflns_point_group_measured_fraction_full 0.999
_diffrn_reflns_point_group_measured_fraction_max 0.998
_diffrn_reflns_theta_full        25.242
_diffrn_reflns_theta_max         27.148
_diffrn_reflns_theta_min         3.349
_exptl_absorpt_coefficient_mu    4.625
_exptl_absorpt_correction_T_max  0.7455
_exptl_absorpt_correction_T_min  0.5299
_exptl_absorpt_correction_type   multi-scan
_exptl_absorpt_process_details   sadabs
_exptl_crystal_colour            colorless
_exptl_crystal_density_diffrn    2.024
_exptl_crystal_description       needle
_exptl_crystal_F_000             528
_exptl_crystal_size_max          0.240
_exptl_crystal_size_mid          0.100
_exptl_crystal_size_min          0.040
_refine_diff_density_max         0.341
_refine_diff_density_min         -0.456
_refine_diff_density_rms         0.073
_refine_ls_extinction_method     none
_refine_ls_goodness_of_fit_ref   1.160
_refine_ls_hydrogen_treatment    constr
_refine_ls_matrix_type           full
_refine_ls_number_parameters     136
_refine_ls_number_reflns         1967
_refine_ls_number_restraints     0
_refine_ls_restrained_S_all      1.160
_refine_ls_R_factor_all          0.0247
_refine_ls_R_factor_gt           0.0207
_refine_ls_shift/su_max          0.001
_refine_ls_shift/su_mean         0.000
_refine_ls_structure_factor_coef Fsqd
_refine_ls_weighting_details
'w=1/[\s^2^(Fo^2^)+(0.0142P)^2^+1.0204P] where P=(Fo^2^+2Fc^2^)/3'
_refine_ls_weighting_scheme      calc
_refine_ls_wR_factor_gt          0.0459
_refine_ls_wR_factor_ref         0.0472
_reflns_Friedel_coverage         0.000
_reflns_number_gt                1823
_reflns_number_total             1967
_reflns_threshold_expression     'I > 2\s(I)'
_cod_data_source_file            jo7b01006_si_001.cif
_cod_data_source_block           Lab-31
_cod_database_code               4032803
_shelx_space_group_comment
;
The symmetry employed for this shelxl refinement is uniquely defined
by the following loop, which should always be used as a source of
symmetry information in preference to the above space-group names.
They are only intended as comments.
;
_shelx_estimated_absorpt_t_min   0.403
_shelx_estimated_absorpt_t_max   0.837
_shelxl_version_number           2014/6
_shelx_res_file
;
TITL zsl in P2(1)/n
CELL 0.71073 5.9065 23.8475 6.561 90 106.4764 90
ZERR 4 0.0002 0.0007 0.0002 0 0.0009 0
LATT 1
SYMM 0.5-X,0.5+Y,0.5-Z

SFAC C H Br N O
UNIT 28 16 4 20 8

L.S. 10
PLAN  -1
SIZE 0.04 0.1 0.24
TEMP -173.15
BOND $H
LIST 4
conf
fmap 2
acta
REM <HKL>G:/zsl/Huang/AHuang1508/work/zsl.hkl</HKL>

WGHT    0.014200    1.020400
FVAR       0.13593
C1    1    0.608774    0.802993    0.650437    11.00000    0.01221    0.00984 =
         0.01094    0.00056    0.00202    0.00089
C2    1    0.832588    0.788811    0.631843    11.00000    0.01031    0.01359 =
         0.01219    0.00130    0.00278   -0.00199
AFIX  43
H2    2    0.956011    0.813107    0.620762    11.00000   -1.20000
AFIX   0
C3    1    0.829713    0.731607    0.633559    11.00000    0.00913    0.01431 =
         0.01159    0.00059    0.00350    0.00036
AFIX  43
H3    2    0.954113    0.707317    0.624858    11.00000   -1.20000
AFIX   0
C4    1    0.532151    0.660437    0.666331    11.00000    0.01080    0.01033 =
         0.00927   -0.00071    0.00407    0.00011
C5    1    0.628421    0.569461    0.730431    11.00000    0.01367    0.01191 =
         0.01622    0.00190    0.00460    0.00313
AFIX  43
H5    2    0.741067    0.539950    0.761141    11.00000   -1.20000
AFIX   0
C6    1    0.394002    0.557409    0.707647    11.00000    0.01385    0.00999 =
         0.01182   -0.00001    0.00496   -0.00074
C7    1    0.234672    0.601174    0.659922    11.00000    0.01038    0.01297 =
         0.01731   -0.00053    0.00453   -0.00140
AFIX  43
H7    2    0.072260    0.593674    0.642212    11.00000   -1.20000
AFIX   0
N1    4    0.471546    0.760125    0.661056    11.00000    0.01067    0.00932 =
         0.01328   -0.00044    0.00387    0.00149
N2    4    0.611563    0.715967    0.650346    11.00000    0.00884    0.00899 =
         0.01195   -0.00039    0.00330    0.00087
N3    4    0.700327    0.621799    0.710192    11.00000    0.01107    0.01239 =
         0.01557    0.00177    0.00479    0.00111
N4    4    0.302136    0.653793    0.637892    11.00000    0.00975    0.01163 =
         0.01720    0.00029    0.00409    0.00098
N5    4    0.522547    0.859275    0.664502    11.00000    0.01380    0.01055 =
         0.01447    0.00061    0.00295   -0.00102
O1    5    0.648336    0.898064    0.639288    11.00000    0.01836    0.01146 =
         0.02975    0.00103    0.00746   -0.00415
O2    5    0.331694    0.865186    0.702982    11.00000    0.01333    0.01377 =
         0.02650   -0.00130    0.00776    0.00175
BR1   3    0.291350    0.484176    0.740146    11.00000    0.01485    0.00936 =
         0.01703    0.00119    0.00234   -0.00201
HKLF 4

REM  zsl in P2(1)/n
REM R1 =  0.0207 for    1823 Fo > 4sig(Fo)  and  0.0247 for all    1967 data
REM    136 parameters refined using      0 restraints

END

WGHT      0.0142      1.0204

REM Highest difference peak  0.341,  deepest hole -0.456,  1-sigma level  0.073
Q1    1   0.4970  0.5589  0.6845  11.00000  0.05    0.34
;
_shelx_res_checksum              90430
_shelx_hkl_file
;
   1   0   0   -0.37    0.04
  -1   0   0   -0.36    0.03
  -1   0   0   -0.37    0.04
  -1   0   0   -0.34    0.04
   1   0   0   -0.36    0.04
   1   0   0   -0.36    0.03
  -1   0   0   -0.36    0.03
  -2   0   0  233.65    5.83
  -2   0   0  241.21    5.87
   2   0   0  231.77    5.87
  -2   0   0  227.75    5.75
   2   0   0  234.80    5.80
  -2   0   0  240.31    5.77
   2   0   0  241.05    5.84
  -2   0   0  234.15    5.80
   3   0   0   -0.09    0.13
  -3   0   0    0.03    0.10
  -3   0   0   -0.07    0.12
  -3   0   0    0.02    0.09
  -3   0   0    0.12    0.16
   3   0   0    0.09    0.15
   3   0   0   -0.06    0.11
  -3   0   0    0.01    0.09
   4   0   0    7.87    0.54
  -4   0   0    8.07    0.48
  -4   0   0    7.22    0.51
  -4   0   0    7.79    0.34
   4   0   0    8.34    0.52
   4   0   0    7.60    0.43
  -4   0   0    7.48    0.36
  -4   0   0    7.50    0.42
   5   0   0   -0.17    0.21
   5   0   0    0.60    0.32
  -5   0   0    0.19    0.24
  -5   0   0    0.07    0.19
   5   0   0   -0.37    0.24
  -5   0   0   -0.11    0.16
  -5   0   0    0.21    0.15
  -6   0   0    7.65    0.42
  -6   0   0    8.39    0.59
   6   0   0    7.67    0.76
  -6   0   0    8.53    0.67
   7   0   0    1.35    0.56
  -7   0   0    0.10    0.38
  -7   0   0    0.66    0.46
   1  -1   0   26.03    0.72
   1  -1   0   26.80    0.73
  -1  -1   0   27.31    0.70
  -1  -1   0   26.39    0.74
  -1  -1   0   27.01    0.71
   1  -1   0   26.50    0.75
  -1  -1   0   26.91    0.74
   1  -1   0   26.95    0.70
   1   1   0   27.37    0.71
  -1   1   0   26.70    0.75
  -1   1   0   26.33    0.72
   1   1   0   27.20    0.71
   1   1   0   27.60    0.74
  -1   1   0   26.61    0.70
  -1   1   0   26.81    0.72
   1   1   0   26.63    0.74
  -2  -1   0    2.58    0.22
   2  -1   0    2.62    0.22
   2  -1   0    2.75    0.19
   2  -1   0    2.86    0.20
  -2  -1   0    2.58    0.16
  -2  -1   0    2.96    0.21
  -2  -1   0    2.61    0.21
  -2   1   0    2.74    0.19
   2   1   0    2.64    0.21
   2   1   0    2.70    0.18
   2   1   0    2.47    0.16
  -2   1   0    2.93    0.20
  -2   1   0    2.88    0.15
  -2   1   0    2.86    0.16
  -2   1   0    3.13    0.23
   2   1   0    2.69    0.21
  -3  -1   0   88.76    2.29
   3  -1   0   91.17    2.41
  -3  -1   0   89.90    2.42
  -3  -1   0   91.46    2.36
  -3  -1   0   91.75    2.31
   3  -1   0   91.47    2.38
  -3  -1   0   90.19    2.45
   3  -1   0   90.22    2.48
  -3   1   0   89.56    2.37
   3   1   0   87.68    2.36
   3   1   0   88.99    2.47
  -3   1   0   91.90    2.46
  -3   1   0   87.78    2.39
  -3   1   0   88.51    2.29
   3   1   0   92.68    2.44
  -3   1   0   92.95    2.32
  -4  -1   0    7.02    0.34
   4  -1   0    5.97    0.44
  -4  -1   0    6.95    0.39
  -4  -1   0    6.62    0.46
  -4  -1   0    6.68    0.49
   4  -1   0    6.82    0.51
  -4  -1   0    6.36    0.32
   4  -1   0    7.12    0.42
  -4   1   0    6.24    0.42
   4   1   0    6.88    0.50
   4   1   0    6.57    0.40
   4   1   0    6.35    0.45
  -4   1   0    6.41    0.40
  -4   1   0    6.81    0.31
  -4   1   0    7.11    0.51
  -4   1   0    7.02    0.34
   5  -1   0   54.03    1.68
  -5  -1   0   55.84    1.75
  -5  -1   0   56.99    1.66
   5  -1   0   55.68    1.86
   5  -1   0   53.69    1.74
  -5  -1   0   53.72    1.57
  -5  -1   0   56.35    1.52
   5   1   0   54.12    1.78
  -5   1   0   56.87    1.67
  -5   1   0   54.89    1.50
   5   1   0   56.73    1.85
   5   1   0   54.79    1.66
  -5   1   0   56.00    1.72
  -5   1   0   56.21    1.57
  -6  -1   0    0.64    0.38
   6  -1   0    0.50    0.40
  -6  -1   0    0.17    0.19
  -6  -1   0    0.99    0.31
   6   1   0    0.10    0.36
  -6   1   0    0.53    0.34
  -6   1   0    0.30    0.33
  -6   1   0    0.29    0.19
  -7  -1   0   35.98    1.36
  -7  -1   0   35.41    1.50
   7  -1   0   34.97    1.65
   7   1   0   34.86    1.61
  -7   1   0   32.57    1.45
  -7   1   0   35.27    1.38
   1  -2   0    1.23    0.08
   1  -2   0    1.19    0.09
   1  -2   0    1.04    0.10
  -1  -2   0    1.07    0.10
   1  -2   0    1.05    0.11
  -1  -2   0    1.20    0.08
  -1  -2   0    1.18    0.12
  -1  -2   0    1.13    0.08
  -1   2   0    1.16    0.10
   1   2   0    1.03    0.11
  -1   2   0    1.09    0.11
   1   2   0    1.22    0.08
  -1   2   0    1.14    0.08
   1   2   0    1.16    0.10
  -1   2   0    1.16    0.09
   1   2   0    1.11    0.09
  -2  -2   0  225.69    5.43
  -2  -2   0  218.91    5.51
   2  -2   0  221.11    5.42
   2  -2   0  211.33    5.53
   2  -2   0  220.66    5.47
  -2  -2   0  223.72    5.52
   2  -2   0  222.37    5.48
   2   2   0  225.75    5.52
   2   2   0  221.57    5.43
   2   2   0  217.77    5.51
   2   2   0  218.98    5.44
  -2   2   0  217.01    5.47
  -2   2   0  227.41    5.53
  -2   2   0  220.16    5.41
  -2   2   0  223.91    5.47
   3  -2   0    2.38    0.26
  -3  -2   0    2.95    0.30
  -3  -2   0    2.31    0.29
   3  -2   0    2.82    0.25
   3  -2   0    2.67    0.30
  -3  -2   0    2.67    0.22
  -3  -2   0    2.86    0.20
   3   2   0    2.38    0.21
  -3   2   0    2.67    0.21
  -3   2   0    2.69    0.19
  -3   2   0    2.60    0.25
   3   2   0    2.54    0.28
  -3   2   0    2.78    0.24
   3   2   0    2.41    0.28
  -3   2   0    2.57    0.31
  -4  -2   0   25.16    0.95
   4  -2   0   25.47    0.88
  -4  -2   0   25.01    0.92
  -4  -2   0   25.83    0.78
  -4  -2   0   25.22    0.77
   4  -2   0   25.06    0.92
   4  -2   0   24.13    0.99
  -4  -2   0   24.92    0.83
   4   2   0   25.71    0.95
  -4   2   0   24.97    0.87
  -4   2   0   25.39    0.79
  -4   2   0   24.09    0.87
  -4   2   0   24.53    0.75
   4   2   0   25.22    0.84
  -4   2   0   25.11    0.97
   4   2   0   25.15    0.97
   5  -2   0    0.25    0.23
  -5  -2   0    0.02    0.21
   5  -2   0    0.03    0.29
  -5  -2   0    0.70    0.28
  -5  -2   0    0.27    0.16
   5  -2   0    0.25    0.29
   5   2   0    0.30    0.24
  -5   2   0    0.42    0.25
  -5   2   0    0.25    0.22
   5   2   0    0.76    0.34
  -5   2   0    0.17    0.16
   5   2   0    0.37    0.30
  -6  -2   0    3.44    0.40
  -6  -2   0    3.37    0.49
   6  -2   0    3.36    0.59
  -6  -2   0    3.10    0.34
  -6   2   0    3.50    0.47
   6   2   0    3.33    0.57
  -6   2   0    2.80    0.49
  -6   2   0    2.78    0.33
   7  -2   0    0.98    0.53
  -7  -2   0    2.09    0.45
  -7  -2   0    2.78    0.56
  -7   2   0    2.90    0.51
   7   2   0    2.38    0.59
  -7   2   0    2.26    0.47
   0  -3   0   -0.08    0.03
   0  -3   0   -0.11    0.02
   0   3   0   -0.14    0.03
   0   3   0   -0.08    0.03
   0   3   0   -0.12    0.03
  -1  -3   0   48.77    1.30
   1  -3   0   49.08    1.25
  -1  -3   0   50.61    1.26
   1  -3   0   48.47    1.30
   1  -3   0   49.70    1.25
  -1  -3   0   47.97    1.27
  -1   3   0   48.09    1.24
  -1   3   0   49.35    1.25
   1   3   0   49.43    1.30
   1   3   0   48.48    1.27
   1   3   0   49.46    1.25
  -1   3   0   48.92    1.28
   1   3   0   50.11    1.26
   1   3   0   48.93    1.25
  -1   3   0   48.53    1.29
  -2  -3   0   38.80    1.15
   2  -3   0   39.99    1.11
   2  -3   0   41.09    1.07
  -2  -3   0   40.46    1.07
   2  -3   0   39.82    1.12
  -2  -3   0   40.09    1.15
   2  -3   0   39.82    1.18
  -2   3   0   39.86    1.16
   2   3   0   39.08    1.08
  -2   3   0   40.93    1.10
   2   3   0   40.07    1.14
   2   3   0   41.08    1.16
  -2   3   0   40.28    1.06
   2   3   0   40.93    1.09
  -2   3   0   39.41    1.12
  -3  -3   0   65.48    1.74
   3  -3   0   60.80    1.87
   3  -3   0   64.98    1.89
  -3  -3   0   66.30    1.84
  -3  -3   0   65.49    1.84
   3  -3   0   65.72    1.79
  -3  -3   0   66.67    1.71
  -3   3   0   65.90    1.73
   3   3   0   63.18    1.84
   3   3   0   67.30    1.85
  -3   3   0   66.15    1.78
  -3   3   0   65.92    1.85
   3   3   0   62.55    1.82
  -3   3   0   64.50    1.68
   3   3   0   66.00    1.73
  -3   3   0   65.57    1.78
  -4  -3   0   22.75    0.78
   4  -3   0   22.69    0.83
  -4  -3   0   22.95    0.90
  -4  -3   0   23.91    0.73
   4  -3   0   23.36    0.86
  -4  -3   0   22.55    0.91
   4  -3   0   21.59    0.93
  -4   3   0   23.30    0.92
  -4   3   0   22.27    0.70
  -4   3   0   23.93    0.84
  -4   3   0   23.48    0.84
   4   3   0   24.07    0.93
  -4   3   0   24.11    0.76
   4   3   0   22.05    0.89
   4   3   0   23.20    0.79
  -5  -3   0   41.36    1.19
   5  -3   0   39.46    1.66
  -5  -3   0   41.73    1.25
   5  -3   0   39.25    1.35
  -5  -3   0   39.93    1.43
  -5  -3   0   42.18    1.29
   5  -3   0   40.42    1.39
   5   3   0   42.07    1.48
   5   3   0   41.87    1.31
   5   3   0   40.67    1.46
  -5   3   0   41.07    1.16
  -5   3   0   42.30    1.35
  -5   3   0   42.26    1.35
  -6  -3   0   16.34    0.78
  -6  -3   0   16.22    0.62
   6  -3   0   15.74    1.01
  -6  -3   0   14.35    0.92
  -6   3   0   17.78    0.84
  -6   3   0   14.69    1.16
   6   3   0   15.76    0.97
  -6   3   0   16.56    0.60
   7  -3   0   10.19    1.07
  -7  -3   0   13.26    0.87
  -7  -3   0   11.91    1.03
   7   3   0   14.08    1.07
  -7   3   0   12.75    0.92
  -7   3   0   14.12    0.90
   0  -4   0   37.70    1.00
   0  -4   0   39.55    1.01
   0  -4   0   37.54    1.01
   0  -4   0   35.82    0.98
   0   4   0   37.99    1.00
   0   4   0   39.16    1.01
   0   4   0   39.19    1.01
   0   4   0   36.69    0.99
   1  -4   0   31.74    0.84
   1  -4   0   31.67    0.84
  -1  -4   0   28.76    0.95
  -1  -4   0   31.61    0.85
   1  -4   0   31.76    0.83
  -1  -4   0   31.54    0.85
  -1  -4   0   31.60    0.83
   1  -4   0   30.71    0.89
   1  -4   0   31.96    0.87
   1   4   0   31.81    0.86
  -1   4   0   32.06    0.84
   1   4   0   30.96    0.89
   1   4   0   32.22    0.85
   1   4   0   31.86    0.83
  -1   4   0   31.70    0.87
  -1   4   0   32.26    0.88
   2  -4   0   42.30    1.25
   2  -4   0   40.97    1.19
  -2  -4   0   42.05    1.24
  -2  -4   0   44.37    1.15
   2  -4   0   43.00    1.14
  -2  -4   0   43.30    1.21
   2  -4   0   43.62    1.17
   2   4   0   40.15    1.20
   2   4   0   42.17    1.14
  -2   4   0   42.71    1.16
   2   4   0   43.94    1.24
   2   4   0   42.03    1.20
  -2   4   0   43.97    1.20
  -3  -4   0   24.02    0.75
   3  -4   0   24.14    0.80
  -3  -4   0   23.82    0.85
   3  -4   0   24.83    0.73
   3  -4   0   23.41    0.89
  -3  -4   0   25.07    0.74
  -3  -4   0   24.06    0.84
  -3   4   0   23.75    0.80
   3   4   0   23.61    0.76
  -3   4   0   24.71    0.78
  -3   4   0   24.13    0.85
   3   4   0   23.27    0.83
   3   4   0   25.21    0.87
  -3   4   0   24.76    0.71
   3   4   0   24.77    0.76
  -4  -4   0    9.27    0.57
   4  -4   0    9.02    0.60
  -4  -4   0    9.78    0.45
   4  -4   0    9.33    0.51
  -4  -4   0   10.07    0.42
   4  -4   0    9.69    0.52
  -4  -4   0   10.67    0.58
   4   4   0   11.10    0.61
  -4   4   0    9.13    0.49
  -4   4   0    8.90    0.50
  -4   4   0    9.06    0.56
  -4   4   0    9.33    0.38
   4   4   0    9.51    0.46
   4   4   0    9.91    0.56
   4   4   0    9.43    0.44
  -4   4   0    9.74    0.43
  -5  -4   0    0.09    0.19
   5  -4   0   -0.15    0.25
   5  -4   0    0.13    0.30
  -5  -4   0    0.03    0.17
   5  -4   0    0.45    0.47
  -5  -4   0    0.27    0.26
  -5  -4   0   -0.12    0.18
  -5   4   0    0.05    0.21
  -5   4   0   -0.07    0.15
  -5   4   0    0.13    0.20
   5   4   0   -0.36    0.22
  -5   4   0   -0.01    0.22
   5   4   0    0.10    0.27
  -6  -4   0    0.98    0.42
  -6  -4   0    1.08    0.24
   6  -4   0    1.60    0.46
  -6  -4   0    0.76    0.29
  -6   4   0    1.90    0.38
  -6   4   0    0.72    0.21
   6   4   0    1.10    0.41
  -7  -4   0    0.46    0.38
   7  -4   0    0.17    0.58
  -7  -4   0    1.09    0.56
   7   4   0    0.95    0.55
  -7   4   0    0.49    0.39
  -7   4   0    0.77    0.44
   0  -5   0   -0.03    0.05
   0  -5   0    0.00    0.06
   0  -5   0   -0.02    0.05
   0  -5   0    0.01    0.06
   0   5   0    0.05    0.07
   0   5   0   -0.02    0.05
   0   5   0    0.00    0.05
   0   5   0    0.04    0.05
  -1  -5   0   40.58    1.10
   1  -5   0   43.55    1.11
   1  -5   0   41.28    1.08
  -1  -5   0   41.02    1.09
  -1  -5   0   42.30    1.16
  -1  -5   0   42.57    1.11
   1  -5   0   42.15    1.09
   1   5   0   38.13    1.16
   1   5   0   42.72    1.16
  -1   5   0   40.91    1.10
   1   5   0   41.79    1.09
  -1   5   0   42.98    1.13
  -1   5   0   42.46    1.14
   1   5   0   41.51    1.09
  -2  -5   0    7.64    0.38
   2  -5   0    7.79    0.32
   2  -5   0    7.58    0.39
  -2  -5   0    8.09    0.31
   2  -5   0    7.72    0.30
  -2  -5   0    7.87    0.35
   2   5   0    7.63    0.43
   2   5   0    7.55    0.32
   2   5   0    7.64    0.34
  -2   5   0    8.04    0.37
  -2   5   0    7.71    0.29
  -2   5   0    8.30    0.31
   2   5   0    7.63    0.30
  -2   5   0    7.94    0.36
  -3  -5   0   88.46    2.44
  -3  -5   0   88.31    2.41
   3  -5   0   89.09    2.29
  -3  -5   0   93.15    2.30
   3  -5   0   87.82    2.37
  -3  -5   0   89.29    2.30
   3  -5   0   86.78    2.47
   3   5   0   86.06    2.32
  -3   5   0   87.71    2.32
  -3   5   0   88.17    2.27
  -3   5   0   90.89    2.43
   3   5   0   88.65    2.32
  -3   5   0   86.70    2.38
   3   5   0   90.67    2.44
   3   5   0   87.24    2.40
   4  -5   0   49.11    1.66
  -4  -5   0   50.21    1.58
   4  -5   0   50.30    1.52
   4  -5   0   52.04    1.53
  -4  -5   0   49.90    1.47
  -4  -5   0   51.43    1.60
  -4  -5   0   50.81    1.44
   4   5   0   51.18    1.45
  -4   5   0   51.91    1.44
  -4   5   0   50.73    1.48
  -4   5   0   50.25    1.52
   4   5   0   50.50    1.59
   4   5   0   49.54    1.57
  -4   5   0   50.85    1.60
   4   5   0   50.59    1.44
  -4   5   0   49.97    1.37
  -5  -5   0   58.78    1.87
  -5  -5   0   59.63    1.61
  -5  -5   0   56.07    1.60
   5  -5   0   56.04    1.95
  -5  -5   0   58.00    1.68
   5  -5   0   55.65    1.78
   5   5   0   58.99    1.87
   5   5   0   55.66    1.68
  -5   5   0   59.31    1.64
  -5   5   0   56.83    1.76
  -5   5   0   56.99    1.72
  -5   5   0   56.63    1.56
  -6  -5   0    1.32    0.47
   6  -5   0    2.48    0.54
  -6  -5   0    2.14    0.35
  -6  -5   0    2.23    0.28
  -6   5   0    1.43    0.38
  -6   5   0    2.32    0.44
   6   5   0    2.11    0.47
  -6   5   0    2.10    0.26
  -7  -5   0   15.67    1.09
   7  -5   0   15.11    1.25
  -7   5   0   14.58    0.95
   7   5   0   16.23    1.12
  -7   5   0   16.33    0.98
   0  -6   0   71.33    1.76
   0  -6   0   68.50    1.78
   0  -6   0   68.57    1.76
   0  -6   0   64.54    1.73
   0   6   0   69.28    1.77
   0   6   0   68.07    1.76
   0   6   0   67.23    1.74
   0   6   0   68.93    1.77
   1  -6   0   59.91    1.59
   1  -6   0   61.25    1.55
   1  -6   0   59.59    1.53
   1  -6   0   58.42    1.58
  -1  -6   0   59.11    1.53
  -1  -6   0   59.00    1.61
  -1  -6   0   59.93    1.53
  -1  -6   0   60.28    1.56
  -1   6   0   58.48    1.56
  -1   6   0   59.27    1.54
   1   6   0   58.01    1.51
  -1   6   0   59.96    1.58
  -1   6   0   60.65    1.53
   1   6   0   58.97    1.57
   1   6   0   59.82    1.60
   1   6   0   58.79    1.52
   2  -6   0   70.99    1.99
  -2  -6   0   74.95    1.94
  -2  -6   0   72.41    1.89
   2  -6   0   72.83    1.90
   2  -6   0   72.03    1.94
   2  -6   0   72.20    1.88
  -2  -6   0   71.17    1.99
   2   6   0   73.47    1.98
  -2   6   0   72.78    1.96
   2   6   0   73.25    1.88
   2   6   0   72.97    1.92
   2   6   0   71.75    1.87
  -2   6   0   75.26    1.89
  -2   6   0   72.72    1.95
   2   6   0   72.67    1.91
  -2   6   0   71.61    1.87
   3  -6   0   16.27    0.71
  -3  -6   0   15.35    0.67
  -3  -6   0   16.41    0.64
   3  -6   0   16.60    0.55
  -3  -6   0   15.85    0.55
   3  -6   0   16.29    0.63
  -3   6   0   15.02    0.62
   3   6   0   16.09    0.67
  -3   6   0   15.88    0.53
   3   6   0   15.35    0.62
   3   6   0   16.04    0.57
  -3   6   0   16.33    0.57
  -3   6   0   16.26    0.66
   3   6   0   14.25    0.60
   4  -6   0   43.60    1.34
  -4  -6   0   41.50    1.43
   4  -6   0   42.45    1.49
  -4  -6   0   43.75    1.41
   4  -6   0   42.50    1.36
  -4  -6   0   44.43    1.27
  -4  -6   0   46.81    1.26
  -4   6   0   42.92    1.21
   4   6   0   43.63    1.28
  -4   6   0   41.96    1.41
   4   6   0   42.97    1.43
   4   6   0   42.26    1.27
  -4   6   0   43.56    1.30
   4   6   0   45.06    1.40
  -4   6   0   42.56    1.36
  -5  -6   0    6.43    0.59
  -5  -6   0    6.10    0.43
   5  -6   0    6.10    0.65
   5  -6   0    5.50    0.55
  -5  -6   0    5.77    0.39
  -5   6   0    6.13    0.52
   5   6   0    6.16    0.57
  -5   6   0    6.70    0.46
  -5   6   0    5.68    0.36
  -5   6   0    6.91    0.48
   5   6   0    6.07    0.48
   6  -6   0    0.42    0.42
  -6  -6   0    0.58    0.23
  -6  -6   0    0.18    0.42
   6   6   0   -0.02    0.35
  -6   6   0    0.00    0.31
  -6   6   0    0.18    0.20
  -6   6   0    0.28    0.31
   7  -6   0   -0.86    0.56
  -7  -6   0    0.69    0.59
  -7   6   0    1.20    0.43
  -7   6   0    0.39    0.42
   7   6   0    1.19    0.53
   0  -7   0   -0.07    0.06
   0  -7   0    0.00    0.07
   0  -7   0    0.05    0.08
   0   7   0    0.15    0.08
   0   7   0    0.06    0.07
   0   7   0   -0.03    0.07
   0   7   0    0.10    0.09
  -1  -7   0    0.32    0.08
   1  -7   0    0.30    0.10
   1  -7   0    0.18    0.09
   1  -7   0    0.26    0.10
  -1  -7   0    0.48    0.11
   1  -7   0    0.36    0.10
  -1  -7   0    0.39    0.12
  -1  -7   0    0.24    0.08
   1   7   0    0.30    0.08
  -1   7   0    0.36    0.11
   1   7   0    0.21    0.09
   1   7   0    0.31    0.11
  -1   7   0    0.28    0.08
  -1   7   0    0.31    0.08
   1   7   0    0.26    0.08
  -1   7   0    0.17    0.08
   2  -7   0    6.63    0.31
  -2  -7   0    7.44    0.32
   2  -7   0    7.26    0.30
  -2  -7   0    7.01    0.34
   2  -7   0    6.80    0.30
  -2  -7   0    6.56    0.39
   2  -7   0    7.49    0.36
   2  -7   0    7.73    0.40
  -2   7   0    7.04    0.31
   2   7   0    7.00    0.33
   2   7   0    7.20    0.32
   2   7   0    7.05    0.29
  -2   7   0    7.20    0.36
   2   7   0    7.53    0.40
  -2   7   0    6.76    0.36
   2   7   0    6.69    0.29
  -3  -7   0   21.86    0.85
   3  -7   0   21.56    0.86
   3  -7   0   21.46    0.78
   3  -7   0   22.23    0.70
   3  -7   0   20.21    0.73
  -3  -7   0   22.61    0.80
  -3  -7   0   22.22    0.71
  -3   7   0   22.33    0.71
   3   7   0   21.63    0.76
  -3   7   0   21.66    0.68
  -3   7   0   22.02    0.80
  -3   7   0   21.96    0.78
   3   7   0   21.25    0.73
   3   7   0   22.01    0.70
   3   7   0   20.83    0.81
  -4  -7   0    8.53    0.59
   4  -7   0    9.10    0.51
   4  -7   0    8.35    0.53
   4  -7   0    9.08    0.43
   4  -7   0    8.39    0.61
  -4  -7   0    9.37    0.42
  -4  -7   0    8.38    0.55
   4   7   0    8.85    0.44
   4   7   0    8.78    0.53
  -4   7   0    9.16    0.66
  -4   7   0    8.25    0.44
  -4   7   0    8.47    0.52
   4   7   0    8.88    0.46
   4   7   0    9.07    0.60
  -4   7   0    8.93    0.40
   4   7   0    8.77    0.45
  -5  -7   0   66.19    1.79
  -5  -7   0   60.89    2.33
   5  -7   0   63.06    2.14
   5  -7   0   65.68    1.96
  -5   7   0   66.49    1.84
   5   7   0   64.40    2.00
  -5   7   0   64.36    1.97
   5   7   0   64.22    1.83
   5   7   0   63.67    1.85
  -5   7   0   63.42    1.86
  -5   7   0   63.00    1.74
  -6  -7   0   18.43    0.74
   6  -7   0   19.98    1.17
  -6  -7   0   19.20    1.07
  -6   7   0   19.11    0.71
   6   7   0   19.63    1.03
  -6   7   0   18.65    0.96
   6   7   0   19.51    0.85
  -6   7   0   18.22    0.86
  -7  -7   0   29.88    1.56
   7  -7   0   36.22    2.23
  -7   7   0   33.09    1.33
  -7   7   0   29.95    1.38
   7   7   0   32.90    1.47
   0  -8   0  241.34    5.99
   0  -8   0  248.14    6.03
   0  -8   0  243.78    6.05
   0  -8   0  238.65    6.02
   0   8   0  251.67    6.01
   0   8   0  244.66    6.03
   0   8   0  246.66    6.04
   0   8   0  233.94    6.01
  -1  -8   0  126.17    3.33
  -1  -8   0  128.47    3.24
   1  -8   0  130.92    3.30
   1  -8   0  134.05    3.28
   1  -8   0  129.56    3.25
  -1  -8   0  128.25    3.23
  -1  -8   0  132.93    3.28
  -1   8   0  132.44    3.25
   1   8   0  127.63    3.24
   1   8   0  130.91    3.32
  -1   8   0  131.76    3.26
   1   8   0  126.23    3.21
  -1   8   0  128.28    3.26
  -1   8   0  125.43    3.30
   1   8   0  125.98    3.30
   2  -8   0  108.76    2.78
  -2  -8   0  110.08    2.83
   2  -8   0  110.53    2.87
   2  -8   0  108.68    2.79
   2  -8   0  108.18    2.91
  -2  -8   0  106.88    2.92
   2  -8   0  112.44    2.81
  -2  -8   0  110.91    2.82
   2   8   0  109.22    2.84
  -2   8   0  110.38    2.88
  -2   8   0  108.01    2.79
   2   8   0  108.62    2.78
  -2   8   0  113.66    2.87
   2   8   0  108.83    2.91
   2   8   0  110.67    2.78
   2   8   0  108.21    2.80
   3  -8   0   49.08    1.36
  -3  -8   0   49.89    1.45
   3  -8   0   48.67    1.54
   3  -8   0   48.56    1.45
   3  -8   0   48.50    1.39
  -3  -8   0   48.70    1.52
  -3  -8   0   48.24    1.36
   3   8   0   47.52    1.39
   3   8   0   48.66    1.35
  -3   8   0   47.29    1.33
   3   8   0   48.12    1.41
  -3   8   0   47.47    1.46
   3   8   0   48.85    1.35
  -3   8   0   47.67    1.46
   3   8   0   49.79    1.51
  -4  -8   0   47.50    1.60
   4  -8   0   46.68    1.51
  -4  -8   0   50.37    1.55
   4  -8   0   48.69    1.66
   4  -8   0   49.80    1.41
  -4  -8   0   49.86    1.40
   4  -8   0   49.85    1.48
  -4   8   0   49.32    1.37
  -4   8   0   49.19    1.74
   4   8   0   48.03    1.40
  -4   8   0   50.35    1.43
   4   8   0   49.29    1.61
  -4   8   0   48.77    1.53
   4   8   0   48.29    1.41
   4   8   0   48.28    1.44
   4   8   0   48.84    1.51
   5  -8   0    1.43    0.43
   5  -8   0    1.51    0.35
  -5  -8   0    1.12    0.37
  -5  -8   0    1.35    0.25
   5   8   0    0.84    0.31
  -5   8   0    0.91    0.30
  -5   8   0    1.39    0.29
  -5   8   0    1.49    0.23
   5   8   0    1.50    0.28
  -5   8   0    0.88    0.29
   5   8   0    1.29    0.30
   5   8   0    1.57    0.28
   6  -8   0    6.02    0.77
  -6  -8   0    5.26    0.48
  -6  -8   0    5.74    0.75
   6   8   0    4.31    0.62
  -6   8   0    5.16    0.57
  -6   8   0    5.58    0.67
  -6   8   0    6.32    0.44
   6   8   0    6.26    0.57
  -7  -8   0    2.09    0.61
   7   8   0    1.60    0.58
  -7   8   0    1.47    0.51
  -7   8   0    1.87    0.47
   0  -9   0    0.07    0.09
   0  -9   0    0.12    0.10
   0  -9   0    0.29    0.10
   0  -9   0    0.18    0.12
   0   9   0    0.07    0.09
   0   9   0   -0.02    0.09
   0   9   0   -0.01    0.09
   1  -9   0   15.66    0.55
  -1  -9   0   15.18    0.54
   1  -9   0   14.96    0.51
  -1  -9   0   15.56    0.51
  -1  -9   0   14.92    0.58
   1  -9   0   15.65    0.54
  -1  -9   0   15.23    0.49
  -1   9   0   15.15    0.56
  -1   9   0   15.18    0.51
   1   9   0   15.69    0.47
   1   9   0   15.24    0.56
  -1   9   0   14.92    0.53
  -1   9   0   15.31    0.51
   1   9   0   15.25    0.50
  -2  -9   0    2.16    0.29
  -2  -9   0    2.31    0.23
   2  -9   0    2.47    0.28
  -2  -9   0    2.25    0.22
   2  -9   0    1.99    0.22
   2  -9   0    2.22    0.21
   2  -9   0    2.39    0.20
   2  -9   0    2.41    0.27
   2   9   0    2.27    0.27
  -2   9   0    2.36    0.22
   2   9   0    2.30    0.25
   2   9   0    2.06    0.19
  -2   9   0    2.25    0.26
   2   9   0    2.39    0.19
  -2   9   0    2.46    0.24
  -3  -9   0   15.54    0.64
   3  -9   0   15.57    0.55
  -3  -9   0   16.01    0.58
   3  -9   0   15.82    0.57
   3  -9   0   14.51    0.70
   3  -9   0   15.47    0.59
  -3  -9   0   14.47    0.70
   3  -9   0   14.75    0.65
  -3   9   0   15.15    0.55
   3   9   0   15.58    0.69
   3   9   0   15.38    0.61
   3   9   0   15.55    0.60
  -3   9   0   15.34    0.65
   3   9   0   14.47    0.55
  -3   9   0   15.90    0.67
   3   9   0   14.95    0.54
   4  -9   0   21.48    0.90
   4  -9   0   22.80    0.79
  -4  -9   0   23.72    1.00
  -4  -9   0   23.65    0.93
   4  -9   0   22.40    1.02
   4  -9   0   23.60    0.86
  -4  -9   0   23.39    0.79
  -4   9   0   22.92    0.91
   4   9   0   21.98    0.79
   4   9   0   22.16    0.99
  -4   9   0   23.15    0.76
   4   9   0   23.69    0.88
   4   9   0   23.07    0.78
  -4   9   0   23.36    0.80
   4   9   0   23.21    0.84
  -5  -9   0   16.22    0.67
   5  -9   0   16.16    0.81
  -5  -9   0   15.78    0.89
   5  -9   0   16.33    0.97
  -5   9   0   16.46    0.64
   5   9   0   16.90    0.82
   5   9   0   16.49    0.72
  -5   9   0   15.76    0.70
  -5   9   0   16.97    0.88
  -5   9   0   16.05    0.72
   5   9   0   15.00    0.71
   5   9   0   15.67    0.68
   6  -9   0   37.89    1.70
  -6  -9   0   39.87    1.60
   6   9   0   38.70    1.30
   6   9   0   38.54    1.48
  -6   9   0   37.93    1.20
  -6   9   0   39.11    1.46
  -6   9   0   39.67    1.35
   0 -10   0   33.82    1.02
   0 -10   0   33.06    1.00
   0 -10   0   34.33    1.00
   0 -10   0   32.69    0.95
   0  10   0   35.71    0.97
   0  10   0   33.63    1.00
   0  10   0   33.62    0.99
   0  10   0   31.98    1.00
   1 -10   0  261.33    6.56
  -1 -10   0  263.29    6.52
   1 -10   0  275.83    6.56
   1 -10   0  260.52    6.56
   1 -10   0  266.15    6.53
  -1 -10   0  274.83    6.56
  -1 -10   0  264.58    6.49
   1  10   0  268.52    6.60
  -1  10   0  255.36    6.54
  -1  10   0  263.11    6.51
  -1  10   0  263.95    6.58
  -1  10   0  260.80    6.52
   1  10   0  256.48    6.51
   1  10   0  254.12    6.57
   2 -10   0   94.45    2.56
   2 -10   0   96.42    2.46
   2 -10   0   94.81    2.48
  -2 -10   0   94.36    2.47
   2 -10   0   98.70    2.51
  -2 -10   0   91.65    2.62
   2 -10   0   94.54    2.60
  -2 -10   0   95.29    2.50
  -2 -10   0   98.89    2.52
   2  10   0   93.97    2.46
  -2  10   0   95.67    2.49
   2  10   0   94.60    2.45
  -2  10   0   93.31    2.57
  -2  10   0   96.84    2.53
   2  10   0   97.02    2.60
   2  10   0   97.02    2.56
  -3 -10   0   41.68    1.45
   3 -10   0   45.63    1.27
  -3 -10   0   45.33    1.31
   3 -10   0   43.72    1.38
   3 -10   0   45.17    1.49
   3 -10   0   45.96    1.31
   3 -10   0   45.48    1.31
  -3 -10   0   44.52    1.37
   3  10   0   44.69    1.27
   3  10   0   46.22    1.37
   3  10   0   45.64    1.45
   3  10   0   44.87    1.28
  -3  10   0   45.95    1.29
   3  10   0   44.19    1.31
  -3  10   0   44.71    1.41
  -3  10   0   45.71    1.40
   4 -10   0    0.33    0.19
  -4 -10   0   -0.17    0.18
  -4 -10   0    0.19    0.26
   4 -10   0   -0.18    0.21
   4 -10   0    0.03    0.17
  -4 -10   0    0.11    0.27
   4 -10   0    0.21    0.29
   4  10   0   -0.01    0.16
   4  10   0    0.19    0.17
  -4  10   0    0.18    0.22
   4  10   0    0.17    0.19
  -4  10   0   -0.20    0.16
   4  10   0    0.35    0.19
   4  10   0    1.01    0.35
   5 -10   0    0.84    0.35
  -5 -10   0    0.56    0.38
   5 -10   0    1.19    0.46
  -5 -10   0    0.41    0.23
  -5  10   0    0.65    0.22
   5  10   0    0.34    0.28
   5  10   0    0.53    0.23
  -5  10   0    0.81    0.31
   5  10   0    1.05    0.27
   5  10   0    0.82    0.30
  -6 -10   0    3.91    0.62
   6 -10   0    3.22    0.66
  -6  10   0    2.79    0.36
  -6  10   0    3.93    0.51
   6  10   0    2.92    0.43
   6  10   0    2.83    0.48
   6  10   0    3.15    0.39
   0 -11   0   -0.01    0.13
   0 -11   0    0.00    0.10
   0 -11   0    0.03    0.11
   0 -11   0    0.19    0.12
   0  11   0    0.13    0.13
   0  11   0    0.06    0.10
   0  11   0   -0.04    0.10
   1 -11   0    4.24    0.29
   1 -11   0    4.36    0.30
   1 -11   0    4.31    0.31
  -1 -11   0    3.50    0.29
  -1 -11   0    4.58    0.26
  -1 -11   0    4.50    0.34
  -1 -11   0    4.35    0.29
   1 -11   0    4.41    0.30
  -1 -11   0    4.08    0.23
   1  11   0    4.02    0.26
   1  11   0    4.33    0.32
  -1  11   0    4.65    0.32
  -1  11   0    4.36    0.28
  -1  11   0    4.65    0.30
  -1  11   0    3.86    0.26
   1  11   0    4.39    0.32
  -2 -11   0   94.13    2.66
   2 -11   0   91.63    2.58
  -2 -11   0   85.44    2.56
  -2 -11   0   99.33    2.55
   2 -11   0   95.17    2.49
   2 -11   0   96.72    2.64
   2 -11   0  100.30    2.55
  -2 -11   0   97.92    2.53
  -2  11   0   96.49    2.61
  -2  11   0   98.15    2.55
   2  11   0   95.63    2.59
   2  11   0   99.18    2.64
   2  11   0   97.51    2.49
  -2  11   0   95.21    2.52
   2  11   0   98.49    2.47
   3 -11   0    0.25    0.20
  -3 -11   0    0.30    0.17
   3 -11   0    0.19    0.15
  -3 -11   0    0.04    0.22
   3 -11   0    0.19    0.17
  -3 -11   0    0.14    0.18
   3 -11   0    0.05    0.13
   3 -11   0    0.03    0.21
   3  11   0    0.24    0.18
  -3  11   0    0.16    0.17
   3  11   0    0.10    0.22
   3  11   0    0.12    0.13
   3  11   0    0.27    0.16
   3  11   0    0.02    0.15
  -3  11   0    0.51    0.19
  -3  11   0    0.25    0.16
  -4 -11   0   72.26    2.26
  -4 -11   0   73.32    2.02
   4 -11   0   71.73    2.29
   4 -11   0   70.94    2.07
  -4 -11   0   72.66    2.14
   4 -11   0   73.08    1.99
   4  11   0   72.50    2.07
   4  11   0   73.21    1.99
  -4  11   0   75.46    2.19
   4  11   0   73.73    2.09
  -4  11   0   71.57    1.99
   4  11   0   72.53    2.01
   5 -11   0   28.90    1.16
  -5 -11   0   32.08    1.06
   5 -11   0   32.20    1.29
   5 -11   0   31.96    1.42
   5 -11   0   30.90    1.04
  -5 -11   0   29.12    1.33
   5  11   0   31.72    1.10
  -5  11   0   30.01    1.02
   5  11   0   29.30    1.10
   5  11   0   31.21    1.03
  -5  11   0   32.13    1.23
   5  11   0   32.00    1.16
   6 -11   0   32.19    1.18
   6 -11   0   32.62    1.62
  -6 -11   0   33.02    1.47
  -6  11   0   33.57    1.38
   6  11   0   32.98    1.20
   6  11   0   33.39    1.33
   6  11   0   34.72    1.17
  -6  11   0   32.70    1.10
   0 -12   0    1.51    0.22
   0 -12   0    1.62    0.24
   0 -12   0    1.54    0.19
   0 -12   0    1.38    0.20
   0  12   0    1.12    0.18
   0  12   0    1.65    0.21
   0  12   0    1.81    0.25
   0  12   0    1.54    0.22
  -1 -12   0   40.07    1.16
   1 -12   0   38.36    1.16
  -1 -12   0   39.72    1.07
  -1 -12   0   38.62    1.09
  -1 -12   0   35.29    1.20
   1 -12   0   38.45    1.15
   1 -12   0   39.00    1.17
   1 -12   0   37.68    1.13
  -1 -12   0   37.94    1.12
  -1  12   0   38.57    1.11
   1  12   0   37.33    1.11
   1  12   0   39.33    1.19
  -1  12   0   39.32    1.15
  -1  12   0   34.49    1.18
  -1  12   0   38.81    1.18
   1  12   0   35.83    1.17
  -2 -12   0    1.87    0.23
  -2 -12   0    1.53    0.20
  -2 -12   0    1.82    0.23
   2 -12   0    1.49    0.20
  -2 -12   0    1.38    0.26
   2 -12   0    1.85    0.24
   2 -12   0    1.49    0.25
   2 -12   0    1.77    0.22
   2 -12   0    1.63    0.28
  -2  12   0    1.36    0.23
   2  12   0    2.47    0.32
  -2  12   0    1.50    0.23
   2  12   0    1.76    0.26
   2  12   0    1.53    0.19
  -2  12   0    1.56    0.22
   2  12   0    1.57    0.19
   3 -12   0   69.48    1.94
   3 -12   0   71.45    1.91
  -3 -12   0   69.68    1.99
   3 -12   0   69.46    2.14
  -3 -12   0   71.76    1.96
   3 -12   0   73.97    1.97
   3  12   0   69.43    2.09
  -3  12   0   65.09    2.05
   3  12   0   70.46    2.02
   3  12   0   70.20    1.91
   3  12   0   71.44    1.90
  -3  12   0   69.23    2.01
  -3  12   0   70.51    2.07
   3  12   0   70.98    1.92
   4 -12   0   19.70    0.99
  -4 -12   0   19.13    0.84
   4 -12   0   17.47    0.76
  -4 -12   0   16.93    0.97
   4 -12   0   18.44    0.71
  -4  12   0   19.54    0.88
   4  12   0   18.99    0.80
  -4  12   0   18.53    0.72
   4  12   0   18.98    0.72
   4  12   0   18.32    0.69
   4  12   0   19.03    0.75
   5 -12   0   11.41    0.75
  -5 -12   0   10.90    0.85
   5 -12   0   10.59    0.57
   5 -12   0   10.01    0.87
  -5 -12   0   10.45    0.60
   5  12   0   10.54    0.64
   5  12   0   10.45    0.66
  -5  12   0   10.56    0.76
  -5  12   0   11.19    0.58
   5  12   0   11.32    0.57
   5  12   0    9.96    0.65
   6 -12   0    0.24    0.56
   6 -12   0   -0.52    0.35
  -6 -12   0   -0.35    0.45
  -6  12   0   -0.39    0.37
   6  12   0    0.41    0.36
   6  12   0   -0.04    0.35
  -6  12   0   -0.13    0.32
   6  12   0    0.02    0.30
   0 -13   0   -0.06    0.14
   0 -13   0    0.12    0.14
   0 -13   0   -0.05    0.11
   0 -13   0    0.01    0.16
   0  13   0    0.00    0.13
   0  13   0   -0.08    0.12
   0  13   0    0.09    0.13
   0  13   0    0.04    0.13
   1 -13   0    4.56    0.34
   1 -13   0    3.66    0.32
   1 -13   0    3.94    0.33
  -1 -13   0    4.66    0.27
  -1 -13   0    4.10    0.37
  -1 -13   0    4.29    0.29
  -1 -13   0    4.40    0.34
   1 -13   0    4.31    0.35
  -1 -13   0    3.68    0.30
   1  13   0    4.10    0.35
  -1  13   0    4.11    0.30
  -1  13   0    4.06    0.33
   1  13   0    4.15    0.35
  -1  13   0    4.24    0.30
   1  13   0    4.15    0.29
  -1  13   0    4.48    0.35
   2 -13   0   56.79    1.63
   2 -13   0   59.79    1.69
   2 -13   0   57.48    1.72
  -2 -13   0   57.09    1.80
   2 -13   0   61.64    1.65
  -2 -13   0   59.49    1.68
  -2 -13   0   59.79    1.65
   2 -13   0   57.29    1.76
   2  13   0   58.74    1.62
  -2  13   0   60.31    1.67
  -2  13   0   58.17    1.67
  -2  13   0   58.76    1.75
   2  13   0   60.64    1.78
   2  13   0   57.84    1.57
   2  13   0   56.68    1.73
   3 -13   0   14.62    0.60
  -3 -13   0   13.16    0.60
  -3 -13   0   14.17    0.64
   3 -13   0   13.54    0.76
   3 -13   0   13.83    0.57
  -3 -13   0   13.56    0.75
   3  13   0   13.70    0.57
   3  13   0   13.68    0.55
   3  13   0   14.12    0.74
  -3  13   0   14.29    0.59
  -3  13   0   14.16    0.70
   3  13   0   14.03    0.55
   3  13   0   13.94    0.68
  -3  13   0   13.22    0.63
   4 -13   0   96.15    2.57
  -4 -13   0   95.33    2.89
  -4 -13   0   95.47    2.72
   4 -13   0   97.35    2.66
  -4  13   0   93.36    2.90
  -4  13   0   95.46    2.60
   4  13   0   95.51    2.71
   4  13   0   97.95    2.57
   4  13   0   97.04    2.60
   4  13   0   98.03    2.63
   5 -13   0   -0.08    0.25
  -5 -13   0    0.94    0.46
   5 -13   0   -0.39    0.36
   5  13   0    0.02    0.30
  -5  13   0    0.65    0.25
   5  13   0   -0.09    0.29
   5  13   0    0.18    0.27
  -5  13   0    0.00    0.33
   5  13   0    0.26    0.23
   6 -13   0   27.55    1.56
  -6 -13   0   28.42    1.49
  -6  13   0   27.98    1.32
  -6  13   0   30.93    1.29
   6  13   0   28.80    1.16
   6  13   0   30.03    1.09
   6  13   0   30.65    1.23
   0 -14   0   42.70    1.33
   0 -14   0   42.85    1.28
   0 -14   0   44.74    1.24
   0 -14   0   43.68    1.30
   0  14   0   41.33    1.29
   0  14   0   41.51    1.31
   0  14   0   41.65    1.28
  -1 -14   0   91.21    2.34
  -1 -14   0   88.32    2.36
   1 -14   0   90.18    2.43
  -1 -14   0   92.43    2.44
  -1 -14   0   89.55    2.41
  -1 -14   0   86.73    2.52
   1 -14   0   91.89    2.46
   1 -14   0   87.30    2.44
   1 -14   0   93.40    2.45
   1  14   0   89.51    2.40
  -1  14   0   90.45    2.41
   1  14   0   87.33    2.48
   1  14   0   90.61    2.48
  -1  14   0   91.79    2.40
  -1  14   0   88.15    2.47
  -1  14   0   89.35    2.44
   2 -14   0    1.16    0.26
   2 -14   0    1.26    0.23
  -2 -14   0    1.37    0.23
  -2 -14   0    1.09    0.20
  -2 -14   0    1.48    0.30
  -2 -14   0    1.44    0.24
   2 -14   0    1.62    0.26
   2 -14   0    1.52    0.27
  -2  14   0    1.27    0.22
   2  14   0    1.45    0.20
  -2  14   0    1.19    0.22
   2  14   0    1.46    0.18
   2  14   0    0.74    0.26
  -2  14   0    0.97    0.23
   2  14   0    1.48    0.27
   3 -14   0    9.02    0.48
  -3 -14   0    9.85    0.66
   3 -14   0   10.26    0.52
   3 -14   0    8.59    0.65
  -3 -14   0   10.48    0.55
  -3 -14   0   10.47    0.54
  -3  14   0    9.29    0.55
   3  14   0    9.25    0.64
  -3  14   0    9.52    0.52
   3  14   0    9.18    0.49
  -3  14   0    9.93    0.61
   3  14   0    9.24    0.45
   3  14   0    9.46    0.59
   3  14   0    9.46    0.44
  -4 -14   0    1.06    0.42
  -4 -14   0    1.26    0.35
   4 -14   0    1.86    0.44
   4 -14   0    1.30    0.32
   4 -14   0    1.14    0.24
  -4  14   0    0.89    0.30
   4  14   0    1.03    0.23
   4  14   0    1.36    0.32
   4  14   0    1.85    0.29
  -4  14   0    1.40    0.28
   4  14   0    1.78    0.28
   5 -14   0    6.23    0.84
  -5 -14   0    8.96    0.81
   5 -14   0    6.29    0.52
   5  14   0    6.48    0.49
   5  14   0    6.96    0.56
  -5  14   0    8.03    0.73
  -5  14   0    5.98    0.54
   5  14   0    6.10    0.60
   5  14   0    7.64    0.57
   6 -14   0    0.69    0.61
  -6 -14   0    0.03    0.55
   6  14   0    0.75    0.38
  -6  14   0    0.69    0.46
   6  14   0    0.67    0.42
   0 -15   0   -0.13    0.16
   0 -15   0    0.29    0.18
   0 -15   0    0.13    0.14
   0 -15   0    0.14    0.18
   0  15   0    0.25    0.16
   0  15   0    0.24    0.16
   0  15   0    0.02    0.16
  -1 -15   0    1.17    0.22
   1 -15   0    1.38    0.24
  -1 -15   0    1.13    0.24
  -1 -15   0    1.21    0.21
   1 -15   0    1.06    0.24
   1 -15   0    0.99    0.22
  -1 -15   0    1.39    0.20
   1 -15   0    0.75    0.20
   1  15   0    1.58    0.28
   1  15   0    1.33    0.24
  -1  15   0    1.43    0.26
   1  15   0    1.05    0.19
  -1  15   0    1.30    0.23
  -1  15   0    1.55    0.22
  -1  15   0    0.77    0.21
   2 -15   0   28.34    0.95
   2 -15   0   29.00    1.07
  -2 -15   0   29.00    0.96
  -2 -15   0   29.71    0.94
  -2 -15   0   27.10    1.10
   2 -15   0   27.80    1.01
  -2 -15   0   29.41    0.99
   2 -15   0   27.10    0.99
   2  15   0   29.11    0.92
   2  15   0   28.55    1.07
  -2  15   0   28.44    1.04
   2  15   0   28.18    1.05
  -2  15   0   28.09    0.97
  -2  15   0   27.40    0.94
   3 -15   0    8.03    0.65
  -3 -15   0    8.84    0.53
   3 -15   0    8.36    0.48
  -3 -15   0    9.27    0.67
  -3 -15   0    8.75    0.53
   3 -15   0    8.64    0.51
   3  15   0    9.81    0.61
  -3  15   0    9.28    0.60
  -3  15   0    8.30    0.51
   3  15   0    8.68    0.44
   3  15   0    8.20    0.49
   3  15   0    9.12    0.44
   4 -15   0   10.02    0.82
   4 -15   0    9.39    0.64
   4 -15   0    8.97    0.52
  -4 -15   0   10.18    0.67
   4  15   0    8.67    0.66
   4  15   0    8.67    0.56
   4  15   0    9.56    0.50
  -4  15   0    9.88    0.70
   4  15   0    9.76    0.51
  -4  15   0    9.29    0.58
  -5 -15   0    0.07    0.42
   5 -15   0    0.82    0.48
   5 -15   0    0.63    0.28
  -5  15   0    0.12    0.27
  -5  15   0   -0.13    0.36
   5  15   0    0.18    0.35
   5  15   0    0.16    0.23
   5  15   0    0.06    0.27
   6 -15   0   18.76    1.03
   6 -15   0   19.00    1.39
  -6 -15   0   20.33    1.33
   6  15   0   20.18    0.99
  -6  15   0   19.54    1.16
   6  15   0   19.21    1.40
   0 -16   0    3.69    0.37
   0 -16   0    3.33    0.37
   0 -16   0    3.71    0.31
   0 -16   0    3.29    0.37
   0  16   0    3.86    0.34
   0  16   0    3.25    0.35
   0  16   0    3.34    0.38
  -1 -16   0  124.34    3.38
   1 -16   0  125.46    3.41
   1 -16   0  129.29    3.41
  -1 -16   0  131.36    3.30
  -1 -16   0  131.43    3.41
   1 -16   0  123.99    3.42
   1 -16   0  129.98    3.42
  -1 -16   0  123.53    3.32
  -1 -16   0  126.56    3.51
  -1  16   0  130.75    3.45
  -1  16   0  128.54    3.42
   1  16   0  134.02    3.47
   1  16   0  128.07    3.47
   1  16   0  128.82    3.37
  -1  16   0  130.92    3.38
  -1  16   0  131.20    3.37
   2 -16   0    1.23    0.25
  -2 -16   0    1.43    0.34
  -2 -16   0    1.35    0.27
  -2 -16   0    1.64    0.25
  -2 -16   0    1.52    0.20
   2 -16   0    1.11    0.26
   2 -16   0    1.70    0.32
  -2 -16   0    1.66    0.25
   2  16   0    1.37    0.31
   2  16   0    1.22    0.30
  -2  16   0    1.37    0.28
  -2  16   0    1.29    0.25
  -2  16   0    1.11    0.26
   2  16   0    1.16    0.22
   3 -16   0   48.43    1.46
  -3 -16   0   49.90    1.67
   3 -16   0   47.92    1.69
   3 -16   0   48.11    1.49
  -3 -16   0   49.90    1.52
   3  16   0   47.65    1.61
  -3  16   0   46.53    1.49
   3  16   0   47.89    1.43
   3  16   0   50.74    1.47
  -3  16   0   49.16    1.62
   3  16   0   49.97    1.40
  -4 -16   0    0.15    0.33
   4 -16   0    0.59    0.34
   4 -16   0   -0.08    0.39
   4 -16   0   -0.15    0.24
   4  16   0   -0.15    0.27
   4  16   0    0.04    0.22
  -4  16   0    0.35    0.24
   4  16   0    0.10    0.21
   4  16   0    0.64    0.30
  -4  16   0    0.55    0.32
   5 -16   0   -0.58    0.50
  -5 -16   0   -0.04    0.48
   5 -16   0   -0.01    0.29
  -5  16   0   -0.32    0.35
   5  16   0    0.20    0.30
   5  16   0    0.48    0.39
   5  16   0    0.23    0.25
  -5  16   0    0.33    0.29
  -6 -16   0    1.48    0.61
   6 -16   0    0.50    0.67
  -6  16   0    0.05    0.50
   6  16   0    1.35    0.45
   0 -17   0    0.08    0.15
   0 -17   0    0.12    0.22
   0 -17   0    0.25    0.18
   0 -17   0    0.26    0.22
   0 -17   0    0.25    0.19
   0  17   0   -0.25    0.15
   0  17   0   -0.02    0.18
   0  17   0    0.09    0.17
  -1 -17   0    0.36    0.19
  -1 -17   0    0.10    0.21
  -1 -17   0    0.17    0.24
  -1 -17   0   -0.01    0.19
  -1 -17   0    0.09    0.14
   1 -17   0    0.24    0.23
   1 -17   0   -0.06    0.21
   1 -17   0    0.21    0.20
   1 -17   0    0.35    0.20
   1  17   0    0.31    0.22
  -1  17   0   -0.10    0.18
  -1  17   0    0.14    0.17
  -1  17   0    0.28    0.19
   1  17   0   -0.20    0.22
  -1  17   0   -0.02    0.18
   1  17   0    0.25    0.17
  -2 -17   0   14.84    0.80
  -2 -17   0   14.65    0.56
  -2 -17   0   14.17    0.62
  -2 -17   0   13.97    0.68
  -2 -17   0   14.27    0.64
   2 -17   0   13.81    0.71
   2 -17   0   13.97    0.85
   2 -17   0   14.76    0.76
   2 -17   0   14.39    0.65
   2  17   0   13.79    0.75
   2  17   0   14.37    0.61
  -2  17   0   13.32    0.62
  -2  17   0   13.17    0.71
   2  17   0   14.41    0.75
  -2  17   0   15.51    0.67
  -2  17   0   14.10    0.68
   3 -17   0    0.90    0.33
   3 -17   0    1.46    0.30
  -3 -17   0    2.06    0.35
   3 -17   0    1.75    0.31
   3  17   0    1.39    0.25
  -3  17   0    1.76    0.31
   3  17   0    2.03    0.31
   3  17   0    1.79    0.25
  -3  17   0    1.97    0.50
   3  17   0    1.85    0.38
   4 -17   0   47.96    1.52
   4 -17   0   48.64    1.61
  -4 -17   0   50.74    1.64
   4 -17   0   48.65    1.87
   4  17   0   50.66    1.56
   4  17   0   49.60    1.72
   4  17   0   49.91    1.49
   4  17   0   52.34    1.51
  -4  17   0   48.13    1.57
  -4  17   0   51.16    1.76
   5 -17   0    3.81    0.71
   5 -17   0    4.01    0.46
  -5 -17   0    3.13    0.67
   5  17   0    4.16    0.50
  -5  17   0    3.76    0.56
   5  17   0    5.18    0.69
   5  17   0    4.45    0.48
   6  17   0   25.25    1.07
  -6  17   0   22.42    1.34
   0 -18   0    2.09    0.36
   0 -18   0    2.31    0.32
   0 -18   0    1.76    0.26
   0 -18   0    1.91    0.29
   0 -18   0    1.55    0.28
   0  18   0    1.89    0.29
   0  18   0    1.68    0.28
   0  18   0    1.82    0.30
  -1 -18   0  253.29    6.23
   1 -18   0  251.99    6.38
  -1 -18   0  247.13    6.49
   1 -18   0  250.63    6.40
   1 -18   0  253.31    6.40
  -1 -18   0  239.70    6.28
  -1 -18   0  244.39    6.35
  -1 -18   0  257.78    6.38
   1 -18   0  244.94    6.40
   1  18   0  248.22    6.34
   1  18   0  252.68    6.46
   1  18   0  252.42    6.42
  -1  18   0  251.10    6.35
  -1  18   0  248.66    6.42
  -1  18   0  246.16    6.39
  -1  18   0  257.31    6.33
   2 -18   0    0.10    0.23
  -2 -18   0    0.19    0.30
  -2 -18   0    0.10    0.23
  -2 -18   0   -0.04    0.18
   2 -18   0    0.46    0.29
  -2 -18   0    0.11    0.24
  -2 -18   0    0.21    0.24
  -2  18   0    0.34    0.23
  -2  18   0    0.50    0.24
   2  18   0   -0.03    0.25
  -2  18   0    0.07    0.22
   2  18   0    0.24    0.18
  -2  18   0   -0.01    0.21
  -3 -18   0   49.75    1.57
   3 -18   0   50.48    1.78
   3 -18   0   50.48    1.55
   3 -18   0   51.05    1.59
   3  18   0   51.93    1.46
  -3  18   0   50.50    1.71
   3  18   0   52.93    1.53
  -3  18   0   49.89    1.60
   3  18   0   50.15    1.56
   3  18   0   48.49    1.72
   4 -18   0    2.20    0.37
  -4 -18   0    3.29    0.48
   4 -18   0    3.04    0.60
  -4  18   0    2.35    0.47
   4  18   0    2.60    0.33
   4  18   0    2.44    0.33
   4  18   0    2.51    0.40
  -4  18   0    2.96    0.49
   5 -18   0    0.06    0.57
   5 -18   0    0.97    0.34
  -5 -18   0    0.27    0.53
  -5  18   0    0.13    0.43
   5  18   0   -0.66    0.45
   5  18   0    0.34    0.29
   5  18   0    0.06    0.28
   0 -19   0   -0.11    0.23
   0 -19   0    0.06    0.19
   0 -19   0    0.00    0.17
   0 -19   0    0.13    0.23
   0 -19   0    0.10    0.27
   0  19   0    0.08    0.20
   0  19   0    0.26    0.23
   0  19   0    0.73    0.25
  -1 -19   0    9.47    0.59
  -1 -19   0    9.46    0.53
   1 -19   0    9.89    0.61
  -1 -19   0   10.65    0.73
   1 -19   0   10.63    0.59
   1 -19   0   10.92    0.74
  -1 -19   0   10.77    0.47
  -1 -19   0   10.01    0.70
  -1  19   0   10.54    0.62
   1  19   0    9.33    0.62
  -1  19   0    9.92    0.57
   1  19   0    9.97    0.66
  -1  19   0   10.04    0.61
   1  19   0   10.19    0.55
  -1  19   0   10.06    0.55
  -2 -19   0   21.45    1.06
   2 -19   0   21.41    0.87
  -2 -19   0   21.08    0.82
  -2 -19   0   21.09    0.75
   2 -19   0   21.46    0.96
  -2 -19   0   20.10    0.88
   2  19   0   21.09    0.97
  -2  19   0   21.14    0.90
   2  19   0   21.35    0.83
  -2  19   0   22.01    0.94
  -2  19   0   22.71    0.96
  -2  19   0   19.19    0.83
   3 -19   0    3.51    0.42
  -3 -19   0    3.39    0.49
   3 -19   0    3.46    0.61
   3 -19   0    3.35    0.44
  -3  19   0    3.63    0.48
   3  19   0    2.58    0.57
   3  19   0    2.84    0.39
  -3  19   0    3.40    0.47
   4 -19   0   47.48    1.89
  -4 -19   0   48.00    1.60
   4 -19   0   46.95    1.53
   4  19   0   45.53    1.55
   4  19   0   45.83    1.75
  -4  19   0   47.78    1.58
   4  19   0   48.28    1.43
  -4  19   0   47.74    1.75
   4  19   0   49.40    1.48
  -5 -19   0    0.55    0.58
   5 -19   0    0.74    0.40
   5 -19   0    0.63    0.60
  -5  19   0   -0.36    0.45
   5  19   0    1.02    0.33
   5  19   0    0.64    0.32
   5  19   0    1.08    0.53
   0 -20   0    1.95    0.36
   0 -20   0    1.20    0.33
   0 -20   0    2.59    0.33
   0 -20   0    2.71    0.34
   0  20   0    2.50    0.35
   0  20   0    2.27    0.39
   0  20   0    2.28    0.33
   1 -20   0   42.30    1.45
   1 -20   0   43.33    1.42
  -1 -20   0   42.20    1.34
  -1 -20   0   41.82    1.55
  -1 -20   0   44.03    1.28
  -1 -20   0   41.77    1.41
   1  20   0   43.01    1.39
  -1  20   0   44.74    1.47
   1  20   0   49.88    1.97
  -1  20   0   41.64    1.35
  -1  20   0   42.18    1.46
  -1  20   0   43.06    1.41
   1  20   0   46.18    1.54
  -2 -20   0   11.44    0.84
   2 -20   0   12.33    0.70
  -2 -20   0   12.95    0.65
  -2 -20   0   11.20    0.70
   2 -20   0   13.26    0.77
  -2 -20   0   12.19    0.55
  -2  20   0   12.99    0.75
   2  20   0   12.29    0.62
  -3 -20   0   16.71    0.67
  -3 -20   0   17.21    0.80
   3 -20   0   16.73    0.99
   3 -20   0   17.92    0.87
   3 -20   0   16.59    0.79
   3  20   0   16.80    0.74
   3  20   0   16.54    0.99
  -3  20   0   17.35    0.90
  -3  20   0   15.90    0.84
   4 -20   0    0.71    0.33
   4 -20   0    0.88    0.54
  -4 -20   0    0.67    0.46
   4  20   0    0.78    0.46
   4  20   0    0.62    0.26
   4  20   0    0.69    0.28
  -4  20   0    1.01    0.40
   5 -20   0    8.25    1.13
  -5 -20   0    8.68    1.14
   5 -20   0    8.43    0.74
   5  20   0    9.71    0.63
   5  20   0    8.01    0.99
  -5  20   0    7.09    0.92
  -5  20   0    8.38    0.79
   0 -21   0    0.22    0.28
   0 -21   0    0.16    0.21
   0 -21   0    0.23    0.25
   0  21   0   -0.26    0.26
   0  21   0    0.60    0.25
   1 -21   0   46.63    1.51
   1 -21   0   47.31    1.57
  -1 -21   0   47.07    1.36
  -1 -21   0   44.78    1.43
  -1 -21   0   46.40    1.67
  -1 -21   0   46.31    1.66
  -1  21   0   45.04    1.44
   1  21   0   47.76    1.50
  -1  21   0   47.69    1.58
  -1  21   0   44.80    1.55
   1  21   0   47.01    1.62
  -2 -21   0   20.78    0.87
   2 -21   0   22.39    0.93
  -2 -21   0   18.85    0.93
   2 -21   0   22.16    1.02
  -2 -21   0   21.43    0.77
   2  21   0   21.96    0.87
   2  21   0   22.28    1.05
  -2  21   0   21.85    1.01
  -2  21   0   20.43    0.94
   3 -21   0   24.52    1.03
   3 -21   0   23.59    1.20
  -3 -21   0   24.63    1.30
  -3 -21   0   23.99    0.87
   3 -21   0   23.99    1.07
  -3 -21   0   26.29    1.02
   3  21   0   24.01    1.20
   3  21   0   25.35    0.96
  -3  21   0   23.75    1.11
   4 -21   0   30.05    1.51
   4 -21   0   30.05    1.17
  -4 -21   0   27.83    1.46
   4  21   0   28.81    1.41
  -4  21   0   30.82    1.37
   4  21   0   31.00    1.10
  -4  21   0   26.94    1.34
  -5 -21   0   15.45    1.31
   5 -21   0   17.10    1.39
  -5  21   0   16.34    1.21
  -5  21   0   15.05    0.99
   5  21   0   17.18    1.23
   0 -22   0   41.88    1.33
   0 -22   0   43.76    1.31
   0 -22   0   38.54    1.48
   0  22   0   39.47    1.39
  -1 -22   0    9.27    0.59
   1 -22   0    9.32    0.64
   1 -22   0    8.23    0.65
  -1 -22   0    9.23    0.51
  -1 -22   0    9.79    0.77
  -1  22   0    9.11    0.57
  -1  22   0   10.63    1.04
   1  22   0    9.46    0.74
   1  22   0    9.49    0.60
  -1  22   0    9.78    0.69
  -2 -22   0   17.21    1.09
   2 -22   0   15.37    0.88
  -2 -22   0   16.41    0.66
   2 -22   0   15.99    0.85
  -2 -22   0   15.11    0.77
  -2  22   0   16.52    0.90
   2  22   0   16.15    0.76
   2  22   0   16.75    0.95
   3 -22   0   25.16    1.07
  -3 -22   0   26.45    0.95
   3 -22   0   27.26    1.30
  -3 -22   0   25.56    1.37
   3  22   0   26.09    1.30
   3  22   0   27.93    1.04
  -3  22   0   28.11    1.22
   4 -22   0    2.57    0.64
  -4 -22   0    3.00    0.70
   4 -22   0    2.24    0.45
   4  22   0    1.63    0.56
   4  22   0    2.32    0.39
  -4  22   0    1.95    0.48
  -4  22   0    2.57    0.55
   5 -22   0    3.00    0.79
  -5  22   0    4.10    0.57
   5  22   0    3.02    0.69
   0 -23   0    0.63    0.29
   0 -23   0    0.37    0.29
   1 -23   0    0.39    0.32
  -1 -23   0   -0.06    0.22
   1 -23   0    0.24    0.34
  -1 -23   0    0.19    0.30
  -1 -23   0    0.43    0.44
  -1  23   0    0.27    0.31
  -1  23   0    0.35    0.29
   1  23   0   -0.04    0.24
   1  23   0    0.31    0.33
  -2 -23   0    2.67    0.61
   2 -23   0    2.68    0.48
   2 -23   0    2.53    0.45
  -2 -23   0    3.24    0.39
  -2 -23   0    3.26    0.46
   2  23   0    2.71    0.39
   2  23   0    3.22    0.53
  -2  23   0    3.20    0.50
  -3 -23   0   12.00    0.62
  -3 -23   0    9.72    1.05
   3 -23   0   11.21    0.95
   3 -23   0   12.25    0.82
   3  23   0   11.59    0.69
   3  23   0   12.62    1.00
  -3  23   0   10.34    0.84
  -3  23   0   11.21    0.78
  -4 -23   0   16.03    1.20
   4 -23   0   17.80    1.28
   4  23   0   14.01    1.15
  -4  23   0   16.92    1.08
  -4  23   0   15.86    0.95
   4  23   0   15.07    0.83
   0 -24   0   58.83    2.06
   0 -24   0   64.33    1.86
   0 -24   0   64.21    1.87
   0  24   0   62.26    1.99
   1 -24   0   31.01    1.21
  -1 -24   0   29.99    1.03
  -1 -24   0   30.88    1.12
  -1  24   0   31.09    1.26
   1  24   0   31.43    1.32
  -1  24   0   31.03    1.28
   2 -24   0   26.06    1.12
   2 -24   0   21.51    1.32
  -2 -24   0   24.84    1.31
  -2 -24   0   23.99    0.86
  -2  24   0   25.48    1.15
   2  24   0   23.80    1.01
  -2  24   0   24.77    1.13
   2  24   0   24.93    1.24
  -3 -24   0   17.36    1.24
   3 -24   0   17.08    1.11
   3 -24   0   18.00    1.12
  -3 -24   0   16.83    0.75
   3  24   0   16.56    0.85
   3  24   0   17.59    1.16
  -3  24   0   17.12    1.04
  -3  24   0   16.05    0.97
  -4 -24   0    4.15    0.83
   4 -24   0    3.82    0.56
   4 -24   0    2.83    0.70
   4  24   0    2.58    0.67
  -4  24   0    2.22    0.51
  -4  24   0    3.01    0.63
   0 -25   0    0.61    0.31
   0  25   0    1.00    0.35
  -1 -25   0    2.01    0.33
  -1 -25   0    1.93    0.40
  -1 -25   0    1.57    0.51
   1 -25   0    1.62    0.47
   1 -25   0    2.19    0.44
   1  25   0    1.79    0.40
  -1  25   0    1.93    0.48
  -1  25   0    2.96    0.48
   1  25   0    1.87    0.45
   2 -25   0    1.23    0.46
   2 -25   0    1.60    0.45
  -2 -25   0    1.30    0.29
  -2 -25   0    0.82    0.57
  -2  25   0    1.89    0.45
  -2  25   0    1.01    0.38
   2  25   0   -0.12    0.44
   2  25   0    1.22    0.35
   3 -25   0   10.64    0.89
  -3 -25   0   11.25    1.14
   3 -25   0   11.04    1.00
   3  25   0    9.51    1.05
   3  25   0   10.66    0.75
  -3  25   0    9.79    0.90
  -3  25   0   11.79    0.91
   4 -25   0    8.75    1.14
   4  25   0    8.18    1.11
  -4  25   0   10.35    1.27
  -4  25   0    7.82    0.91
   0 -26   0   52.19    2.22
   0 -26   0   61.15    1.83
   0  26   0   59.74    2.29
   0  26   0   60.99    1.96
   1 -26   0   22.04    1.03
  -1 -26   0   20.88    0.85
  -1 -26   0   21.63    1.23
  -1  26   0   20.04    1.10
   1  26   0   20.88    1.15
   1  26   0   22.62    1.02
  -1  26   0   22.26    1.07
  -2 -26   0   22.89    1.39
  -2 -26   0   25.11    0.90
   2 -26   0   23.71    1.20
   2  26   0   22.10    1.03
   2  26   0   22.07    1.26
  -2  26   0   22.91    1.18
  -2  26   0   24.71    1.19
   3 -26   0   10.95    1.03
  -3 -26   0   12.98    1.18
   3  26   0   12.21    0.81
  -3  26   0   12.04    0.95
   3  26   0   11.07    1.12
  -3  26   0   13.06    1.02
   0 -27   0    0.71    0.52
   0 -27   0    1.36    0.36
   0  27   0   -0.09    0.42
   0  27   0    0.65    0.37
  -1 -27   0    0.54    0.54
  -1 -27   0    0.93    0.35
   1 -27   0    0.58    0.47
   1 -27   0    1.53    0.47
  -1  27   0    0.58    0.39
  -1  27   0    0.91    0.44
   1  27   0    0.59    0.35
   1  27   0    0.72    0.46
   2 -27   0    0.24    0.48
  -2 -27   0    0.05    0.59
   2  27   0   -0.12    0.35
   2  27   0   -0.32    0.49
  -2  27   0   -0.06    0.41
  -2  27   0    0.29    0.45
  -3 -27   0   10.38    1.20
   3 -27   0   11.25    1.08
   3  27   0   10.12    1.13
  -3  27   0   11.60    1.02
   3  27   0   11.16    0.83
  -3  27   0   11.20    0.96
   0 -28   0   39.60    1.73
   0 -28   0   43.34    1.47
   0  28   0   40.78    1.69
   0  28   0   43.13    1.61
   1 -28   0    8.19    0.83
   1 -28   0    8.84    0.84
  -1 -28   0    7.99    0.91
   1  28   0    9.46    0.83
  -1  28   0    8.76    0.84
  -1  28   0    8.84    0.87
   1  28   0    9.34    0.95
   2 -28   0   26.14    1.32
  -2 -28   0   24.35    1.50
   2 -28   0   28.64    1.34
   2  28   0   25.84    1.18
  -2  28   0   23.22    1.28
   2  28   0   23.90    1.38
  -2  28   0   26.65    1.35
   0 -29   0    0.25    0.57
   0 -29   0    0.53    0.48
   0  29   0    0.12    0.45
   0  29   0    0.69    0.46
   1 -29   0   14.60    1.12
   1 -29   0   14.40    0.98
  -1 -29   0   15.00    1.22
  -1  29   0   13.80    1.11
   1  29   0   14.42    1.18
   1  29   0   15.69    1.00
   2 -29   0    0.73    0.59
   2 -29   0    1.50    0.58
  -2 -29   0    2.03    0.71
   2  29   0    1.98    0.49
  -2  29   0    2.48    0.58
   2  29   0    1.01    0.61
  -2  29   0    1.27    0.53
   0 -30   0   15.72    1.20
   0  30   0   16.52    1.09
  -1 -30   0    1.36    0.68
   1 -30   0    0.58    0.54
   1 -30   0    2.87    0.68
   1  30   0    0.41    0.49
  -1  30   0    1.02    0.51
  -7   0   1    1.10    0.38
  -7   0   1    1.64    0.47
   7   0  -1    1.36    0.61
  -6   0   1    0.08    0.29
  -6   0   1    0.12    0.22
   6   0  -1   -0.18    0.35
   6   0  -1   -0.07    0.44
  -6   0   1    0.20    0.30
  -6   0   1   -0.22    0.22
   5   0  -1   14.18    0.81
  -5   0   1   14.42    0.64
  -5   0   1   14.30    0.60
  -5   0   1   14.11    0.68
   5   0  -1   14.83    0.72
   5   0  -1   13.43    0.62
  -5   0   1   15.09    0.62
   4   0  -1   -0.15    0.19
   4   0  -1    0.06    0.13
  -4   0   1    0.02    0.12
  -4   0   1    0.12    0.15
  -4   0   1    0.02    0.12
  -4   0   1    0.00    0.16
  -4   0   1   -0.26    0.20
   4   0  -1   -0.14    0.15
  -3   0   1  143.66    3.74
  -3   0   1  147.57    3.76
  -3   0   1  155.96    3.78
   3   0  -1  148.71    3.76
   3   0  -1  145.53    3.71
  -3   0   1  153.00    3.87
  -3   0   1  142.02    3.70
  -2   0   1    0.12    0.10
   2   0  -1    0.15    0.10
   2   0  -1    0.07    0.07
  -2   0   1   -0.03    0.08
   2   0  -1    0.02    0.06
  -2   0   1    0.03    0.06
  -2   0   1    0.04    0.06
  -1   0   1    7.43    0.29
  -1   0   1    7.49    0.24
   1   0  -1    7.49    0.29
  -1   0   1    7.54    0.23
   1   0  -1    7.42    0.29
   1   0  -1    7.63    0.23
   1   0  -1    7.86    0.24
   0   0  -1    0.04    0.03
   0   0   1   -0.03    0.03
   0   0   1    0.00    0.04
   0   0   1    0.07    0.04
   0   0  -1   -0.05    0.03
   0   0  -1    0.04    0.03
   0   0   1   -0.01    0.03
   0   0   1    0.00    0.03
  -1   0  -1  312.54    7.80
   1   0   1  323.33    7.79
  -2   0  -1   -0.12    0.10
   2   0   1   -0.07    0.10
   2   0   1   -0.05    0.09
  -2   0  -1    0.03    0.09
  -2   0  -1   -0.02    0.10
   3   0   1  162.34    4.16
   3   0   1  161.63    4.10
  -3   0  -1  165.17    4.13
  -3   0  -1  155.18    3.88
   3   0   1  158.72    4.17
  -3   0  -1  156.83    4.09
  -3   0  -1  158.63    4.14
  -3   0  -1  160.39    3.89
   4   0   1    0.07    0.22
   4   0   1   -0.03    0.20
  -4   0  -1    0.30    0.22
  -4   0  -1   -0.11    0.16
  -4   0  -1   -0.05    0.07
  -4   0  -1   -0.03    0.06
  -4   0  -1    0.03    0.21
   4   0   1   -0.18    0.23
  -5   0  -1   17.13    0.78
  -5   0  -1   17.09    0.91
   5   0   1   16.52    0.92
   6   0   1   -0.03    0.40
  -6   0  -1    0.01    0.31
  -6   0  -1    0.28    0.37
   7  -1  -1    1.20    0.57
  -7  -1   1    0.34    0.45
  -7  -1   1    0.38    0.37
  -7   1   1    1.01    0.43
  -7   1   1    1.00    0.36
   7   1  -1    0.13    0.49
  -6  -1   1   50.72    1.67
   6  -1  -1   46.93    1.60
  -6  -1   1   51.12    1.53
  -6  -1   1   49.93    1.49
   6  -1  -1   47.27    1.67
   6  -1  -1   52.22    1.86
  -6  -1   1   50.24    1.53
   6   1  -1   50.44    1.83
  -6   1   1   49.22    1.62
  -6   1   1   50.85    1.56
  -6   1   1   50.29    1.49
   6   1  -1   48.34    1.99
  -6   1   1   50.34    1.55
  -5  -1   1    0.95    0.24
  -5  -1   1    1.28    0.30
   5  -1  -1    0.90    0.31
   5  -1  -1    1.26    0.30
  -5  -1   1    1.35    0.23
   5  -1  -1    1.12    0.26
  -5  -1   1    1.41    0.26
  -5   1   1    0.89    0.26
  -5   1   1    1.30    0.23
  -5   1   1    1.42    0.26
  -5   1   1    1.14    0.23
   5   1  -1    1.16    0.23
   5   1  -1    1.22    0.31
   5   1  -1    1.24    0.33
  -4  -1   1   77.31    2.09
   4  -1  -1   81.27    2.16
   4  -1  -1   77.88    2.10
  -4  -1   1   80.24    2.13
  -4  -1   1   77.14    2.16
   4  -1  -1   74.86    2.27
  -4  -1   1   76.08    2.25
  -4  -1   1   78.26    2.07
  -4   1   1   77.27    2.09
  -4   1   1   75.79    2.08
   4   1  -1   75.19    2.26
   4   1  -1   81.92    2.18
   4   1  -1   77.36    2.07
  -4   1   1   77.41    2.13
  -4   1   1   80.40    2.14
  -4   1   1   78.36    2.27
  -3  -1   1   12.48    0.42
   3  -1  -1   11.71    0.46
  -3  -1   1   11.94    0.47
   3  -1  -1   11.28    0.54
  -3  -1   1   11.24    0.54
   3  -1  -1   11.80    0.44
  -3  -1   1   11.43    0.47
  -3   1   1   12.54    0.48
   3   1  -1   11.91    0.47
   3   1  -1   11.45    0.41
  -3   1   1   11.18    0.44
  -3   1   1   11.82    0.44
   3   1  -1   11.43    0.53
  -3   1   1   11.85    0.43
  -3   1   1   11.79    0.55
   2  -1  -1   77.30    1.95
  -2  -1   1   74.87    1.92
   2  -1  -1   76.39    1.95
  -2  -1   1   78.62    2.01
  -2  -1   1   78.00    2.05
   2  -1  -1   76.90    2.05
  -2   1   1   78.08    2.01
  -2   1   1   76.90    1.95
   2   1  -1   75.69    1.98
  -2   1   1   77.54    2.05
  -2   1   1   76.20    1.98
   2   1  -1   74.91    2.00
   2   1  -1   76.25    1.92
  -2   1   1   76.59    1.95
  -1  -1   1   67.26    1.70
  -1  -1   1   69.89    1.75
   1  -1  -1   68.68    1.70
  -1  -1   1   70.89    1.78
   1  -1  -1   69.00    1.73
   1  -1  -1   70.69    1.78
  -1   1   1   69.56    1.78
  -1   1   1   69.83    1.77
   1   1  -1   69.13    1.78
  -1   1   1   67.78    1.74
  -1   1   1   69.19    1.71
   1   1  -1   67.42    1.71
   1   1  -1   67.34    1.78
   1   1  -1   70.90    1.75
   0  -1  -1    2.98    0.14
   0  -1   1    2.56    0.15
   0  -1   1    2.93    0.13
   0  -1   1    2.80    0.14
   0  -1   1    2.83    0.13
   0  -1  -1    2.93    0.13
   0   1   1    2.86    0.14
   0   1  -1    2.87    0.13
   0   1   1    2.94    0.12
   0   1  -1    2.83    0.13
   0   1   1    2.76    0.13
   0   1   1    2.78    0.12
   0   1   1    2.93    0.14
   0   1   1    2.82    0.14
   0   1  -1    3.03    0.14
  -1  -1  -1  210.29    5.23
   1  -1   1  215.29    5.23
   1  -1   1  208.65    5.21
   1  -1   1  214.17    5.21
  -1  -1  -1  211.91    5.18
   1   1   1  218.69    5.24
   1   1   1  205.31    5.19
   1   1   1  205.90    5.21
  -1   1  -1  211.91    5.22
  -1   1  -1  211.52    5.20
  -1   1  -1  207.62    5.21
  -2  -1  -1   18.87    0.48
   2  -1   1   17.19    0.64
   2  -1   1   19.52    0.63
  -2  -1  -1   18.15    0.65
  -2  -1  -1   19.43    0.62
  -2  -1  -1   18.62    0.62
  -2   1  -1   18.70    0.64
   2   1   1   18.51    0.63
  -2   1  -1   19.15    0.63
   2   1   1   18.03    0.67
   3  -1   1    5.70    0.41
   3  -1   1    6.09    0.42
  -3  -1  -1    6.33    0.20
  -3  -1  -1    6.32    0.39
   3  -1   1    6.22    0.37
  -3  -1  -1    5.74    0.36
  -3  -1  -1    6.01    0.41
  -3  -1  -1    5.89    0.20
   3   1   1    5.94    0.43
  -3   1  -1    6.18    0.20
   3   1   1    6.45    0.38
  -3   1  -1    6.01    0.19
  -3   1  -1    6.06    0.40
  -3   1  -1    6.06    0.37
   3   1   1    6.12    0.40
  -3   1  -1    6.91    0.40
  -4  -1  -1   34.24    0.88
   4  -1   1   34.54    1.25
  -4  -1  -1   32.98    1.18
  -4  -1  -1   34.68    0.89
  -4  -1  -1   35.23    1.13
   4  -1   1   33.66    1.15
   4  -1   1   34.08    1.22
  -4  -1  -1   33.91    1.17
  -4   1  -1   35.61    0.89
   4   1   1   34.69    1.23
  -4   1  -1   34.69    1.18
  -4   1  -1   34.01    0.88
  -4   1  -1   33.80    1.14
   4   1   1   35.33    1.25
   4   1   1   34.01    1.13
  -4   1  -1   35.16    1.18
  -5  -1  -1    4.23    0.46
  -5   1  -1    3.59    0.46
   5   1   1    3.38    0.49
  -5   1  -1    3.51    0.45
  -6  -1  -1   24.93    1.05
  -6  -1  -1   25.03    1.19
   6  -1   1   24.34    1.26
  -6   1  -1   24.56    1.07
  -6   1  -1   23.32    1.14
   6   1   1   25.65    1.24
  -7  -2   1    0.86    0.35
   7  -2  -1   -0.21    0.51
  -7  -2   1    0.39    0.48
   7   2  -1   -0.37    0.44
  -7   2   1    0.61    0.42
  -7   2   1   -0.30    0.31
  -6  -2   1    6.00    0.62
  -6  -2   1    7.08    0.50
   6  -2  -1    6.62    0.67
  -6  -2   1    6.21    0.54
  -6  -2   1    5.72    0.48
   6  -2  -1    6.07    0.74
  -6   2   1    4.84    0.54
  -6   2   1    5.71    0.45
  -6   2   1    5.89    0.52
   6   2  -1    6.13    0.69
   6   2  -1    5.09    0.55
  -6   2   1    5.08    0.55
  -5  -2   1    0.25    0.25
  -5  -2   1    0.55    0.22
  -5  -2   1    0.04    0.19
   5  -2  -1   -0.03    0.29
  -5  -2   1    0.31    0.18
   5  -2  -1    0.72    0.28
   5  -2  -1    0.79    0.22
  -5   2   1    0.45    0.22
   5   2  -1    0.51    0.20
  -5   2   1    0.28    0.17
  -5   2   1    0.23    0.21
   5   2  -1    0.04    0.25
   5   2  -1    0.24    0.28
  -5   2   1    0.43    0.22
  -4  -2   1    0.37    0.16
  -4  -2   1    0.46    0.18
   4  -2  -1   -0.02    0.17
   4  -2  -1   -0.05    0.18
   4  -2  -1    0.27    0.15
  -4  -2   1    0.25    0.13
  -4  -2   1    0.08    0.14
  -4  -2   1    0.46    0.25
   4   2  -1    0.23    0.14
   4   2  -1    0.02    0.18
  -4   2   1    0.06    0.16
  -4   2   1    0.17    0.18
   4   2  -1    0.06    0.18
  -4   2   1    0.17    0.14
  -4   2   1    0.34    0.14
  -4   2   1    0.26    0.23
  -3  -2   1   13.30    0.58
  -3  -2   1   13.88    0.51
   3  -2  -1   13.16    0.48
  -3  -2   1   13.41    0.52
  -3  -2   1   12.19    0.48
   3  -2  -1   13.06    0.48
   3  -2  -1   12.88    0.58
   3   2  -1   12.32    0.56
  -3   2   1   13.25    0.58
   3   2  -1   13.60    0.52
  -3   2   1   13.46    0.52
  -3   2   1   12.84    0.47
   3   2  -1   12.80    0.43
   3   2  -1   12.70    0.52
  -3   2   1   13.65    0.47
  -3   2   1   12.39    0.47
  -2  -2   1    0.02    0.08
  -2  -2   1    0.12    0.08
  -2  -2   1    0.10    0.05
   2  -2  -1    0.09    0.07
   2  -2  -1    0.02    0.06
   2  -2  -1    0.04    0.09
  -2  -2   1    0.11    0.10
  -2   2   1    0.08    0.06
   2   2  -1    0.08    0.08
   2   2  -1    0.04    0.05
  -2   2   1    0.12    0.08
  -2   2   1    0.08    0.08
   2   2  -1    0.14    0.09
   2   2  -1    0.07    0.09
  -2   2   1    0.03    0.09
   1   2  -1  462.88   11.93
  -1   2   1  471.85   12.03
   0  -2   1    0.34    0.06
   0  -2  -1    0.29    0.05
   0  -2   1    0.29    0.06
   0  -2  -1    0.50    0.07
   0  -2   1    0.43    0.07
   0  -2  -1    0.36    0.06
   0  -2   1    0.29    0.07
   0  -2  -1    0.35    0.06
   0   2   1    0.24    0.05
   0   2   1    0.33    0.05
   0   2  -1    0.25    0.06
   0   2   1    0.27    0.06
   0   2   1    0.40    0.07
   0   2  -1    0.33    0.08
   0   2  -1    0.35    0.06
   1  -2   1  271.35    6.69
   1  -2   1  269.23    6.73
   1  -2   1  268.54    6.68
  -1  -2  -1  268.22    6.67
  -1  -2  -1  270.83    6.70
  -1   2  -1  274.11    6.68
  -1   2  -1  273.98    6.68
   1   2   1  278.93    6.71
   1   2   1  270.23    6.67
  -2  -2  -1    2.92    0.22
  -2  -2  -1    3.03    0.22
   2  -2   1    3.28    0.26
   2  -2   1    3.48    0.24
  -2  -2  -1    3.01    0.12
  -2  -2  -1    2.79    0.25
   2   2   1    3.16    0.13
   2   2   1    2.96    0.26
  -2   2  -1    3.25    0.24
  -2   2  -1    2.92    0.12
   2   2   1    3.13    0.23
  -2   2  -1    3.16    0.24
  -2   2  -1    2.91    0.24
   3  -2   1   75.91    2.11
  -3  -2  -1   77.81    2.11
  -3  -2  -1   76.20    2.09
  -3  -2  -1   77.44    1.91
  -3  -2  -1   75.20    2.16
   3  -2   1   76.36    2.18
   3  -2   1   76.10    2.15
  -3  -2  -1   76.40    1.91
   3   2   1   76.88    2.15
   3   2   1   77.95    2.18
  -3   2  -1   76.64    2.11
  -3   2  -1   78.99    1.92
  -3   2  -1   75.26    2.12
  -3   2  -1   78.08    2.13
   3   2   1   80.95    2.10
  -3   2  -1   75.46    1.90
   4  -2   1    0.12    0.21
   4  -2   1    0.14    0.22
  -4  -2  -1    0.15    0.09
   4  -2   1   -0.08    0.22
  -4  -2  -1    0.19    0.18
  -4  -2  -1    0.18    0.23
  -4  -2  -1    0.14    0.23
  -4  -2  -1    0.22    0.08
  -4   2  -1    0.04    0.22
  -4   2  -1    0.22    0.18
  -4   2  -1    0.17    0.08
  -4   2  -1    0.10    0.07
   4   2   1   -0.17    0.19
  -4   2  -1    0.27    0.22
   4   2   1    0.27    0.26
   4   2   1    0.22    0.21
  -5  -2  -1    5.84    0.61
  -5  -2  -1    5.51    0.20
   5  -2   1    5.40    0.62
  -5  -2  -1    5.28    0.21
  -5  -2  -1    4.68    0.45
  -5   2  -1    5.65    0.55
   5   2   1    5.37    0.59
  -5   2  -1    5.66    0.20
  -5   2  -1    5.36    0.22
  -5   2  -1    5.00    0.50
  -6  -2  -1    2.28    0.47
  -6  -2  -1    1.86    0.40
   6  -2   1    2.09    0.55
   6   2   1    1.04    0.43
  -6   2  -1    1.74    0.43
  -6   2  -1    1.45    0.37
  -7  -3   1    3.29    0.42
  -7  -3   1    4.23    0.62
   7  -3  -1    4.43    0.72
  -7   3   1    4.87    0.64
   7   3  -1    4.09    0.67
  -7   3   1    5.18    0.63
  -6  -3   1   43.53    1.36
  -6  -3   1   46.15    1.41
  -6  -3   1   43.32    1.36
   6  -3  -1   42.96    1.69
   6  -3  -1   40.56    1.67
   6   3  -1   43.65    1.39
  -6   3   1   42.49    1.32
  -6   3   1   45.18    1.45
  -6   3   1   44.96    1.44
  -6   3   1   43.42    1.41
   6   3  -1   44.01    1.65
  -5  -3   1    3.50    0.33
  -5  -3   1    3.43    0.43
   5  -3  -1    2.88    0.40
   5  -3  -1    3.64    0.42
  -5  -3   1    4.18    0.36
   5  -3  -1    3.80    0.54
  -5  -3   1    4.04    0.37
  -5   3   1    3.43    0.37
   5   3  -1    3.77    0.50
  -5   3   1    3.78    0.40
   5   3  -1    3.46    0.35
  -5   3   1    3.51    0.33
   5   3  -1    3.41    0.50
  -5   3   1    3.66    0.37
  -4  -3   1   74.43    2.12
  -4  -3   1   74.19    2.19
   4  -3  -1   75.33    2.05
  -4  -3   1   74.98    1.97
  -4  -3   1   78.22    2.05
   4  -3  -1   74.58    2.06
   4  -3  -1   73.90    2.23
  -4   3   1   74.68    2.19
  -4   3   1   74.25    2.01
  -4   3   1   74.87    2.03
  -4   3   1   78.23    2.08
   4   3  -1   75.41    2.08
   4   3  -1   75.29    2.12
  -4   3   1   73.59    2.04
   4   3  -1   72.28    2.17
   3  -3  -1   22.43    0.83
  -3  -3   1   21.37    0.68
  -3  -3   1   22.31    0.82
  -3  -3   1   22.58    0.75
   3  -3  -1   20.07    0.77
   3  -3  -1   23.22    0.70
  -3  -3   1   22.35    0.77
   3   3  -1   21.53    0.79
  -3   3   1   21.95    0.71
   3   3  -1   22.67    0.65
  -3   3   1   21.89    0.81
  -3   3   1   22.83    0.72
   3   3  -1   23.53    0.77
  -3   3   1   23.45    0.76
  -3   3   1   22.84    0.68
   3   3  -1   22.69    0.75
  -2  -3   1   68.68    1.85
   2  -3  -1   69.46    1.76
  -2  -3   1   69.05    1.73
   2  -3  -1   71.01    1.83
   2  -3  -1   69.49    1.82
  -2  -3   1   72.26    1.85
  -2  -3   1   70.01    1.88
   2  -3  -1   68.20    1.89
   2   3  -1   69.19    1.73
  -2   3   1   70.54    1.75
   2   3  -1   70.22    1.85
  -2   3   1   69.88    1.88
  -2   3   1   70.29    1.82
   2   3  -1   67.78    1.87
   2   3  -1   72.23    1.85
  -2   3   1   68.87    1.82
   1  -3  -1   50.13    1.31
  -1  -3   1   50.64    1.33
   1  -3  -1   49.94    1.32
   1  -3  -1   50.19    1.30
  -1  -3   1   50.75    1.32
   1   3  -1   50.46    1.32
   1   3  -1   48.11    1.31
  -1   3   1   48.95    1.30
  -1   3   1   50.27    1.32
   0  -3  -1    1.69    0.07
   0  -3  -1    1.73    0.12
   0  -3   1    1.38    0.14
   0  -3   1    1.66    0.12
   0  -3  -1    1.70    0.11
   0  -3   1    1.67    0.11
   0  -3   1    1.54    0.11
   0  -3  -1    1.75    0.11
   0   3   1    1.69    0.07
   0   3   1    1.48    0.12
   0   3  -1    1.55    0.11
   0   3  -1    1.51    0.12
   0   3   1    1.42    0.11
   0   3   1    1.68    0.11
   0   3  -1    1.49    0.12
   0   3  -1    1.25    0.13
  -1  -3  -1   -0.12    0.04
  -1  -3  -1   -0.08    0.09
   1  -3   1   -0.07    0.08
  -1  -3  -1   -0.10    0.06
   1  -3   1   -0.01    0.09
  -1  -3  -1   -0.07    0.05
   1  -3   1   -0.05    0.05
   1  -3   1   -0.13    0.06
  -1   3  -1   -0.08    0.04
   1   3   1    0.06    0.06
  -1   3  -1   -0.05    0.06
  -1   3  -1   -0.11    0.06
   1   3   1   -0.05    0.08
  -1   3  -1   -0.11    0.07
   1   3   1   -0.10    0.06
   1   3   1   -0.13    0.05
   2  -3   1   85.37    2.11
  -2  -3  -1   84.72    2.22
   2  -3   1   85.17    2.29
  -2  -3  -1   82.77    2.11
   2  -3   1   82.78    2.24
  -2  -3  -1   86.72    2.23
  -2   3  -1   85.12    2.25
  -2   3  -1   81.86    2.11
  -2   3  -1   85.74    2.25
  -2   3  -1   86.89    2.26
   2   3   1   85.12    2.12
   2   3   1   89.79    2.31
   2   3   1   85.18    2.24
   3  -3   1   11.69    0.58
  -3  -3  -1   11.42    0.49
   3  -3   1   12.05    0.55
  -3  -3  -1   11.29    0.56
  -3  -3  -1   11.46    0.52
  -3  -3  -1   11.70    0.36
   3  -3   1   11.11    0.53
  -3   3  -1   11.70    0.53
   3   3   1   11.43    0.50
  -3   3  -1   11.90    0.53
  -3   3  -1   11.64    0.35
  -3   3  -1   12.18    0.54
   3   3   1   12.13    0.59
   3   3   1   11.80    0.37
  -3   3  -1   11.47    0.37
   3   3   1   12.16    0.55
  -4  -3  -1   81.94    2.32
  -4  -3  -1   81.05    2.27
   4  -3   1   81.16    2.42
  -4  -3  -1   81.39    2.38
   4  -3   1   81.10    2.35
  -4  -3  -1   80.73    2.06
   4  -3   1   81.09    2.31
  -4  -3  -1   82.32    2.06
   4   3   1   81.56    2.28
  -4   3  -1   84.35    2.07
   4   3   1   82.08    2.40
   4   3   1   86.05    2.39
  -4   3  -1   83.99    2.32
  -4   3  -1   79.79    2.04
  -4   3  -1   81.23    2.34
  -4   3  -1   79.91    2.31
  -5  -3  -1    0.42    0.11
  -5  -3  -1    0.82    0.26
  -5  -3  -1    0.41    0.10
   5  -3   1    0.49    0.35
  -5  -3  -1    0.22    0.31
  -5   3  -1    0.44    0.27
  -5   3  -1    0.55    0.28
  -5   3  -1    0.39    0.11
  -5   3  -1    0.36    0.09
   5   3   1    0.52    0.31
  -6  -3  -1   47.39    1.57
  -6  -3  -1   45.35    1.73
   6  -3   1   46.46    1.81
   6   3   1   46.82    1.73
  -6   3  -1   46.66    1.62
  -6   3  -1   44.72    1.62
  -7  -4   1    7.65    0.89
  -7  -4   1    8.87    0.68
   7  -4  -1    9.68    1.05
  -7   4   1    8.24    0.73
  -7   4   1    7.74    0.73
   7   4  -1    8.32    0.92
  -6  -4   1    1.20    0.36
  -6  -4   1    1.62    0.29
  -6  -4   1    2.06    0.32
  -6  -4   1    2.01    0.40
   6  -4  -1    1.59    0.46
  -6   4   1    1.46    0.34
  -6   4   1    1.32    0.29
  -6   4   1    1.34    0.32
   6   4  -1    1.06    0.33
   6   4  -1    1.83    0.46
  -6   4   1    2.11    0.38
   5  -4  -1   32.34    1.11
  -5  -4   1   32.07    1.06
  -5  -4   1   32.55    1.00
   5  -4  -1   31.22    1.28
   5  -4  -1   31.63    1.11
  -5  -4   1   32.63    1.05
  -5  -4   1   32.48    1.19
  -5   4   1   31.31    1.05
  -5   4   1   33.53    1.12
  -5   4   1   31.51    1.09
   5   4  -1   31.25    1.22
   5   4  -1   32.17    1.02
   5   4  -1   33.09    1.20
  -5   4   1   32.00    1.02
  -4  -4   1    5.02    0.46
   4  -4  -1    5.23    0.38
  -4  -4   1    5.55    0.36
  -4  -4   1    5.30    0.43
   4  -4  -1    5.28    0.36
  -4  -4   1    5.43    0.29
   4  -4  -1    6.21    0.51
  -4   4   1    5.40    0.33
   4   4  -1    6.18    0.45
  -4   4   1    5.19    0.37
   4   4  -1    6.13    0.44
   4   4  -1    5.59    0.31
  -4   4   1    6.29    0.48
   4   4  -1    5.25    0.39
  -4   4   1    5.74    0.39
  -4   4   1    5.38    0.35
  -3  -4   1   82.14    2.25
   3  -4  -1   77.97    2.14
  -3  -4   1   78.26    2.20
   3  -4  -1   82.39    2.10
  -3  -4   1   80.85    2.05
   3  -4  -1   79.81    2.26
   3   4  -1   79.70    2.22
   3   4  -1   81.71    2.06
  -3   4   1   82.19    2.24
  -3   4   1   79.86    2.12
  -3   4   1   80.60    2.15
  -3   4   1   82.09    2.08
   3   4  -1   81.78    2.20
   3   4  -1   81.40    2.18
  -2  -4   1   37.28    1.04
   2  -4  -1   35.53    1.08
  -2  -4   1   35.62    1.05
   2  -4  -1   37.13    1.02
   2  -4  -1   36.20    1.02
  -2  -4   1   36.13    1.07
   2  -4  -1   36.37    0.94
  -2   4   1   36.33    1.02
  -2   4   1   36.26    0.93
   2   4  -1   35.74    0.92
   2   4  -1   36.50    1.05
   2   4  -1   35.00    1.04
   2   4  -1   35.77    0.92
   2   4  -1   35.12    1.05
  -2   4   1   36.02    1.01
  -2   4   1   35.91    1.07
   1  -4  -1  160.19    3.92
  -1  -4   1  163.77    3.93
   1  -4  -1  162.04    3.92
   1  -4  -1  155.87    3.91
  -1  -4   1  153.82    3.96
  -1  -4   1  154.89    3.93
  -1   4   1  154.10    3.92
  -1   4   1  159.84    3.91
   1   4  -1  140.88    3.94
   1   4  -1  160.40    3.94
  -1   4   1  163.62    3.92
   1   4  -1  161.50    3.94
   0  -4   1    0.72    0.10
   0  -4   1    0.82    0.11
   0  -4  -1    0.81    0.10
   0  -4  -1    0.69    0.10
   0  -4   1    0.91    0.13
   0  -4  -1    0.75    0.11
   0   4   1    0.75    0.11
   0   4  -1    0.90    0.11
   0   4  -1    0.51    0.10
   0   4  -1    0.80    0.10
   0   4   1    0.98    0.11
   0   4  -1    0.75    0.11
   0   4   1    0.82    0.05
   0   4   1    0.78    0.10
   1  -4   1   62.05    1.59
  -1  -4  -1   63.71    1.68
  -1  -4  -1   62.97    1.58
   1  -4   1   61.53    1.64
   1  -4   1   62.73    1.65
  -1  -4  -1   61.73    1.58
   1   4   1   62.75    1.64
  -1   4  -1   62.61    1.65
   1   4   1   62.71    1.68
   1   4   1   61.32    1.58
  -1   4  -1   62.49    1.64
  -1   4  -1   61.85    1.59
  -1   4  -1   63.27    1.65
   1   4   1   62.72    1.64
   1   4   1   62.23    1.60
  -2  -4  -1   12.98    0.47
  -2  -4  -1   12.94    0.46
   2  -4   1   11.99    0.49
   2  -4   1   12.89    0.38
   2  -4   1   12.80    0.53
  -2  -4  -1   12.05    0.53
   2  -4   1   11.96    0.56
  -2  -4  -1   12.58    0.38
  -2   4  -1   12.17    0.48
   2   4   1   12.53    0.47
  -2   4  -1   12.55    0.49
  -2   4  -1   12.36    0.38
   2   4   1   12.35    0.47
   2   4   1   12.85    0.39
   2   4   1   12.40    0.52
   3  -4   1   11.68    0.52
  -3  -4  -1   11.00    0.50
  -3  -4  -1   11.11    0.36
  -3  -4  -1   10.88    0.48
   3  -4   1   11.54    0.58
  -3  -4  -1   10.79    0.57
   3  -4   1   11.31    0.54
  -3   4  -1   11.35    0.53
  -3   4  -1   10.78    0.36
   3   4   1   10.56    0.57
  -3   4  -1   11.32    0.51
   3   4   1   10.36    0.51
   3   4   1   11.20    0.38
   3   4   1   11.22    0.49
  -3   4  -1   10.41    0.50
   4  -4   1   12.15    0.70
  -4  -4  -1   10.62    0.64
   4  -4   1   10.32    0.60
   4  -4   1   10.77    0.62
  -4  -4  -1   11.53    0.60
  -4  -4  -1   10.48    0.51
  -4  -4  -1   10.79    0.38
  -4  -4  -1   11.19    0.54
  -4   4  -1   10.88    0.58
   4   4   1   11.69    0.68
   4   4   1   11.86    0.63
  -4   4  -1   11.55    0.62
  -4   4  -1   10.93    0.59
   4   4   1   11.59    0.58
  -4   4  -1   11.60    0.40
  -4   4  -1   10.89    0.37
   5  -4   1    6.52    0.67
  -5  -4  -1    6.62    0.29
  -5  -4  -1    5.89    0.30
  -5  -4  -1    6.67    0.65
  -5  -4  -1    5.87    0.49
  -5   4  -1    6.93    0.57
  -5   4  -1    6.58    0.28
   5   4   1    6.60    0.60
  -5   4  -1    7.10    0.30
  -6  -4  -1   -0.09    0.42
  -6  -4  -1    0.23    0.33
   6  -4   1   -0.61    0.41
  -6   4  -1    0.27    0.34
   6   4   1    0.28    0.42
  -6   4  -1    0.32    0.35
  -7  -5   1    9.28    0.91
   7  -5  -1    9.82    1.03
   7   5  -1    8.65    0.89
  -7   5   1    9.49    0.73
  -7   5   1    9.44    0.81
   6  -5  -1   38.16    1.57
  -6  -5   1   36.27    1.40
  -6  -5   1   36.58    1.17
  -6  -5   1   35.80    1.22
  -6   5   1   36.60    1.17
   6   5  -1   36.49    1.45
  -6   5   1   35.56    1.23
  -6   5   1   35.90    1.29
   6   5  -1   36.85    1.22
  -5  -5   1   42.14    1.33
  -5  -5   1   39.50    1.36
   5  -5  -1   38.51    1.28
   5  -5  -1   36.29    1.72
   5  -5  -1   39.39    1.27
  -5  -5   1   38.63    1.16
   5   5  -1   39.03    1.18
  -5   5   1   41.00    1.31
  -5   5   1   39.38    1.21
  -5   5   1   38.09    1.27
   5   5  -1   37.97    1.36
   5   5  -1   38.82    1.40
  -5   5   1   38.50    1.19
  -4  -5   1   72.39    2.14
   4  -5  -1   73.10    2.02
  -4  -5   1   72.28    1.90
  -4  -5   1   73.68    2.00
  -4  -5   1   71.78    2.10
   4  -5  -1   71.87    2.18
   4   5  -1   73.92    1.92
  -4   5   1   74.30    2.03
   4   5  -1   71.66    2.11
  -4   5   1   71.78    2.13
  -4   5   1   71.79    2.02
  -4   5   1   72.59    1.94
   4   5  -1   72.49    2.03
  -4   5   1   71.71    1.96
   4   5  -1   72.08    2.08
  -3  -5   1   77.60    2.20
   3  -5  -1   78.14    2.12
  -3  -5   1   80.51    2.11
  -3  -5   1   77.64    1.99
   3  -5  -1   81.53    2.10
  -3  -5   1   79.09    2.18
   3  -5  -1   80.41    2.05
   3  -5  -1   77.60    2.22
  -3   5   1   79.51    2.03
   3   5  -1   79.60    2.00
   3   5  -1   81.89    2.17
  -3   5   1   77.53    2.11
  -3   5   1   79.10    2.19
  -3   5   1   76.91    2.07
   3   5  -1   78.76    2.13
   3   5  -1   74.79    2.16
   2  -5  -1   38.01    1.07
   2  -5  -1   36.04    1.11
   2  -5  -1   38.16    1.06
  -2  -5   1   37.13    1.10
  -2  -5   1   39.16    1.07
  -2  -5   1   36.17    1.09
   2  -5  -1   37.14    0.97
   2   5  -1   36.94    0.95
   2   5  -1   36.66    1.07
   2   5  -1   37.32    0.94
  -2   5   1   36.24    1.04
   2   5  -1   37.36    1.09
   2   5  -1   37.75    1.09
  -2   5   1   37.54    1.07
  -2   5   1   36.00    1.11
   1  -5  -1   55.17    1.47
   1  -5  -1   54.90    1.46
   1  -5  -1   55.32    1.39
  -1  -5   1   55.24    1.48
  -1  -5   1   56.63    1.48
  -1  -5   1   53.55    1.39
   1  -5  -1   55.83    1.47
  -1  -5   1   56.47    1.51
  -1   5   1   56.44    1.46
  -1   5   1   55.72    1.46
   1   5  -1   54.19    1.49
   1   5  -1   55.61    1.46
   1   5  -1   56.73    1.39
   1   5  -1   54.63    1.49
  -1   5   1   56.26    1.48
  -1   5   1   54.54    1.38
   0  -5   1    1.51    0.12
   0  -5  -1    1.49    0.13
   0  -5   1    1.28    0.14
   0  -5  -1    1.53    0.12
   0  -5   1    1.50    0.13
   0  -5  -1    1.54    0.07
   0  -5  -1    1.67    0.14
   0   5  -1    1.29    0.15
   0   5   1    1.32    0.15
   0   5   1    1.40    0.12
   0   5   1    1.54    0.06
   0   5  -1    1.59    0.12
   0   5  -1    1.83    0.14
  -1  -5  -1    0.04    0.10
   1  -5   1    0.08    0.07
  -1  -5  -1    0.07    0.06
  -1  -5  -1    0.02    0.05
   1  -5   1    0.03    0.08
   1  -5   1    0.03    0.07
   1  -5   1    0.09    0.09
   1  -5   1   -0.01    0.08
  -1   5  -1    0.08    0.08
   1   5   1   -0.01    0.05
   1   5   1    0.02    0.07
   1   5   1    0.04    0.07
   1   5   1    0.10    0.07
  -1   5  -1    0.09    0.07
  -1   5  -1    0.04    0.07
   1   5   1    0.01    0.07
   2  -5   1   35.94    0.94
  -2  -5  -1   33.45    1.09
  -2  -5  -1   34.58    0.94
  -2  -5  -1   34.52    1.00
   2  -5   1   34.90    1.10
   2  -5   1   34.66    1.04
   2  -5   1   34.80    1.05
  -2   5  -1   34.91    1.05
   2   5   1   34.74    1.01
   2   5   1   34.92    1.02
  -2   5  -1   36.16    1.04
   2   5   1   35.73    0.96
   2   5   1   36.53    1.11
  -2   5  -1   33.96    0.94
  -3  -5  -1   18.34    0.67
   3  -5   1   18.13    0.72
   3  -5   1   18.67    0.56
  -3  -5  -1   19.07    0.77
   3  -5   1   19.06    0.73
  -3  -5  -1   18.54    0.56
  -3  -5  -1   18.80    0.69
   3  -5   1   18.83    0.79
  -3   5  -1   18.68    0.73
  -3   5  -1   18.67    0.69
   3   5   1   19.34    0.78
  -3   5  -1   18.44    0.72
   3   5   1   17.91    0.69
   3   5   1   19.09    0.68
   4  -5   1   87.33    2.49
   4  -5   1   89.70    2.52
  -4  -5  -1   87.99    2.56
   4  -5   1   88.16    2.61
  -4  -5  -1   87.09    2.47
  -4  -5  -1   88.44    2.25
  -4  -5  -1   90.03    2.43
   4   5   1   88.77    2.58
  -4   5  -1   88.82    2.50
   4   5   1   91.22    2.52
  -4   5  -1   91.45    2.28
  -4   5  -1   84.95    2.26
  -4   5  -1   88.10    2.52
   4   5   1   87.95    2.44
  -4   5  -1   87.26    2.46
   4   5   1   90.61    2.28
  -5  -5  -1   82.08    2.11
  -5  -5  -1   82.47    2.36
  -5  -5  -1   82.86    2.13
   5  -5   1   82.17    2.61
  -5  -5  -1   82.25    2.53
   5   5   1   81.96    2.48
  -5   5  -1   83.78    2.48
  -5   5  -1   83.09    2.40
  -5   5  -1   84.96    2.12
  -6  -5  -1   44.41    1.70
  -6  -5  -1   45.09    1.52
   6  -5   1   44.91    1.82
  -6   5  -1   42.06    1.56
   6   5   1   44.95    1.69
  -6   5  -1   46.03    1.62
   7  -6  -1    3.51    0.69
  -7  -6   1    4.84    0.72
   7   6  -1    6.29    0.86
  -7   6   1    4.10    0.55
  -7   6   1    3.52    0.55
  -6  -6   1    0.17    0.27
  -6  -6   1   -0.26    0.33
   6  -6  -1    0.21    0.39
  -6   6   1    0.21    0.23
   6   6  -1    0.46    0.27
   6   6  -1    1.01    0.37
  -6   6   1    0.19    0.26
  -5  -6   1   15.41    0.58
   5  -6  -1   15.10    0.69
   5  -6  -1   13.01    0.71
  -5  -6   1   14.98    0.81
   5  -6  -1   14.45    1.31
  -5   6   1   15.35    0.62
   5   6  -1   15.28    0.61
   5   6  -1   15.20    0.70
  -5   6   1   14.93    0.62
   5   6  -1   15.87    0.83
   5   6  -1   15.20    0.78
  -5   6   1   14.85    0.70
  -4  -6   1   33.35    1.20
   4  -6  -1   33.25    1.11
  -4  -6   1   33.77    1.18
   4  -6  -1   33.98    1.25
  -4  -6   1   35.62    1.08
  -4   6   1   33.62    1.19
  -4   6   1   34.06    1.00
   4   6  -1   34.81    1.18
  -4   6   1   34.27    1.11
   4   6  -1   33.09    1.11
  -4   6   1   34.06    1.04
   4   6  -1   34.40    0.98
   4   6  -1   34.33    1.17
   3  -6  -1   58.05    1.58
  -3  -6   1   54.67    1.66
  -3  -6   1   57.78    1.67
   3  -6  -1   56.88    1.70
  -3  -6   1   57.61    1.59
   3  -6  -1   56.98    1.52
   3  -6  -1   57.97    1.61
  -3   6   1   56.77    1.61
   3   6  -1   57.45    1.62
   3   6  -1   57.52    1.47
   3   6  -1   55.65    1.47
   3   6  -1   56.36    1.64
   3   6  -1   57.09    1.64
  -3   6   1   56.00    1.56
  -3   6   1   55.21    1.66
  -3   6   1   58.06    1.49
   2  -6  -1   60.41    1.62
   2  -6  -1   60.61    1.51
   2  -6  -1   58.67    1.68
  -2  -6   1   60.55    1.69
   2  -6  -1   61.12    1.53
  -2  -6   1   58.65    1.68
  -2  -6   1   64.02    1.64
   2   6  -1   55.87    1.73
   2   6  -1   59.57    1.63
   2   6  -1   60.17    1.51
  -2   6   1   62.05    1.65
   2   6  -1   61.42    1.66
   2   6  -1   60.17    1.51
  -2   6   1   61.27    1.61
  -1  -6   1  231.70    5.72
   1  -6  -1  227.69    5.59
   1  -6  -1  227.56    5.66
  -1  -6   1  230.32    5.68
  -1  -6   1  237.11    5.68
   1  -6  -1  236.63    5.67
  -1   6   1  231.97    5.66
   1   6  -1  226.90    5.69
  -1   6   1  233.86    5.65
   1   6  -1  230.67    5.59
  -1   6   1  216.90    5.68
  -1   6   1  226.29    5.59
   1   6  -1  223.25    5.65
   0  -6   1   29.19    0.82
   0  -6  -1   28.57    0.82
   0  -6  -1   29.26    0.73
   0  -6   1   28.28    0.85
   0  -6   1   28.52    0.80
   0  -6   1   28.26    0.83
   0  -6  -1   29.14    0.81
   0  -6  -1   28.44    0.82
   0   6  -1   25.52    0.84
   0   6  -1   28.22    0.83
   0   6  -1   28.98    0.81
   0   6   1   29.48    0.81
   0   6  -1   29.86    0.83
   0   6   1   29.23    0.82
   0   6   1   30.56    0.73
   0   6   1   29.81    0.82
  -1  -6  -1  242.49    6.01
   1  -6   1  238.96    5.99
   1  -6   1  245.95    6.02
   1  -6   1  234.92    6.05
  -1  -6  -1  239.15    6.05
   1  -6   1  241.78    5.97
   1  -6   1  246.44    6.01
  -1  -6  -1  241.86    5.91
  -1  -6  -1  248.24    5.96
   1   6   1  234.94    6.00
   1   6   1  244.74    5.98
   1   6   1  252.56    6.06
  -1   6  -1  242.05    5.97
   1   6   1  245.29    5.91
  -1   6  -1  242.91    6.02
   2  -6   1   95.84    2.50
  -2  -6  -1   93.88    2.44
  -2  -6  -1   94.03    2.40
   2  -6   1   96.73    2.40
  -2  -6  -1   94.52    2.57
   2  -6   1   95.52    2.52
   2  -6   1   96.10    2.58
   2   6   1   92.58    2.45
  -2   6  -1   96.33    2.49
  -2   6  -1   96.03    2.51
   2   6   1   93.01    2.47
   2   6   1   95.14    2.48
   2   6   1   97.20    2.43
  -2   6  -1   94.67    2.52
  -2   6  -1   93.01    2.40
   2   6   1   95.96    2.56
   3  -6   1   77.06    2.15
   3  -6   1   77.26    2.25
  -3  -6  -1   76.60    2.22
  -3  -6  -1   78.23    2.11
   3  -6   1   76.02    2.15
  -3  -6  -1   77.13    1.99
   3  -6   1   77.67    1.98
   3   6   1   77.58    2.01
  -3   6  -1   76.53    2.15
  -3   6  -1   75.66    1.98
   3   6   1   76.82    2.10
   3   6   1   81.94    2.24
  -3   6  -1   77.09    2.11
   3   6   1   75.65    2.12
  -3   6  -1   77.80    2.16
  -4  -6  -1   30.75    0.87
  -4  -6  -1   31.35    1.03
   4  -6   1   30.98    1.21
  -4  -6  -1   30.15    1.16
   4  -6   1   31.10    1.16
   4  -6   1   29.49    1.09
  -4  -6  -1   29.99    1.06
  -4   6  -1   30.63    1.09
  -4   6  -1   30.38    1.05
  -4   6  -1   29.77    0.86
   4   6   1   31.08    1.09
   4   6   1   30.08    1.03
   4   6   1   28.85    1.16
  -4   6  -1   31.83    0.90
   4   6   1   30.48    0.91
  -5  -6  -1    0.37    0.35
   5  -6   1   -0.43    0.31
  -5  -6  -1    0.19    0.23
  -5  -6  -1    0.32    0.15
  -5  -6  -1    0.31    0.16
  -5   6  -1    0.35    0.17
  -5   6  -1   -0.16    0.26
  -5   6  -1   -0.09    0.25
  -5   6  -1    0.60    0.15
   5   6   1   -0.07    0.27
  -6  -6  -1    0.00    0.45
   6  -6   1    1.05    0.54
   6   6   1    0.58    0.41
  -6   6  -1    1.10    0.38
  -6   6  -1    0.73    0.37
   7  -7  -1    6.17    0.85
  -7  -7   1    8.75    0.98
   7   7  -1    7.91    0.90
  -7   7   1    7.84    0.78
   6  -7  -1   21.45    1.20
  -6  -7   1   24.32    0.92
  -6  -7   1   22.50    1.09
  -6   7   1   22.81    0.87
   6   7  -1   22.71    0.84
  -6   7   1   23.35    0.88
  -6   7   1   22.43    1.00
   6   7  -1   23.51    1.11
   5  -7  -1   67.28    2.05
  -5  -7   1   68.75    2.14
   5  -7  -1   68.73    2.25
   5  -7  -1   72.48    2.00
   5   7  -1   67.86    2.02
   5   7  -1   70.28    2.13
   5   7  -1   69.11    1.89
   5   7  -1   68.78    2.40
  -5   7   1   70.18    1.92
  -5   7   1   68.55    2.04
  -5   7   1   68.94    1.92
   5   7  -1   69.59    1.88
   4  -7  -1   39.90    1.20
  -4  -7   1   41.27    1.22
  -4  -7   1   39.16    1.34
  -4  -7   1   40.27    1.35
   4  -7  -1   37.18    1.24
   4  -7  -1   38.33    1.38
   4  -7  -1   39.30    1.26
   4   7  -1   38.92    1.10
   4   7  -1   39.76    1.31
  -4   7   1   38.31    1.32
   4   7  -1   38.82    1.29
  -4   7   1   40.68    1.27
  -4   7   1   39.23    1.17
  -4   7   1   39.64    1.13
   4   7  -1   40.02    1.11
   4   7  -1   38.55    1.25
  -3  -7   1   33.93    1.01
  -3  -7   1   31.82    1.08
   3  -7  -1   31.97    1.11
   3  -7  -1   31.98    0.92
   3  -7  -1   32.90    1.03
  -3  -7   1   31.80    1.07
   3  -7  -1   32.91    1.00
   3   7  -1   33.28    1.07
   3   7  -1   32.24    0.88
   3   7  -1   32.73    0.88
  -3   7   1   32.22    1.03
   3   7  -1   31.83    1.03
   3   7  -1   31.89    1.03
  -3   7   1   32.86    1.07
  -3   7   1   31.38    0.97
   2  -7  -1   40.62    1.06
   2  -7  -1   40.14    1.21
   2  -7  -1   40.38    1.05
   2  -7  -1   39.63    1.17
  -2  -7   1   39.97    1.23
  -2   7   1   42.04    1.19
   2   7  -1   42.05    1.22
  -2   7   1   39.55    1.14
   2   7  -1   40.31    1.16
   2   7  -1   40.08    1.19
   2   7  -1   40.51    1.05
  -2   7   1   40.52    1.19
   2   7  -1   41.46    1.05
   1  -7  -1    6.40    0.31
   1  -7  -1    7.13    0.30
  -1  -7   1    6.98    0.25
   1  -7  -1    6.70    0.29
   1  -7  -1    7.02    0.25
  -1  -7   1    6.92    0.31
  -1  -7   1    6.53    0.34
  -1   7   1    6.86    0.28
   1   7  -1    7.00    0.33
  -1   7   1    6.85    0.31
  -1   7   1    6.83    0.25
   1   7  -1    6.64    0.28
   1   7  -1    6.36    0.32
   1   7  -1    6.78    0.25
  -1   7   1    6.54    0.29
   0  -7  -1    0.64    0.11
   0  -7  -1    0.74    0.07
   0  -7   1    0.61    0.11
   0  -7  -1    0.78    0.12
   0  -7   1    0.65    0.11
   0  -7  -1    0.63    0.11
   0  -7   1    0.99    0.14
   0  -7   1    0.74    0.14
   0   7  -1    0.61    0.11
   0   7   1    0.87    0.13
   0   7   1    0.60    0.10
   0   7  -1    0.68    0.13
   0   7  -1    0.75    0.12
   0   7   1    0.82    0.12
   0   7   1    0.67    0.08
   0   7  -1    0.93    0.13
  -1  -7  -1   17.41    0.53
  -1  -7  -1   16.91    0.56
  -1  -7  -1   16.47    0.46
   1  -7   1   16.18    0.53
  -1  -7  -1   16.57    0.60
   1  -7   1   15.87    0.59
   1  -7   1   16.57    0.55
   1  -7   1   15.78    0.54
  -1   7  -1   16.02    0.53
  -1   7  -1   14.43    0.60
   1   7   1   17.08    0.59
   1   7   1   16.45    0.45
   1   7   1   17.07    0.55
  -1   7  -1   17.09    0.58
   1   7   1   16.01    0.54
   2  -7   1    9.17    0.34
  -2  -7  -1    8.50    0.35
  -2  -7  -1    8.65    0.34
   2  -7   1    8.70    0.41
   2  -7   1    8.82    0.42
  -2  -7  -1    8.10    0.46
   2  -7   1    8.60    0.47
  -2   7  -1    8.86    0.42
   2   7   1    8.40    0.37
   2   7   1    8.36    0.39
  -2   7  -1    8.43    0.42
   2   7   1    8.30    0.39
   2   7   1    8.18    0.35
  -2   7  -1    8.22    0.34
   2   7   1    9.22    0.47
  -3  -7  -1   32.60    0.92
  -3  -7  -1   31.92    1.12
   3  -7   1   31.94    1.06
   3  -7   1   32.59    1.16
   3  -7   1   29.10    1.04
   3  -7   1   32.43    0.91
  -3  -7  -1   31.04    1.00
   3   7   1   32.05    1.01
  -3   7  -1   31.90    1.06
   3   7   1   33.23    1.13
  -3   7  -1   31.01    0.91
   3   7   1   30.77    1.00
  -3   7  -1   32.24    1.07
   3   7   1   32.23    1.01
   3   7   1   31.78    0.94
  -3   7  -1   33.10    1.03
   4  -7   1   20.46    0.86
   4  -7   1   19.90    0.96
  -4  -7  -1   20.89    0.82
  -4  -7  -1   20.45    0.65
   4  -7   1   20.09    0.64
  -4  -7  -1   20.04    0.92
  -4   7  -1   19.37    0.64
   4   7   1   21.42    1.09
   4   7   1   20.21    0.68
  -4   7  -1   21.27    0.86
   4   7   1   20.42    0.78
   4   7   1   19.68    0.78
  -4   7  -1   20.26    0.80
   4   7   1   19.88    0.82
   5  -7   1   15.98    0.98
  -5  -7  -1   17.19    0.95
  -5  -7  -1   17.09    0.59
  -5   7  -1   17.96    0.63
  -5   7  -1   17.26    0.58
  -5   7  -1   17.41    0.80
   5   7   1   17.05    0.85
  -5   7  -1   17.77    0.87
  -6  -7  -1   22.55    1.26
   6  -7   1   22.24    1.31
  -6   7  -1   23.56    1.14
   6   7   1   25.88    1.19
  -6   7  -1   25.20    1.09
   6   7   1   24.80    1.07
  -7  -8   1    0.81    0.47
   7  -8  -1    0.68    0.61
  -7   8   1    0.96    0.46
   7   8  -1    0.82    0.48
   6  -8  -1    1.82    0.53
  -6  -8   1    1.28    0.47
  -6   8   1    1.09    0.28
   6   8  -1    0.99    0.37
  -6   8   1    0.93    0.34
  -6   8   1    1.38    0.29
   6   8  -1    0.96    0.26
   5  -8  -1   -0.15    0.28
   5  -8  -1    0.37    0.26
  -5  -8   1    0.87    0.30
   5   8  -1    0.08    0.16
   5   8  -1    0.18    0.25
  -5   8   1    0.49    0.19
  -5   8   1    0.32    0.26
   5   8  -1   -0.18    0.20
   5   8  -1    0.38    0.23
  -5   8   1    0.23    0.21
   4  -8  -1    9.64    0.48
  -4  -8   1    9.47    0.60
   4  -8  -1    9.28    0.48
  -4  -8   1    9.96    0.62
   4  -8  -1    9.72    0.63
   4  -8  -1    9.52    0.54
  -4  -8   1   10.85    0.51
   4   8  -1   10.05    0.39
   4   8  -1   10.09    0.41
   4   8  -1   10.58    0.57
   4   8  -1   11.34    0.63
  -4   8   1   10.11    0.55
  -4   8   1    9.73    0.62
  -4   8   1   10.34    0.48
  -4   8   1    9.96    0.42
   4   8  -1    9.79    0.53
   3  -8  -1   21.16    0.74
  -3  -8   1   21.77    0.75
   3  -8  -1   21.76    0.63
   3  -8  -1   22.29    0.78
   3  -8  -1   21.54    0.66
  -3  -8   1   20.77    0.83
  -3  -8   1   22.48    0.82
   3  -8  -1   21.19    0.85
   3   8  -1   21.05    0.63
  -3   8   1   22.16    0.81
  -3   8   1   21.63    0.78
   3   8  -1   21.13    0.78
   3   8  -1   21.32    0.62
  -3   8   1   21.73    0.72
   3   8  -1   20.83    0.80
   3   8  -1   22.09    0.77
  -2  -8   1   87.29    2.23
   2  -8  -1   82.86    2.10
   2  -8  -1   81.72    2.26
   2  -8  -1   84.18    2.21
   2  -8  -1   81.87    2.10
  -2  -8   1   83.80    2.30
  -2  -8   1   83.33    2.24
   2   8  -1   85.91    2.28
   2   8  -1   83.63    2.20
   2   8  -1   82.63    2.10
  -2   8   1   82.69    2.25
   2   8  -1   82.27    2.25
  -2   8   1   85.35    2.23
  -2   8   1   84.02    2.19
  -1  -8   1   93.25    2.35
  -1  -8   1   92.45    2.35
  -1  -8   1   87.30    2.27
   1  -8  -1   88.98    2.28
  -1   8   1   90.32    2.36
  -1   8   1   89.32    2.32
  -1   8   1   86.41    2.27
   1   8  -1   90.35    2.28
   1   8  -1   90.71    2.37
  -1   8   1   90.34    2.29
   1   8  -1   91.27    2.32
   1   8  -1   90.47    2.38
   0  -8   1  100.12    2.57
   0  -8  -1   98.08    2.44
   0  -8  -1   96.99    2.54
   0  -8   1   97.94    2.52
   0  -8   1   99.97    2.54
   0  -8  -1  102.19    2.54
   0  -8  -1  100.53    2.55
   0  -8   1   94.06    2.56
   0   8   1   97.57    2.53
   0   8   1  101.00    2.54
   0   8  -1   97.29    2.57
   0   8   1  102.08    2.44
   0   8  -1   98.49    2.55
   0   8   1   97.04    2.54
   0   8  -1   97.42    2.53
   0   8  -1   98.69    2.56
   1  -8   1  146.49    3.67
  -1  -8  -1  146.76    3.73
  -1  -8  -1  148.25    3.64
   1  -8   1  140.23    3.72
   1  -8   1  149.94    3.66
  -1  -8  -1  143.82    3.56
   1  -8   1  145.49    3.69
   1   8   1  143.54    3.54
  -1   8  -1  149.23    3.69
  -1   8  -1  142.35    3.69
   1   8   1  142.31    3.66
   1   8   1  145.43    3.67
  -1   8  -1  141.11    3.65
   2  -8   1   66.13    1.79
   2  -8   1   69.55    1.76
   2  -8   1   65.73    1.92
  -2  -8  -1   63.31    1.90
   2  -8   1   66.96    1.82
  -2  -8  -1   67.19    1.75
  -2  -8  -1   64.50    1.75
   2  -8   1   67.47    1.85
   2   8   1   65.09    1.75
   2   8   1   69.87    1.91
   2   8   1   65.89    1.80
  -2   8  -1   65.28    1.85
   2   8   1   66.18    1.79
  -2   8  -1   65.42    1.75
   2   8   1   66.16    1.80
  -2   8  -1   66.54    1.84
   3  -8   1   15.16    0.53
   3  -8   1   15.45    0.74
  -3  -8  -1   14.59    0.73
  -3  -8  -1   16.17    0.54
  -3  -8  -1   15.30    0.60
   3  -8   1   13.87    0.65
   3  -8   1   15.68    0.66
  -3   8  -1   15.47    0.62
   3   8   1   15.87    0.57
   3   8   1   15.49    0.61
  -3   8  -1   15.41    0.67
  -3   8  -1   15.18    0.53
   3   8   1   15.15    0.60
  -3   8  -1   15.18    0.66
   3   8   1   14.96    0.59
   3   8   1   15.83    0.73
  -4  -8  -1   12.02    0.47
   4  -8   1   11.08    0.64
   4  -8   1   11.59    0.77
  -4  -8  -1   11.25    0.71
   4  -8   1   11.57    0.46
  -4  -8  -1   11.45    0.61
   4   8   1   11.72    0.58
  -4   8  -1   11.52    0.65
   4   8   1   10.98    0.49
   4   8   1   11.07    0.58
   4   8   1   11.13    0.59
  -4   8  -1   11.44    0.57
  -4   8  -1   10.92    0.45
  -5  -8  -1    8.42    0.48
  -5  -8  -1    8.19    0.72
   5  -8   1    8.70    0.80
   5   8   1    9.29    0.60
   5   8   1    8.37    0.63
  -5   8  -1   10.34    0.70
  -5   8  -1    9.26    0.47
   5   8   1    8.72    0.46
  -5   8  -1    8.44    0.59
  -5   8  -1    8.92    0.43
   6  -8   1    0.28    0.50
  -6  -8  -1    1.08    0.45
  -6   8  -1    0.48    0.36
   6   8   1    0.84    0.37
   6   8   1    0.86    0.41
  -6   8  -1    0.80    0.39
  -7  -9   1   10.09    1.02
   7  -9  -1    9.79    1.24
  -7   9   1   11.43    0.93
   7   9  -1   11.20    0.95
   6  -9  -1   17.92    1.16
  -6  -9   1   19.57    1.07
  -6   9   1   18.23    0.79
  -6   9   1   17.89    0.92
  -6   9   1   19.13    0.78
   6   9  -1   18.14    0.72
   6   9  -1   18.90    0.99
   6   9  -1   17.24    0.88
  -5  -9   1    9.02    0.92
   5  -9  -1   10.68    0.60
   5  -9  -1   10.93    0.79
  -5   9   1   10.39    0.64
   5   9  -1   10.67    0.49
   5   9  -1   11.15    0.67
   5   9  -1   10.14    0.46
   5   9  -1    9.93    0.62
  -5   9   1    9.57    0.53
   4  -9  -1   20.45    0.67
  -4  -9   1   22.48    0.81
   4  -9  -1   21.08    0.84
   4  -9  -1   20.08    0.79
  -4  -9   1   21.34    0.90
  -4  -9   1   19.77    0.90
   4  -9  -1   21.07    0.94
  -4   9   1   21.38    0.85
   4   9  -1   21.34    0.66
  -4   9   1   20.74    0.75
   4   9  -1   20.72    0.82
   4   9  -1   21.10    0.67
   4   9  -1   20.53    0.83
  -4   9   1   21.30    0.94
   4   9  -1   22.06    0.92
   3  -9  -1   88.87    2.34
  -3  -9   1   90.38    2.35
   3  -9  -1   87.71    2.38
   3  -9  -1   84.36    2.45
  -3  -9   1   83.83    2.45
   3  -9  -1   86.88    2.24
  -3  -9   1   87.78    2.41
   3  -9  -1   84.32    2.21
   3   9  -1   91.28    2.44
  -3   9   1   85.97    2.39
   3   9  -1   85.51    2.38
   3   9  -1   85.38    2.21
  -3   9   1   86.53    2.31
  -3   9   1   88.92    2.40
   3   9  -1   84.92    2.35
   2  -9  -1    6.71    0.26
  -2  -9   1    6.78    0.27
  -2  -9   1    6.92    0.36
   2  -9  -1    6.67    0.27
   2  -9  -1    6.60    0.35
  -2  -9   1    6.48    0.37
   2  -9  -1    6.16    0.37
  -2  -9   1    5.96    0.40
   2   9  -1    6.25    0.37
  -2   9   1    6.32    0.33
  -2   9   1    6.83    0.36
   2   9  -1    6.74    0.38
   2   9  -1    6.56    0.33
  -2   9   1    6.42    0.39
   2   9  -1    6.46    0.26
  -1  -9   1    6.65    0.34
  -1  -9   1    7.03    0.39
  -1  -9   1    6.89    0.34
   1  -9  -1    7.32    0.35
   1  -9  -1    6.92    0.31
  -1  -9   1    6.68    0.28
   1   9  -1    6.63    0.31
   1   9  -1    7.13    0.37
  -1   9   1    6.81    0.34
   1   9  -1    6.17    0.31
  -1   9   1    6.85    0.29
  -1   9   1    6.82    0.28
  -1   9   1    6.49    0.32
   1   9  -1    6.48    0.36
   0  -9  -1    3.09    0.24
   0  -9   1    3.08    0.24
   0  -9   1    3.22    0.25
   0  -9   1    3.45    0.26
   0  -9  -1    3.22    0.16
   0  -9  -1    3.03    0.23
   0  -9   1    2.93    0.21
   0  -9  -1    3.38    0.24
   0   9  -1    3.25    0.25
   0   9   1    3.24    0.23
   0   9  -1    3.38    0.26
   0   9  -1    2.87    0.25
   0   9   1    3.32    0.23
   0   9  -1    2.98    0.21
   0   9   1    3.28    0.23
   0   9   1    3.45    0.17
  -1  -9  -1    2.33    0.13
  -1  -9  -1    1.63    0.21
   1  -9   1    2.23    0.26
  -1  -9  -1    2.28    0.22
   1  -9   1    2.37    0.22
   1  -9   1    2.61    0.23
   1  -9   1    1.93    0.21
  -1  -9  -1    2.19    0.21
  -1   9  -1    2.28    0.21
  -1   9  -1    2.49    0.24
   1   9   1    2.24    0.25
   1   9   1    2.03    0.23
   1   9   1    2.11    0.12
  -1   9  -1    2.09    0.23
  -1   9  -1    2.35    0.23
   1   9   1    2.11    0.20
   2  -9   1    0.28    0.13
   2  -9   1    0.44    0.13
  -2  -9  -1    0.54    0.12
   2  -9   1    0.45    0.14
  -2  -9  -1    0.47    0.13
   2  -9   1    0.60    0.17
   2  -9   1    0.36    0.18
  -2  -9  -1    0.47    0.19
  -2   9  -1    0.35    0.13
   2   9   1    0.25    0.13
   2   9   1    0.43    0.18
   2   9   1    0.52    0.15
  -2   9  -1    0.51    0.16
  -2   9  -1    0.38    0.17
   2   9   1    0.16    0.13
   2   9   1    0.08    0.13
  -3  -9  -1   30.88    0.98
   3  -9   1   31.59    1.05
   3  -9   1   31.62    1.07
   3  -9   1   30.91    1.16
  -3  -9  -1   30.43    1.13
   3  -9   1   30.03    0.99
  -3   9  -1   29.97    1.03
   3   9   1   31.94    1.13
   3   9   1   30.55    0.96
   3   9   1   30.88    0.99
  -3   9  -1   30.37    0.92
  -3   9  -1   30.26    1.07
   3   9   1   31.10    0.97
   3   9   1   30.85    1.00
  -4  -9  -1   12.35    0.76
  -4  -9  -1   12.43    0.63
  -4  -9  -1   12.66    0.50
   4  -9   1   11.58    0.78
   4  -9   1   11.89    0.49
   4  -9   1   12.44    0.67
  -4   9  -1   12.01    0.49
   4   9   1   12.31    0.61
  -4   9  -1   11.35    0.59
  -4   9  -1   12.06    0.67
   4   9   1   11.61    0.53
   4   9   1   12.01    0.59
   4   9   1   12.84    0.61
  -5  -9  -1    1.40    0.25
  -5  -9  -1    0.57    0.39
   5  -9   1    2.05    0.51
  -5   9  -1    1.12    0.34
   5   9   1    1.10    0.34
   5   9   1    0.94    0.28
  -5   9  -1    1.46    0.24
  -5   9  -1    0.98    0.31
   5   9   1    1.79    0.27
  -6  -9  -1    4.32    0.71
   6  -9   1    5.25    0.77
   6   9   1    4.88    0.68
   6   9   1    4.56    0.51
  -6   9  -1    5.18    0.71
  -6   9  -1    4.80    0.56
  -7 -10   1    0.30    0.54
  -7  10   1   -0.04    0.44
   7  10  -1   -0.76    0.42
   6 -10  -1    2.34    0.59
  -6 -10   1    2.10    0.51
   6 -10  -1    1.63    0.34
   6  10  -1    1.81    0.42
  -6  10   1    2.22    0.45
  -6  10   1    2.21    0.34
   6  10  -1    1.66    0.27
   6  10  -1    2.80    0.41
   5 -10  -1   36.30    1.47
  -5 -10   1   33.68    1.37
   5 -10  -1   34.28    1.05
   5 -10  -1   35.29    1.16
   5  10  -1   34.75    1.04
   5  10  -1   34.50    1.23
  -5  10   1   35.36    1.28
  -5  10   1   34.48    1.14
   5  10  -1   35.64    1.08
   5  10  -1   34.84    1.25
  -4 -10   1    9.09    0.63
   4 -10  -1    8.97    0.64
   4 -10  -1    8.69    0.38
   4 -10  -1    8.39    0.55
  -4 -10   1    8.15    0.50
  -4 -10   1    7.95    0.58
   4  10  -1    8.74    0.39
  -4  10   1    8.49    0.54
   4  10  -1    8.92    0.55
   4  10  -1    8.66    0.52
   4  10  -1    8.65    0.61
   4  10  -1    9.21    0.37
  -4  10   1    8.56    0.47
   3 -10  -1   24.57    0.74
  -3 -10   1   24.56    0.90
   3 -10  -1   23.82    0.72
   3 -10  -1   25.14    0.95
  -3 -10   1   25.37    0.85
  -3 -10   1   22.80    0.94
   3 -10  -1   24.69    0.88
   3 -10  -1   24.17    0.84
   3  10  -1   24.78    0.93
  -3  10   1   24.33    0.88
  -3  10   1   23.96    0.89
   3  10  -1   24.62    0.84
   3  10  -1   24.68    0.71
  -3  10   1   24.34    0.81
   3  10  -1   23.14    0.88
   3  10  -1   24.11    0.71
  -2 -10   1   19.84    0.78
   2 -10  -1   20.12    0.75
   2 -10  -1   21.36    0.61
   2 -10  -1   20.33    0.63
  -2 -10   1   20.35    0.71
   2 -10  -1   21.16    0.75
  -2 -10   1   21.14    0.62
   2 -10  -1   21.37    0.72
  -2 -10   1   20.46    0.73
  -2  10   1   20.54    0.75
   2  10  -1   19.99    0.75
   2  10  -1   20.60    0.77
  -2  10   1   20.46    0.69
   2  10  -1   17.78    0.64
   2  10  -1   20.65    0.68
  -2  10   1   20.54    0.70
   1 -10  -1   12.42    0.45
   1 -10  -1   12.09    0.47
   1 -10  -1   12.28    0.51
  -1 -10   1   12.68    0.44
   1 -10  -1   13.06    0.50
  -1 -10   1   11.20    0.55
  -1  10   1   12.72    0.43
  -1  10   1   13.83    0.52
  -1  10   1   12.79    0.48
   1  10  -1   12.60    0.53
   1  10  -1   12.91    0.44
  -1  10   1   12.55    0.44
   0 -10  -1  225.94    5.55
   0 -10  -1  217.76    5.56
   0 -10   1  227.19    5.57
   0 -10  -1  221.17    5.44
   0 -10   1  228.76    5.56
   0 -10   1  218.51    5.58
   0 -10   1  227.30    5.53
   0 -10  -1  213.45    5.55
   0  10   1  229.14    5.55
   0  10  -1  217.66    5.61
   0  10   1  228.69    5.44
   0  10   1  217.71    5.55
   0  10  -1  223.56    5.57
   0  10  -1  215.52    5.53
   0  10   1  221.39    5.54
   0  10  -1  217.87    5.58
   1 -10   1    0.43    0.14
   1 -10   1    0.35    0.17
   1 -10   1    0.92    0.17
  -1 -10  -1    0.78    0.15
  -1 -10  -1    0.53    0.09
  -1 -10  -1    0.49    0.14
  -1 -10  -1    0.42    0.16
   1 -10   1    0.70    0.16
  -1 -10  -1    0.69    0.09
   1  10   1    0.61    0.17
   1  10   1    0.54    0.14
  -1  10  -1    0.53    0.16
  -1  10  -1    0.50    0.14
  -1  10  -1    0.64    0.16
  -1  10  -1    0.49    0.14
   1  10   1    0.34    0.14
   2 -10   1   59.22    1.79
   2 -10   1   60.56    1.68
  -2 -10  -1   61.66    1.63
  -2 -10  -1   59.31    1.58
   2 -10   1   58.70    1.70
  -2 -10  -1   57.41    1.77
   2 -10   1   59.26    1.64
   2 -10   1   61.39    1.64
  -2  10  -1   58.78    1.72
  -2  10  -1   58.52    1.63
   2  10   1   59.40    1.65
   2  10   1   59.70    1.65
  -2  10  -1   58.74    1.68
   2  10   1   56.62    1.62
   2  10   1   62.11    1.76
   2  10   1   58.74    1.67
  -3 -10  -1   64.75    1.78
  -3 -10  -1   59.34    1.93
   3 -10   1   62.98    1.99
   3 -10   1   63.48    1.78
   3 -10   1   63.10    1.84
   3 -10   1   62.50    1.87
   3 -10   1   66.45    1.74
  -3 -10  -1   65.47    1.74
  -3  10  -1   63.07    1.86
   3  10   1   64.35    1.80
   3  10   1   63.32    1.78
  -3  10  -1   62.60    1.73
   3  10   1   63.30    1.79
  -3  10  -1   63.82    1.89
   3  10   1   65.36    1.95
   3  10   1   63.63    1.75
   4 -10   1   18.33    1.09
   4 -10   1   19.55    0.87
  -4 -10  -1   19.42    0.69
  -4 -10  -1   19.45    0.80
   4 -10   1   18.89    0.68
   4  10   1   19.49    0.73
  -4  10  -1   20.11    0.88
   4  10   1   20.01    0.77
  -4  10  -1   19.47    0.68
   4  10   1   17.85    0.77
   4  10   1   19.89    0.77
   5 -10   1    4.72    0.67
  -5 -10  -1    4.23    0.41
  -5 -10  -1    3.39    0.52
  -5  10  -1    3.11    0.46
   5  10   1    3.57    0.40
   5  10   1    4.55    0.41
   5  10   1    3.37    0.47
  -5  10  -1    3.40    0.37
  -6 -10  -1    1.49    0.60
   6 -10   1    1.61    0.64
   6  10   1    2.10    0.48
   6  10   1    1.55    0.38
  -6  10  -1    1.31    0.44
   6 -11  -1    3.76    0.66
  -6 -11   1    3.91    0.63
   6 -11  -1    3.44    0.46
  -6  11   1    4.07    0.43
   6  11  -1    3.60    0.41
   6  11  -1    4.47    0.53
   6  11  -1    5.20    0.63
  -6  11   1    3.53    0.50
   5 -11  -1   47.26    1.41
   5 -11  -1   44.34    1.29
  -5 -11   1   44.42    1.63
   5 -11  -1   44.13    1.70
   5  11  -1   45.35    1.30
   5  11  -1   45.63    1.27
   5  11  -1   44.67    1.49
   5  11  -1   42.73    1.48
  -5  11   1   44.32    1.37
  -5  11   1   39.92    1.70
   4 -11  -1   50.96    1.42
   4 -11  -1   48.68    1.62
  -4 -11   1   53.06    1.74
   4 -11  -1   52.38    1.77
  -4 -11   1   52.86    1.56
  -4 -11   1   51.75    1.69
   4  11  -1   52.15    1.70
   4  11  -1   52.81    1.59
   4  11  -1   53.78    1.42
   4  11  -1   51.57    1.43
  -4  11   1   53.22    1.66
  -4  11   1   51.37    1.52
   4  11  -1   52.50    1.64
   3 -11  -1   15.49    0.74
  -3 -11   1   16.72    0.70
   3 -11  -1   14.33    0.67
   3 -11  -1   15.56    0.54
   3 -11  -1   14.99    0.52
  -3 -11   1   15.48    0.64
  -3 -11   1   15.07    0.75
   3 -11  -1   16.12    0.65
   3  11  -1   15.46    0.69
  -3  11   1   15.36    0.69
   3  11  -1   15.39    0.51
  -3  11   1   14.93    0.60
  -3  11   1   15.66    0.66
   3  11  -1   15.91    0.62
   3  11  -1   15.79    0.52
   3  11  -1   16.09    0.72
   2 -11  -1   21.00    0.73
   2 -11  -1   20.60    0.75
  -2 -11   1   20.74    0.63
  -2 -11   1   18.65    0.78
   2 -11  -1   19.32    0.75
  -2 -11   1   19.69    0.73
   2 -11  -1   20.04    0.64
  -2 -11   1   20.57    0.72
  -2  11   1   20.84    0.70
   2  11  -1   19.20    0.66
  -2  11   1   20.03    0.70
  -2  11   1   20.13    0.76
   2  11  -1   20.11    0.77
   2  11  -1   19.78    0.76
   2  11  -1   20.37    0.62
  -1 -11   1  106.22    2.79
  -1 -11   1  107.97    2.78
  -1 -11   1  104.94    2.84
   1 -11  -1  110.17    2.81
   1 -11  -1  108.66    2.79
  -1 -11   1  104.31    2.91
   1 -11  -1  106.00    2.85
   1 -11  -1  110.82    2.85
  -1 -11   1  114.48    2.85
   1  11  -1  106.99    2.77
  -1  11   1  108.45    2.82
  -1  11   1  109.21    2.78
   1  11  -1  108.35    2.89
  -1  11   1  105.86    2.86
  -1  11   1  109.93    2.75
   1  11  -1  114.45    2.90
   0 -11   1    0.57    0.16
   0 -11  -1    0.36    0.09
   0 -11  -1    0.34    0.13
   0 -11   1    0.37    0.14
   0 -11  -1    0.63    0.16
   0 -11  -1    0.37    0.14
   0 -11   1    0.26    0.12
   0 -11   1    0.29    0.16
   0  11  -1    0.38    0.15
   0  11  -1    0.62    0.16
   0  11  -1    0.45    0.16
   0  11   1    0.53    0.10
   0  11  -1    0.26    0.12
   0  11   1    0.37    0.15
   0  11   1    0.21    0.13
   0  11   1    0.32    0.12
   1 -11   1    3.07    0.28
   1 -11   1    3.31    0.29
  -1 -11  -1    3.28    0.33
   1 -11   1    3.10    0.26
  -1 -11  -1    3.29    0.17
  -1 -11  -1    3.40    0.27
  -1 -11  -1    3.44    0.18
  -1 -11  -1    3.39    0.30
   1 -11   1    3.17    0.31
   1  11   1    3.15    0.30
  -1  11  -1    3.07    0.27
  -1  11  -1    3.05    0.28
  -1  11  -1    3.48    0.30
   1  11   1    3.04    0.30
  -1  11  -1    3.16    0.28
   1  11   1    3.04    0.25
   2 -11   1   35.37    1.07
  -2 -11  -1   35.39    1.00
   2 -11   1   34.93    1.10
  -2 -11  -1   36.52    1.06
   2 -11   1   33.58    1.19
  -2 -11  -1   35.53    1.20
   2 -11   1   36.73    1.08
   2  11   1   33.39    1.03
   2  11   1   35.81    1.07
  -2  11  -1   35.31    1.15
  -2  11  -1   34.35    1.06
  -2  11  -1   34.19    1.10
   2  11   1   36.28    1.19
   2  11   1   34.65    1.07
   2  11   1   33.79    1.11
   3 -11   1   24.14    0.85
   3 -11   1   25.64    0.82
   3 -11   1   24.36    0.93
  -3 -11  -1   23.59    1.01
  -3 -11  -1   25.05    0.82
   3 -11   1   25.24    1.05
  -3 -11  -1   24.46    0.83
   3 -11   1   24.33    0.91
   3  11   1   24.47    0.85
  -3  11  -1   23.75    0.81
   3  11   1   24.90    0.80
   3  11   1   23.88    0.86
  -3  11  -1   24.57    0.94
  -3  11  -1   24.01    0.92
   3  11   1   25.36    0.87
   3  11   1   25.03    1.00
  -4 -11  -1    5.32    0.40
   4 -11   1    5.44    0.66
   4 -11   1    4.74    0.52
  -4 -11  -1    4.95    0.59
  -4 -11  -1    5.11    0.46
   4 -11   1    5.45    0.44
   4 -11   1    5.69    0.40
  -4  11  -1    5.11    0.38
   4  11   1    5.45    0.43
   4  11   1    4.73    0.40
   4  11   1    5.34    0.41
   4  11   1    4.56    0.47
   5 -11   1   62.95    2.10
   5 -11   1   67.57    2.36
   5 -11   1   68.20    1.96
  -5 -11  -1   67.59    2.24
  -5  11  -1   65.00    1.83
   5  11   1   65.76    1.97
   5  11   1   65.37    1.90
  -5  11  -1   68.61    2.15
   5  11   1   68.06    2.02
   6 -11   1    3.43    0.51
  -6 -11  -1    3.97    0.67
   6 -11   1    4.89    0.83
   6  11   1    5.06    0.62
  -6  11  -1    5.28    0.65
   6  11   1    4.51    0.60
   6 -12  -1    1.98    0.57
   6 -12  -1    1.61    0.32
  -6 -12   1    2.57    0.61
  -6  12   1    2.16    0.35
   6  12  -1    2.60    0.44
  -6  12   1    1.07    0.40
   6  12  -1    1.50    0.43
   5 -12  -1   -0.36    0.36
   5 -12  -1    0.37    0.27
  -5 -12   1    0.54    0.36
   5 -12  -1    0.29    0.20
   5  12  -1    0.36    0.29
  -5  12   1    0.34    0.25
   5  12  -1    0.54    0.19
   5  12  -1    0.24    0.26
  -5  12   1    0.17    0.29
   5  12  -1   -0.10    0.22
   4 -12  -1    2.35    0.27
  -4 -12   1    2.98    0.39
  -4 -12   1    2.27    0.43
   4 -12  -1    2.58    0.45
  -4 -12   1    1.66    0.37
   4 -12  -1    2.29    0.28
   4  12  -1    2.45    0.25
   4  12  -1    2.46    0.35
   4  12  -1    2.48    0.33
  -4  12   1    2.21    0.29
  -4  12   1    2.72    0.37
   3 -12  -1   17.71    0.80
   3 -12  -1   17.71    0.60
  -3 -12   1   17.79    0.75
   3 -12  -1   16.79    0.69
  -3 -12   1   17.66    0.70
   3 -12  -1   16.80    0.73
   3 -12  -1   17.46    0.59
  -3 -12   1   16.93    0.82
   3  12  -1   16.98    0.75
   3  12  -1   17.60    0.67
   3  12  -1   17.51    0.79
   3  12  -1   18.00    0.57
   3  12  -1   17.09    0.57
  -3  12   1   17.36    0.72
  -3  12   1   17.34    0.75
  -3  12   1   17.76    0.67
  -2 -12   1  123.56    3.40
   2 -12  -1  123.56    3.20
  -2 -12   1  125.46    3.19
  -2 -12   1  130.26    3.30
   2 -12  -1  130.42    3.30
   2 -12  -1  126.18    3.33
   2 -12  -1  125.31    3.33
  -2 -12   1  126.67    3.31
   2  12  -1  122.77    3.18
  -2  12   1  126.58    3.25
  -2  12   1  132.75    3.18
  -2  12   1  122.47    3.34
  -2  12   1  122.53    3.26
   2  12  -1  128.49    3.36
   2  12  -1  120.50    3.22
   2  12  -1  123.01    3.35
   1 -12  -1   51.48    1.48
  -1 -12   1   49.32    1.41
   1 -12  -1   51.29    1.42
  -1 -12   1   50.78    1.54
   1 -12  -1   51.19    1.46
  -1 -12   1   51.64    1.46
   1 -12  -1   50.54    1.42
  -1 -12   1   51.05    1.40
  -1 -12   1   47.69    1.45
   1  12  -1   50.05    1.39
   1  12  -1   52.37    1.50
  -1  12   1   49.59    1.43
   1  12  -1   49.10    1.50
  -1  12   1   49.80    1.48
  -1  12   1   51.41    1.40
  -1  12   1   50.75    1.36
   0 -12   1  221.26    5.58
   0 -12  -1  221.85    5.55
   0 -12  -1  223.98    5.53
   0 -12   1  222.16    5.52
   0 -12   1  221.46    5.53
   0 -12  -1  218.96    5.41
   0 -12   1  227.44    5.54
   0 -12  -1  209.70    5.54
   0  12  -1  230.76    5.56
   0  12  -1  217.97    5.52
   0  12   1  217.01    5.53
   0  12   1  210.82    5.53
   0  12  -1  217.23    5.57
   0  12  -1  216.43    5.55
   0  12   1  220.79    5.53
  -1 -12  -1   54.10    1.54
  -1 -12  -1   55.41    1.52
  -1 -12  -1   54.55    1.60
   1 -12   1   54.00    1.53
   1 -12   1   53.16    1.54
   1 -12   1   52.21    1.53
   1 -12   1   50.23    1.57
  -1 -12  -1   55.42    1.38
  -1 -12  -1   54.13    1.39
   1  12   1   55.09    1.58
  -1  12  -1   54.32    1.53
  -1  12  -1   51.20    1.53
   1  12   1   53.03    1.54
   1  12   1   52.69    1.51
  -1  12  -1   53.96    1.56
  -1  12  -1   52.98    1.56
   2 -12   1   80.16    2.19
  -2 -12  -1   82.38    2.10
  -2 -12  -1   77.79    2.31
   2 -12   1   84.62    2.22
   2 -12   1   80.81    2.18
  -2 -12  -1   82.35    2.17
   2 -12   1   79.51    2.25
   2 -12   1   79.42    2.33
  -2  12  -1   78.42    2.21
  -2  12  -1   76.46    2.26
   2  12   1   84.71    2.31
   2  12   1   79.05    2.24
   2  12   1   82.02    2.18
   2  12   1   78.90    2.09
  -2  12  -1   80.42    2.18
   3 -12   1    8.08    0.45
   3 -12   1    7.53    0.46
   3 -12   1    7.36    0.60
  -3 -12  -1    7.76    0.60
  -3 -12  -1    7.82    0.43
  -3 -12  -1    8.23    0.44
   3 -12   1    7.76    0.50
   3  12   1    8.47    0.50
   3  12   1    7.59    0.45
  -3  12  -1    7.93    0.44
  -3  12  -1    7.52    0.54
   3  12   1    7.61    0.38
   3  12   1    6.45    0.58
  -3  12  -1    7.61    0.52
   3  12   1    8.07    0.47
  -4 -12  -1    1.53    0.26
   4 -12   1    1.51    0.36
   4 -12   1    1.62    0.29
  -4 -12  -1    1.85    0.31
   4 -12   1    1.45    0.42
  -4  12  -1    1.22    0.33
  -4  12  -1    1.30    0.25
   4  12   1    1.54    0.29
   4  12   1    1.47    0.27
   4  12   1    1.29    0.26
   4  12   1    1.43    0.29
  -5 -12  -1    6.03    0.74
   5 -12   1    6.20    0.83
  -5 -12  -1    7.13    0.78
   5  12   1    7.01    0.58
   5  12   1    6.60    0.52
   5  12   1    7.16    0.55
  -5  12  -1    7.16    0.47
  -5  12  -1    7.21    0.71
   6 -12   1    3.14    0.78
  -6 -12  -1    2.66    0.57
   6 -12   1    2.96    0.48
  -6  12  -1    3.23    0.56
   6  12   1    2.59    0.43
   6  12   1    4.88    0.67
   6 -13  -1    9.28    0.99
  -6 -13   1    8.82    0.95
   6 -13  -1   10.01    0.65
   6  13  -1    7.00    0.90
  -6  13   1    9.89    0.82
   6  13  -1   10.15    0.77
  -5 -13   1   30.93    1.36
   5 -13  -1   30.29    0.96
   5 -13  -1   29.42    1.06
   5 -13  -1   28.48    1.34
   5  13  -1   30.85    0.98
   5  13  -1   27.62    1.19
  -5  13   1   28.62    1.18
   5  13  -1   30.21    0.93
  -5  13   1   30.13    1.05
   5  13  -1   29.65    1.13
   4 -13  -1   10.54    0.74
   4 -13  -1   12.20    0.55
   4 -13  -1   10.74    0.47
  -4 -13   1   11.15    0.72
  -4 -13   1   11.16    0.75
   4  13  -1   11.33    0.46
  -4  13   1   11.51    0.58
   4  13  -1   11.10    0.50
   4  13  -1   11.32    0.59
  -4  13   1   12.66    0.71
   4  13  -1   11.13    0.69
   3 -13  -1   93.77    2.66
  -3 -13   1   93.88    2.59
   3 -13  -1   92.30    2.41
   3 -13  -1   90.73    2.59
  -3 -13   1   94.32    2.54
   3 -13  -1   92.70    2.42
  -3 -13   1   90.10    2.69
   3  13  -1   93.15    2.49
   3  13  -1   91.74    2.62
   3  13  -1   95.55    2.40
  -3  13   1   89.80    2.49
  -3  13   1   90.25    2.61
  -3  13   1   92.71    2.55
   3  13  -1   93.42    2.39
   3  13  -1   92.49    2.64
   2 -13  -1    2.13    0.31
   2 -13  -1    2.44    0.31
   2 -13  -1    2.37    0.25
  -2 -13   1    2.52    0.31
  -2 -13   1    2.41    0.35
   2 -13  -1    1.77    0.26
  -2 -13   1    1.88    0.24
  -2 -13   1    2.57    0.32
   2  13  -1    2.25    0.22
   2  13  -1    2.24    0.25
  -2  13   1    2.12    0.29
  -2  13   1    2.16    0.26
   2  13  -1    2.65    0.36
   2  13  -1    2.85    0.35
  -2  13   1    2.19    0.29
  -2  13   1    2.49    0.23
   1 -13  -1   30.27    0.94
   1 -13  -1   30.75    1.00
  -1 -13   1   29.56    0.92
  -1 -13   1   31.62    0.99
   1 -13  -1   30.47    0.99
  -1 -13   1   27.37    0.97
   1 -13  -1   29.70    0.94
  -1 -13   1   29.93    0.94
  -1  13   1   29.40    0.87
   1  13  -1   31.27    0.93
   1  13  -1   31.63    1.02
  -1  13   1   29.60    1.00
  -1  13   1   31.29    0.93
  -1  13   1   30.44    0.97
   1  13  -1   29.69    1.02
   0 -13  -1    9.48    0.36
   0 -13   1    9.20    0.46
   0 -13   1    9.06    0.44
   0 -13  -1    9.10    0.46
   0 -13   1    9.04    0.45
   0 -13  -1    9.53    0.47
   0 -13   1    8.97    0.49
   0 -13  -1    9.21    0.46
   0  13   1    9.21    0.45
   0  13   1    9.49    0.46
   0  13  -1    8.14    0.45
   0  13  -1    8.90    0.49
   0  13  -1    9.61    0.45
   0  13   1    9.39    0.45
  -1 -13  -1   33.63    0.91
   1 -13   1   33.08    1.07
  -1 -13  -1   32.14    1.12
  -1 -13  -1   34.20    1.06
   1 -13   1   31.00    1.09
   1 -13   1   34.18    1.06
  -1 -13  -1   34.24    1.05
   1 -13   1   32.68    1.06
  -1 -13  -1   34.13    0.90
   1  13   1   33.33    1.04
  -1  13  -1   33.96    1.08
  -1  13  -1   33.07    1.08
  -1  13  -1   33.56    1.07
  -1  13  -1   32.97    1.05
   1  13   1   34.27    1.10
   1  13   1   32.44    1.07
   2 -13   1    0.69    0.23
   2 -13   1    0.80    0.21
   2 -13   1    0.79    0.19
   2 -13   1    0.80    0.26
  -2 -13  -1    0.80    0.20
  -2 -13  -1    0.84    0.28
  -2 -13  -1    0.91    0.21
  -2 -13  -1    0.99    0.17
   2 -13   1    1.06    0.24
   2  13   1    1.01    0.14
   2  13   1    1.15    0.29
   2  13   1    0.96    0.24
  -2  13  -1    0.95    0.25
  -2  13  -1    0.92    0.21
   2  13   1    0.50    0.17
  -2  13  -1    1.04    0.22
  -3 -13  -1   61.78    1.98
   3 -13   1   64.88    1.79
  -3 -13  -1   60.71    1.73
   3 -13   1   60.65    1.77
   3 -13   1   60.07    2.00
   3 -13   1   62.68    1.85
  -3 -13  -1   62.66    1.75
   3  13   1   61.32    1.80
   3  13   1   62.35    1.68
   3  13   1   61.28    2.36
   3  13   1   62.87    1.78
   3  13   1   61.61    1.84
  -3  13  -1   60.32    1.75
  -3  13  -1   64.63    1.92
   4 -13   1   32.84    1.12
  -4 -13  -1   33.34    1.07
   4 -13   1   33.06    1.42
  -4 -13  -1   33.34    1.14
   4 -13   1   32.62    1.24
   4  13   1   32.11    1.15
   4  13   1   33.11    1.07
  -4  13  -1   32.06    1.07
  -4  13  -1   32.26    1.27
   4  13   1   33.50    1.15
   4  13   1   33.15    1.11
  -5 -13  -1   40.74    1.79
  -5 -13  -1   37.93    1.60
   5 -13   1   36.21    1.64
   5 -13   1   36.71    1.32
   5  13   1   38.28    1.29
   5  13   1   38.79    1.29
  -5  13  -1   36.80    1.20
   5  13   1   38.02    1.30
  -5  13  -1   37.04    1.47
  -6 -13  -1   12.52    1.15
   6 -13   1   14.09    1.30
   6 -13   1   14.35    0.84
  -6  13  -1   12.30    1.00
   6  13   1   12.43    0.82
   6  13   1   13.58    0.84
   6 -14  -1   -0.55    0.52
  -6 -14   1    0.67    0.54
   6  14  -1    0.57    0.43
  -6  14   1   -0.18    0.37
   6  14  -1   -0.12    0.37
  -6  14   1    0.45    0.43
   5 -14  -1    0.35    0.23
  -5 -14   1    0.13    0.44
   5 -14  -1    0.31    0.31
   5 -14  -1    0.29    0.40
   5  14  -1    0.31    0.29
   5  14  -1    0.41    0.21
   5  14  -1    0.34    0.29
  -5  14   1   -0.48    0.28
   5  14  -1    0.26    0.36
  -5  14   1    0.57    0.28
  -4 -14   1   39.70    1.41
   4 -14  -1   40.37    1.22
   4 -14  -1   40.52    1.51
   4 -14  -1   39.94    1.17
  -4 -14   1   41.46    1.52
   4  14  -1   40.21    1.17
  -4  14   1   38.06    1.41
   4  14  -1   37.76    1.39
  -4  14   1   38.15    1.26
   4  14  -1   40.00    1.14
   4  14  -1   39.89    1.28
  -3 -14   1   10.89    0.70
  -3 -14   1   11.55    0.59
   3 -14  -1   11.17    0.75
   3 -14  -1   11.20    0.67
   3 -14  -1   11.02    0.48
  -3 -14   1   11.17    0.62
   3 -14  -1   11.61    0.49
  -3  14   1   12.09    0.58
   3  14  -1   12.15    0.54
  -3  14   1   11.99    0.57
  -3  14   1   11.02    0.64
   3  14  -1   11.09    0.65
   3  14  -1   11.21    0.66
   3  14  -1   11.93    0.46
  -2 -14   1   78.27    2.16
   2 -14  -1   76.32    2.18
   2 -14  -1   75.59    2.18
   2 -14  -1   77.97    2.17
   2 -14  -1   78.64    2.06
  -2 -14   1   78.21    2.15
  -2 -14   1   77.34    2.27
  -2 -14   1   68.97    2.10
  -2  14   1   75.24    2.11
  -2  14   1   78.77    2.08
  -2  14   1   76.18    2.20
   2  14  -1   77.42    2.04
  -2  14   1   79.39    2.04
   2  14  -1   73.03    2.21
   2  14  -1   76.31    2.07
   2  14  -1   79.13    2.23
   1 -14  -1    2.08    0.26
  -1 -14   1    1.95    0.27
  -1 -14   1    1.71    0.26
   1 -14  -1    1.70    0.25
  -1 -14   1    1.95    0.25
  -1 -14   1    1.55    0.27
  -1 -14   1    2.04    0.25
   1 -14  -1    2.49    0.31
   1 -14  -1    1.74    0.25
   1  14  -1    2.06    0.30
   1  14  -1    1.85    0.27
  -1  14   1    1.52    0.23
  -1  14   1    1.58    0.24
  -1  14   1    1.98    0.25
   1  14  -1    2.36    0.25
   0 -14   1   96.70    2.64
   0 -14  -1   93.17    2.60
   0 -14  -1   97.27    2.61
   0 -14  -1  100.06    2.60
   0 -14   1   97.79    2.57
   0 -14   1   99.45    2.58
   0 -14  -1   91.55    2.61
   0 -14   1   99.74    2.60
   0  14   1   95.33    2.59
   0  14   1   98.37    2.58
   0  14  -1   93.05    2.63
   0  14  -1   92.66    2.60
   0  14  -1   96.05    2.58
   0  14   1   94.64    2.59
   1 -14   1    7.18    0.44
   1 -14   1    6.55    0.45
  -1 -14  -1    6.67    0.27
  -1 -14  -1    6.89    0.42
   1 -14   1    5.96    0.42
  -1 -14  -1    6.55    0.42
   1 -14   1    6.01    0.42
  -1 -14  -1    6.50    0.46
  -1 -14  -1    6.61    0.29
   1  14   1    6.45    0.39
   1  14   1    7.04    0.45
  -1  14  -1    5.87    0.40
   1  14   1    7.26    0.47
  -1  14  -1    5.93    0.42
  -1  14  -1    6.74    0.43
  -1  14  -1    6.80    0.44
  -2 -14  -1   66.86    1.82
  -2 -14  -1   64.34    1.71
   2 -14   1   60.70    1.96
  -2 -14  -1   63.97    1.97
   2 -14   1   62.40    1.83
   2 -14   1   63.03    1.88
   2 -14   1   63.62    1.82
  -2 -14  -1   66.21    1.85
   2 -14   1   66.38    1.86
   2  14   1   62.05    1.89
   2  14   1   64.99    1.81
   2  14   1   66.86    1.95
  -2  14  -1   61.21    1.84
  -2  14  -1   64.11    1.91
   2  14   1   65.69    1.66
  -2  14  -1   62.19    1.82
  -3 -14  -1    6.40    0.40
   3 -14   1    5.41    0.49
   3 -14   1    6.52    0.62
   3 -14   1    6.73    0.46
   3 -14   1    5.96    0.47
  -3 -14  -1    7.85    0.62
  -3 -14  -1    5.85    0.43
   3  14   1    5.84    0.50
   3  14   1    6.18    0.34
  -3  14  -1    6.56    0.54
   3  14   1    6.84    0.48
  -3  14  -1    6.63    0.43
   3  14   1    6.08    0.43
   4 -14   1    4.92    0.47
  -4 -14  -1    4.68    0.49
  -4 -14  -1    3.77    0.44
   4 -14   1    4.62    0.54
   4 -14   1    3.76    0.59
   4  14   1    4.44    0.50
  -4  14  -1    5.42    0.62
  -4  14  -1    4.91    0.43
   4  14   1    4.36    0.44
   4  14   1    5.87    0.53
   4  14   1    5.16    0.40
   5 -14   1    0.01    0.33
  -5 -14  -1    0.70    0.49
   5 -14   1    0.64    0.51
   5  14   1    0.14    0.33
   5  14   1    0.31    0.29
  -5  14  -1   -0.02    0.37
   5  14   1    0.79    0.30
  -5  14  -1    0.24    0.29
  -6 -14  -1    0.99    0.63
   6 -14   1    0.98    0.69
   6 -14   1    1.16    0.44
  -6  14  -1    1.13    0.49
   6  14   1    0.80    0.39
   6  14   1    0.86    0.43
  -6 -15   1    3.14    0.65
   6 -15  -1    4.03    0.76
   6  15  -1    6.00    0.75
   6  15  -1    5.51    0.66
  -6  15   1    4.24    0.63
  -5 -15   1   49.77    1.91
   5 -15  -1   49.73    1.92
   5 -15  -1   47.82    1.45
   5  15  -1   50.62    1.42
  -5  15   1   49.75    1.76
   5  15  -1   49.39    1.60
   4 -15  -1   17.49    0.99
   4 -15  -1   19.85    0.74
  -4 -15   1   18.32    0.90
  -4 -15   1   18.59    1.00
   4 -15  -1   19.37    0.68
   4  15  -1   18.05    0.90
   4  15  -1   17.83    0.76
   4  15  -1   18.23    0.65
  -4  15   1   17.15    0.89
  -4  15   1   17.48    0.78
   4  15  -1   19.37    0.78
  -3 -15   1   43.30    1.42
  -3 -15   1   42.72    1.42
   3 -15  -1   44.02    1.27
   3 -15  -1   43.91    1.49
   3 -15  -1   42.13    1.25
  -3 -15   1   42.68    1.53
   3 -15  -1   48.77    1.68
   3  15  -1   42.72    1.23
  -3  15   1   40.92    1.33
   3  15  -1   41.69    1.29
   3  15  -1   42.85    1.63
   3  15  -1   43.09    1.25
   3  15  -1   41.90    1.47
  -3  15   1   43.17    1.36
  -3  15   1   42.76    1.46
  -2 -15   1    9.75    0.53
   2 -15  -1    9.92    0.55
   2 -15  -1    8.94    0.46
   2 -15  -1    9.28    0.54
  -2 -15   1    9.12    0.52
   2 -15  -1    9.24    0.55
  -2 -15   1    8.70    0.44
  -2  15   1    8.65    0.45
  -2  15   1    9.16    0.50
   2  15  -1    8.29    0.57
  -2  15   1    8.95    0.55
  -2  15   1   10.08    0.45
   2  15  -1    8.73    0.41
   2  15  -1    8.12    0.57
   1 -15  -1   10.95    0.49
   1 -15  -1   10.41    0.56
   1 -15  -1   11.12    0.56
  -1 -15   1   10.57    0.49
  -1 -15   1   10.36    0.59
  -1 -15   1   11.39    0.55
   1 -15  -1   10.34    0.50
  -1 -15   1   10.05    0.49
  -1 -15   1    9.58    0.52
   1  15  -1   11.40    0.57
  -1  15   1   10.50    0.48
  -1  15   1   10.24    0.44
   1  15  -1   10.48    0.47
  -1  15   1   10.72    0.53
   1  15  -1   10.27    0.58
  -1  15   1   11.63    0.56
   0 -15   1    4.09    0.38
   0 -15  -1    4.49    0.38
   0 -15  -1    3.78    0.26
   0 -15   1    3.58    0.40
   0 -15  -1    4.05    0.37
   0 -15   1    3.94    0.34
   0 -15  -1    4.37    0.27
   0 -15  -1    4.62    0.38
   0 -15   1    4.25    0.35
   0  15  -1    3.93    0.40
   0  15  -1    4.28    0.35
   0  15   1    4.04    0.35
   0  15  -1    3.13    0.34
   0  15   1    4.34    0.36
   0  15   1    3.98    0.38
   1 -15   1    2.16    0.29
  -1 -15  -1    2.33    0.30
  -1 -15  -1    2.35    0.19
  -1 -15  -1    2.76    0.35
  -1 -15  -1    2.89    0.38
   1 -15   1    2.80    0.36
   1 -15   1    2.79    0.36
   1 -15   1    2.57    0.34
  -1 -15  -1    2.21    0.21
  -1  15  -1    2.41    0.34
   1  15   1    2.65    0.34
  -1  15  -1    2.61    0.35
   1  15   1    2.60    0.31
  -1  15  -1    2.88    0.33
  -1  15  -1    2.54    0.34
   1  15   1    2.44    0.32
   2 -15   1    1.95    0.34
  -2 -15  -1    1.90    0.34
  -2 -15  -1    2.09    0.23
   2 -15   1    1.94    0.30
   2 -15   1    1.42    0.27
   2 -15   1    1.86    0.28
   2 -15   1    2.10    0.30
  -2 -15  -1    1.91    0.30
  -2 -15  -1    2.04    0.28
  -2  15  -1    1.68    0.28
   2  15   1    1.84    0.32
  -2  15  -1    2.05    0.31
   2  15   1    2.30    0.38
  -2  15  -1    1.61    0.27
   2  15   1    1.63    0.25
   3 -15   1   65.15    1.96
   3 -15   1   64.86    1.90
  -3 -15  -1   65.83    1.90
  -3 -15  -1   65.71    1.83
   3 -15   1   65.29    2.15
   3  15   1   67.50    1.90
   3  15   1   65.72    1.92
   3  15   1   63.45    1.98
  -3  15  -1   64.88    1.89
  -3  15  -1   67.95    2.05
   3  15   1   67.67    1.77
   4 -15   1    8.01    0.59
  -4 -15  -1    8.63    0.64
   4 -15   1    9.05    0.74
   4 -15   1    7.15    0.81
  -4 -15  -1    7.73    0.57
   4  15   1    8.40    0.64
  -4  15  -1    9.56    0.75
   4  15   1    9.00    0.49
  -4  15  -1    8.35    0.54
   4  15   1    8.06    0.55
   5 -15   1   39.36    1.77
  -5 -15  -1   36.21    1.64
   5  15   1   37.87    1.26
  -5  15  -1   35.76    1.24
  -5  15  -1   37.35    1.51
   5  15   1   36.64    1.29
   5  15   1   37.16    1.34
   6 -15   1    3.02    0.50
  -6  15  -1    1.80    0.58
  -6 -16   1   -0.53    0.57
   6 -16  -1    0.59    0.61
   6  16  -1   -0.11    0.49
   6  16  -1   -0.36    0.38
  -6  16   1    0.16    0.44
   5 -16  -1    0.20    0.26
   5 -16  -1    0.28    0.48
  -5 -16   1    0.78    0.50
   5  16  -1    0.30    0.40
   5  16  -1   -0.24    0.19
  -5  16   1   -0.08    0.29
   5  16  -1   -0.03    0.38
  -5  16   1    0.53    0.38
   4 -16  -1    5.90    0.47
   4 -16  -1    6.28    0.73
   4 -16  -1    6.57    0.44
  -4 -16   1    5.84    0.66
  -4 -16   1    5.60    0.72
  -4  16   1    5.76    0.60
  -4  16   1    6.91    0.53
   4  16  -1    6.56    0.45
   4  16  -1    6.57    0.65
   4  16  -1    6.93    0.50
   4  16  -1    5.98    0.39
  -3 -16   1    8.96    0.58
  -3 -16   1    8.88    0.69
   3 -16  -1    8.68    0.47
   3 -16  -1    8.47    0.64
   3 -16  -1    8.22    0.45
  -3  16   1    8.01    0.60
   3  16  -1    8.13    0.45
   3  16  -1    8.01    0.61
  -3  16   1    8.75    0.54
  -3  16   1    7.84    0.51
   3  16  -1    8.18    0.42
   2 -16  -1   74.21    2.15
  -2 -16   1   72.18    2.11
  -2 -16   1   75.25    2.11
  -2 -16   1   73.83    2.01
   2 -16  -1   74.78    2.03
   2 -16  -1   74.59    2.14
  -2 -16   1   73.00    2.02
   2 -16  -1   71.83    2.14
  -2 -16   1   72.57    2.24
   2  16  -1   73.79    2.18
   2  16  -1   73.78    2.00
  -2  16   1   75.84    2.02
  -2  16   1   74.06    2.00
  -2  16   1   72.67    2.16
  -2  16   1   73.08    2.09
   2  16  -1   71.84    2.20
   1 -16  -1    0.04    0.17
   1 -16  -1   -0.17    0.15
   1 -16  -1    0.04    0.19
  -1 -16   1    0.14    0.19
  -1 -16   1    0.24    0.19
  -1 -16   1    0.01    0.19
  -1 -16   1    0.32    0.24
  -1 -16   1   -0.01    0.16
   1  16  -1   -0.03    0.21
  -1  16   1    0.04    0.14
  -1  16   1    0.00    0.15
   1  16  -1    0.28    0.23
  -1  16   1   -0.07    0.17
   1  16  -1    0.01    0.14
  -1  16   1    0.25    0.18
   0 -16  -1  213.78    5.08
   0 -16  -1  208.32    5.23
   0 -16   1  202.62    5.18
   0 -16  -1  199.26    5.25
   0 -16  -1  199.43    5.08
   0 -16   1  206.69    5.22
   0 -16  -1  199.80    5.23
   0 -16   1  199.61    5.28
   0 -16   1  216.42    5.22
   0 -16   1  206.92    5.20
   0  16  -1  203.42    5.24
   0  16   1  198.03    5.22
   0  16  -1  199.55    5.27
   0  16  -1  197.58    5.20
   0  16   1  207.18    5.22
   0  16   1  199.16    5.22
  -1 -16  -1    0.39    0.14
  -1 -16  -1    0.37    0.24
  -1 -16  -1    0.72    0.24
  -1 -16  -1    0.26    0.15
   1 -16   1    0.23    0.20
   1 -16   1    0.34    0.20
  -1 -16  -1    0.07    0.21
   1 -16   1    0.37    0.20
   1 -16   1    0.07    0.21
   1  16   1    0.22    0.22
  -1  16  -1    0.34    0.22
   1  16   1    0.13    0.21
   1  16   1    0.36    0.18
  -1  16  -1    0.27    0.19
  -1  16  -1    0.32    0.21
  -1  16  -1    0.02    0.19
  -2 -16  -1  119.96    3.09
  -2 -16  -1  117.75    2.96
  -2 -16  -1  115.31    3.12
   2 -16   1  114.67    3.25
  -2 -16  -1  112.11    3.25
   2 -16   1  115.49    3.10
   2 -16   1  115.33    3.12
   2 -16   1  113.41    3.13
  -2 -16  -1  115.62    2.90
  -2  16  -1  113.02    3.09
  -2  16  -1  115.77    3.19
   2  16   1  118.09    3.08
   2  16   1  114.57    3.20
  -2  16  -1  108.68    3.10
   2  16   1  114.17    3.18
   3 -16   1    5.76    0.55
  -3 -16  -1    7.09    0.55
   3 -16   1    6.70    0.51
  -3 -16  -1    7.08    0.45
   3 -16   1    6.22    0.70
   3  16   1    6.23    0.34
  -3  16  -1    5.95    0.56
   3  16   1    5.93    0.57
   3  16   1    6.64    0.47
  -3  16  -1    6.22    0.50
   3  16   1    7.01    0.52
   4 -16   1   37.23    1.62
  -4 -16  -1   35.38    1.24
   4 -16   1   36.73    1.26
   4  16   1   36.51    1.24
  -4  16  -1   37.07    1.25
   4  16   1   37.19    1.37
   4  16   1   37.97    1.15
  -4  16  -1   38.14    1.46
  -5 -16  -1    0.26    0.46
   5 -16   1    0.19    0.56
  -5  16  -1   -0.10    0.32
   5  16   1    0.14    0.29
   5  16   1    0.29    0.34
  -5  16  -1    1.03    0.45
  -6 -17   1    9.09    1.18
   6 -17  -1    8.03    1.17
  -6  17   1   10.88    0.77
   6  17  -1    7.57    0.99
  -6  17   1    7.68    0.83
   6  17  -1    9.73    0.76
  -5 -17   1   43.82    1.84
   5 -17  -1   44.29    1.85
   5 -17  -1   44.19    1.38
  -5  17   1   46.59    1.71
   5  17  -1   45.78    1.33
   5  17  -1   44.88    1.70
   4 -17  -1    2.64    0.53
   4 -17  -1    2.42    0.36
   4 -17  -1    2.31    0.32
  -4 -17   1    2.42    0.49
  -4 -17   1    2.12    0.50
   4  17  -1    1.93    0.75
   4  17  -1    2.70    0.33
   4  17  -1    2.50    0.34
  -4  17   1    2.36    0.42
   4  17  -1    2.83    0.32
   3 -17  -1   45.11    1.34
  -3 -17   1   44.73    1.48
   3 -17  -1   44.27    1.33
   3 -17  -1   44.28    1.56
   3  17  -1   42.43    1.55
  -3  17   1   43.96    1.42
  -3  17   1   43.43    1.40
  -3  17   1   44.15    1.60
   3  17  -1   44.28    1.29
   3  17  -1   44.05    1.34
   2 -17  -1   -0.20    0.19
   2 -17  -1   -0.04    0.24
  -2 -17   1    0.42    0.19
  -2 -17   1   -0.08    0.27
  -2 -17   1   -0.11    0.25
  -2 -17   1    0.04    0.18
   2 -17  -1    0.49    0.24
   2 -17  -1   -0.16    0.24
  -2  17   1   -0.04    0.18
   2  17  -1    0.21    0.16
  -2  17   1   -0.01    0.20
  -2  17   1    0.13    0.23
   2  17  -1   -0.16    0.23
   2  17  -1   -0.04    0.23
  -2  17   1   -0.11    0.17
  -1 -17   1    3.02    0.35
  -1 -17   1    2.98    0.38
  -1 -17   1    3.41    0.43
   1 -17  -1    2.42    0.31
  -1 -17   1    2.77    0.34
   1 -17  -1    2.84    0.38
  -1 -17   1    2.63    0.34
   1 -17  -1    2.55    0.32
   1 -17  -1    3.04    0.37
  -1  17   1    2.99    0.35
  -1  17   1    2.77    0.30
  -1  17   1    2.87    0.37
   1  17  -1    2.68    0.38
   1  17  -1    2.89    0.33
  -1  17   1    2.93    0.31
   1  17  -1    3.51    0.42
   0 -17  -1    0.83    0.24
   0 -17  -1    0.90    0.18
   0 -17  -1    0.48    0.23
   0 -17  -1    0.86    0.25
   0 -17  -1    0.95    0.17
   0 -17   1    0.87    0.22
   0 -17   1    0.80    0.26
   0 -17   1    0.50    0.25
   0 -17   1    0.76    0.23
   0 -17   1    0.91    0.25
   0  17   1    0.79    0.25
   0  17  -1    0.59    0.24
   0  17  -1    0.92    0.23
   0  17  -1    0.99    0.25
   0  17   1    0.76    0.23
   0  17   1    0.63    0.21
   1 -17   1    2.99    0.40
  -1 -17  -1    2.28    0.34
  -1 -17  -1    2.90    0.26
  -1 -17  -1    3.70    0.42
   1 -17   1    3.13    0.39
   1 -17   1    3.00    0.36
   1 -17   1    2.73    0.36
  -1 -17  -1    2.99    0.41
  -1 -17  -1    2.84    0.23
  -1  17  -1    2.99    0.40
   1  17   1    2.48    0.33
  -1  17  -1    2.91    0.38
  -1  17  -1    2.95    0.39
   1  17   1    3.16    0.35
   1  17   1    2.89    0.37
  -1  17  -1    2.55    0.34
  -2 -17  -1    0.61    0.34
  -2 -17  -1    0.86    0.18
   2 -17   1    0.71    0.27
  -2 -17  -1    1.03    0.27
  -2 -17  -1    1.11    0.28
  -2 -17  -1    0.80    0.19
   2 -17   1    0.85    0.28
   2 -17   1    0.71    0.32
   2  17   1    0.96    0.24
   2  17   1    0.75    0.40
   2  17   1    0.85    0.29
  -2  17  -1    1.03    0.28
  -2  17  -1    1.02    0.27
  -3 -17  -1   12.47    0.58
   3 -17   1   11.52    0.83
   3 -17   1   12.77    0.74
   3 -17   1   12.58    0.65
  -3  17  -1   11.79    0.65
   3  17   1   12.23    0.62
   3  17   1   11.94    0.76
   3  17   1   11.91    0.70
  -3  17  -1   11.35    0.72
   3  17   1   12.58    0.48
   4 -17   1    0.17    0.26
   4 -17   1    0.38    0.47
  -4 -17  -1   -0.72    0.32
  -4  17  -1   -0.12    0.27
   4  17   1    0.25    0.26
   4  17   1    0.28    0.32
  -4  17  -1   -0.05    0.33
   4  17   1    0.13    0.21
  -5 -17  -1   17.73    1.17
   5 -17   1   16.83    1.32
   5  17   1   15.27    0.97
  -5  17  -1   18.21    0.86
  -5  17  -1   18.76    1.13
   5  17   1   17.96    0.77
   5  17   1   17.19    0.84
  -6 -18   1   -0.78    0.74
   6 -18  -1   -0.06    0.70
   6  18  -1    0.94    0.57
  -6  18   1   -0.37    0.44
   6  18  -1    0.56    0.40
   5 -18  -1    3.16    0.64
   5 -18  -1    3.66    0.43
  -5 -18   1    3.68    0.69
   5  18  -1    3.44    0.45
   5  18  -1    2.98    0.57
  -5  18   1    3.23    0.57
  -4 -18   1   34.35    1.54
   4 -18  -1   32.81    1.13
   4 -18  -1   32.77    1.08
  -4 -18   1   30.60    1.48
   4 -18  -1   33.45    1.43
   4  18  -1   33.07    1.09
  -4  18   1   31.70    1.32
  -4  18   1   33.09    1.20
   4  18  -1   32.19    1.39
   4  18  -1   32.39    1.04
   4  18  -1   33.29    1.12
  -3 -18   1    3.45    0.38
   3 -18  -1    2.62    0.33
   3 -18  -1    2.36    0.32
  -3 -18   1    2.33    0.43
   3 -18  -1    2.56    0.44
  -3  18   1    2.12    0.34
  -3  18   1    2.35    0.41
   3  18  -1    2.52    0.32
   3  18  -1    2.42    0.31
   3  18  -1    2.67    0.49
   2 -18  -1   39.36    1.24
  -2 -18   1   37.73    1.22
  -2 -18   1   38.76    1.46
  -2 -18   1   38.71    1.31
   2 -18  -1   38.36    1.32
  -2 -18   1   39.89    1.22
  -2  18   1   40.48    1.37
   2  18  -1   38.72    1.19
  -2  18   1   38.19    1.29
  -2  18   1   36.94    1.20
  -2  18   1   37.09    1.18
   2  18  -1   38.28    1.41
   1 -18  -1   10.07    0.52
  -1 -18   1    9.46    0.67
  -1 -18   1   10.79    0.61
   1 -18  -1    9.92    0.62
  -1 -18   1   10.17    0.55
  -1 -18   1    9.25    0.57
   1 -18  -1   10.92    0.59
   1 -18  -1   11.06    0.64
  -1 -18   1   11.21    0.54
   1  18  -1   10.62    0.60
  -1  18   1    9.97    0.58
   1  18  -1    9.95    0.65
  -1  18   1   10.94    0.53
  -1  18   1   10.69    0.49
   1  18  -1   10.27    0.54
  -1  18   1   10.30    0.60
   0 -18   1  101.97    2.65
   0 -18   1  102.12    2.64
   0 -18  -1   99.20    2.51
   0 -18  -1   93.82    2.69
   0 -18  -1   93.21    2.67
   0 -18  -1   90.66    2.65
   0 -18  -1   95.56    2.51
   0 -18   1   96.22    2.64
   0 -18   1   95.11    2.73
   0  18  -1   93.79    2.64
   0  18   1   92.90    2.67
   0  18   1   97.07    2.65
   0  18  -1   95.84    2.67
   0  18   1   92.44    2.65
   0  18  -1   94.73    2.72
  -1 -18  -1   15.07    0.51
   1 -18   1   14.80    0.70
  -1 -18  -1   14.11    0.72
   1 -18   1   14.86    0.74
   1 -18   1   14.76    0.72
   1 -18   1   14.44    0.74
  -1 -18  -1   14.86    0.71
  -1 -18  -1   14.92    0.54
  -1 -18  -1   14.05    0.79
  -1  18  -1   14.48    0.69
  -1  18  -1   15.35    0.70
   1  18   1   14.64    0.73
  -1  18  -1   13.97    0.71
   1  18   1   14.91    0.73
  -1  18  -1   13.37    0.70
   1  18   1   14.07    0.67
  -2 -18  -1   52.03    1.65
   2 -18   1   52.10    1.65
   2 -18   1   52.03    1.63
  -2 -18  -1   52.59    1.79
  -2 -18  -1   51.16    1.60
   2 -18   1   51.79    1.76
  -2 -18  -1   53.27    1.46
  -2 -18  -1   51.31    1.40
   2  18   1   51.84    1.59
   2  18   1   51.55    1.70
  -2  18  -1   53.46    1.71
  -2  18  -1   52.30    1.63
  -3 -18  -1    2.06    0.31
  -3 -18  -1    2.14    0.37
   3 -18   1    2.24    0.51
   3 -18   1    1.96    0.41
   3 -18   1    2.20    0.37
  -3  18  -1    2.19    0.35
   3  18   1    2.34    0.44
  -3  18  -1    2.53    0.44
   3  18   1    1.54    0.40
   3  18   1    2.37    0.32
   4 -18   1   35.28    1.65
  -4  18  -1   36.62    1.30
   4  18   1   37.01    1.42
   4  18   1   37.42    1.27
  -4  18  -1   37.43    1.49
   4  18   1   38.40    1.14
   5 -18   1   -0.14    0.62
  -5 -18  -1    0.40    0.56
  -5  18  -1    0.31    0.37
  -5  18  -1    0.52    0.50
   5  18   1    0.58    0.35
  -5 -19   1   42.68    1.84
   5 -19  -1   41.27    1.85
  -5  19   1   41.43    1.50
   5  19  -1   43.98    1.44
   5  19  -1   43.99    1.72
  -5  19   1   42.05    1.69
   4 -19  -1    0.13    0.27
   4 -19  -1   -0.26    0.33
   4 -19  -1   -0.48    0.39
  -4 -19   1   -0.46    0.54
   4  19  -1    0.07    0.41
   4  19  -1    0.23    0.30
   4  19  -1    0.40    0.22
  -4  19   1   -0.36    0.30
   4  19  -1    0.25    0.25
  -3 -19   1   33.46    1.30
  -3 -19   1   35.53    1.18
   3 -19  -1   34.72    1.17
   3 -19  -1   35.92    1.38
   3 -19  -1   35.39    1.17
  -3  19   1   35.81    1.37
  -3  19   1   36.22    1.27
   3  19  -1   36.01    1.44
   3  19  -1   36.19    1.13
  -2 -19   1    1.37    0.55
  -2 -19   1    1.69    0.29
  -2 -19   1    2.40    0.32
   2 -19  -1    1.72    0.30
   2 -19  -1    1.59    0.35
  -2 -19   1    1.69    0.36
  -2  19   1    2.04    0.34
  -2  19   1    1.57    0.28
   2  19  -1    1.89    0.40
  -2  19   1    2.29    0.38
   2  19  -1    1.48    0.26
  -1 -19   1   17.79    0.72
  -1 -19   1   17.36    0.90
   1 -19  -1   17.41    0.73
  -1 -19   1   16.96    0.78
   1 -19  -1   17.11    0.78
  -1 -19   1   17.55    0.75
   1  19  -1   17.55    0.82
  -1  19   1   19.18    0.75
   1  19  -1   18.74    0.88
  -1  19   1   17.48    0.81
  -1  19   1   18.35    0.68
  -1  19   1   17.85    0.81
   1  19  -1   18.78    0.75
   0 -19  -1    1.86    0.27
   0 -19   1    1.91    0.31
   0 -19   1    2.92    0.40
   0 -19  -1    2.10    0.29
   0 -19  -1    1.46    0.34
   0 -19  -1    1.90    0.33
   0 -19   1    1.39    0.30
   0 -19   1    2.15    0.38
   0  19  -1    2.12    0.30
   0  19   1    1.92    0.31
   0  19   1    1.72    0.32
   0  19   1    1.79    0.30
   0  19  -1    2.24    0.35
   0  19  -1    1.77    0.35
  -1 -19  -1    2.39    0.39
  -1 -19  -1    2.44    0.28
  -1 -19  -1    2.19    0.57
  -1 -19  -1    1.86    0.38
   1 -19   1    2.01    0.37
   1 -19   1    1.21    0.45
   1 -19   1    2.30    0.38
  -1 -19  -1    2.14    0.24
   1 -19   1    2.01    0.35
  -1  19  -1    2.46    0.37
   1  19   1    2.09    0.35
   1  19   1    1.69    0.29
  -1  19  -1    1.93    0.33
  -1  19  -1    1.93    0.33
  -1  19  -1    2.21    0.37
   1  19   1    2.34    0.38
  -2 -19  -1    1.24    0.56
  -2 -19  -1    1.58    0.25
  -2 -19  -1    1.78    0.25
   2 -19   1    2.02    0.43
   2 -19   1    1.58    0.33
   2 -19   1    1.05    0.35
  -2 -19  -1    2.19    0.44
   2  19   1    1.94    0.30
  -2  19  -1    1.65    0.33
   2  19   1    1.77    0.38
   3 -19   1   12.81    0.72
  -3 -19  -1   12.63    0.61
  -3 -19  -1   13.73    0.51
   3 -19   1   12.18    0.91
   3  19   1   12.32    0.67
   3  19   1   11.62    0.83
  -3  19  -1   11.35    0.79
  -3  19  -1   13.23    0.72
  -4 -19  -1    3.95    0.66
   4 -19   1    6.33    0.91
   4 -19   1    6.99    0.63
   4  19   1    5.25    0.40
   4  19   1    5.38    0.72
  -4  19  -1    5.27    0.64
   4  19   1    4.49    0.53
   5 -19   1   33.73    1.35
  -5 -19  -1   29.88    1.65
   5 -19   1   31.55    1.78
  -5  19  -1   31.55    1.50
   5  19   1   31.47    1.23
  -5  19  -1   33.02    1.29
   5  19   1   34.64    1.45
   5 -20  -1    0.07    0.56
  -5 -20   1    0.82    0.62
  -5  20   1   -0.31    0.39
   5  20  -1   -0.03    0.53
  -5  20   1    0.44    0.45
   5  20  -1    0.62    0.33
   4 -20  -1    7.57    0.86
  -4 -20   1    8.36    0.96
   4 -20  -1    9.36    0.60
   4  20  -1   10.17    0.92
   4  20  -1    8.09    0.52
   4  20  -1    8.68    0.57
  -4  20   1    8.27    0.76
   3 -20  -1    2.42    0.38
  -3 -20   1    1.69    0.34
   3 -20  -1    2.86    0.49
   3 -20  -1    1.80    0.35
  -3 -20   1    2.93    0.41
  -3 -20   1    1.37    0.44
   3  20  -1    2.00    0.29
  -3  20   1    2.45    0.44
   3  20  -1    2.03    0.46
  -2 -20   1   60.62    1.86
   2 -20  -1   64.88    1.89
  -2 -20   1   65.33    1.85
  -2 -20   1   65.69    2.14
  -2 -20   1   58.59    1.93
   2 -20  -1   65.45    1.98
   2  20  -1   64.63    2.08
   2  20  -1   65.75    1.84
  -2  20   1   65.45    2.02
  -2  20   1   62.93    1.94
  -2  20   1   60.66    1.84
  -2  20   1   61.15    1.82
  -1 -20   1    8.90    0.72
   1 -20  -1    8.41    0.58
  -1 -20   1    8.76    0.55
  -1 -20   1    8.66    0.51
   1 -20  -1    8.83    0.53
  -1 -20   1    8.08    0.59
  -1  20   1    9.92    0.55
   1  20  -1    8.51    0.53
  -1  20   1    8.16    0.60
   1  20  -1    8.31    0.98
  -1  20   1    8.69    0.48
   0 -20  -1   11.33    0.70
   0 -20   1   12.34    0.62
   0 -20  -1   11.73    0.51
   0 -20   1   11.38    0.64
   0 -20  -1   11.29    0.52
   0 -20   1   10.66    0.69
   0  20   1   11.48    0.64
   0  20  -1   11.61    0.63
   0  20   1   11.06    0.66
   0  20  -1   11.87    0.69
   0  20   1   11.95    0.66
   0  20  -1   11.03    0.70
  -1 -20  -1    0.79    0.21
   1 -20   1    0.88    0.31
  -1 -20  -1    0.09    0.32
  -1 -20  -1    0.43    0.15
   1 -20   1    0.31    0.30
  -1  20  -1    0.64    0.29
   1  20   1    0.58    0.26
   1  20   1    0.51    0.32
  -1  20  -1    0.75    0.28
  -1  20  -1    0.79    0.31
  -1  20  -1    0.33    0.25
   2 -20   1   88.14    2.70
   2 -20   1   94.30    2.70
  -2 -20  -1   95.43    2.42
   2 -20   1   98.64    2.86
  -2 -20  -1   95.07    2.49
  -2 -20  -1   94.03    2.87
  -2  20  -1   91.93    2.74
   2  20   1   94.85    3.12
   2  20   1   97.46    2.67
  -2  20  -1   94.40    2.77
  -3 -20  -1    0.23    0.19
   3 -20   1    0.79    0.35
  -3 -20  -1    0.06    0.45
   3 -20   1    0.62    0.42
  -3 -20  -1    0.69    0.29
   3  20   1    0.05    0.37
   3  20   1    0.12    0.25
  -3  20  -1    0.80    0.35
  -3  20  -1    0.40    0.34
  -4 -20  -1   12.15    1.06
   4 -20   1   12.65    1.11
  -4  20  -1   11.59    0.91
   4  20   1    9.94    0.80
   4  20   1   11.77    0.92
   5 -20   1    0.86    0.46
   5 -20   1    0.35    0.72
   5  20   1    0.50    0.40
   5  20   1    1.45    0.55
  -5  20  -1   -0.89    0.58
   5 -21  -1   27.90    1.56
  -5  21   1   27.16    1.20
   5  21  -1   28.33    1.10
   5  21  -1   27.02    1.51
  -5  21   1   26.77    1.40
   4 -21  -1    6.15    0.77
  -4 -21   1    4.75    0.73
   4 -21  -1    6.86    0.58
  -4  21   1    5.96    0.66
  -4  21   1    5.27    0.65
   4  21  -1    8.02    0.89
   4  21  -1    6.23    0.50
   4  21  -1    7.07    0.57
   3 -21  -1   14.41    0.78
   3 -21  -1   14.35    0.92
  -3 -21   1   16.12    0.73
   3 -21  -1   15.32    0.74
  -3 -21   1   14.42    0.78
  -3 -21   1   14.32    0.90
  -3  21   1   16.36    0.92
   3  21  -1   15.02    0.68
   3  21  -1   14.83    0.99
   2 -21  -1    6.21    0.58
  -2 -21   1    5.05    0.61
  -2 -21   1    5.67    0.49
   2 -21  -1    5.28    0.52
  -2 -21   1    5.71    0.53
   2  21  -1    6.41    0.48
  -2  21   1    5.61    0.57
   2  21  -1    5.81    0.65
  -2  21   1    5.67    0.49
  -2  21   1    5.39    0.50
  -1 -21   1    0.49    0.31
   1 -21  -1    0.45    0.28
   1 -21  -1    0.42    0.26
  -1 -21   1    0.50    0.24
  -1 -21   1   -0.14    0.25
  -1 -21   1    0.17    0.37
  -1  21   1    0.25    0.22
   1  21  -1    0.67    0.26
   0 -21   1    5.44    0.47
   0 -21   1    4.48    0.50
   0 -21  -1    4.77    0.39
   0 -21  -1    4.76    0.56
   0 -21   1    5.07    0.60
   0 -21  -1    5.56    0.40
   0  21   1    4.64    0.49
   0  21   1    4.92    0.54
   0  21  -1    4.33    0.55
   0  21  -1    5.21    0.49
  -1 -21  -1    0.02    0.17
  -1 -21  -1    0.87    0.36
   1 -21   1    0.48    0.33
  -1 -21  -1    0.21    0.20
   1 -21   1    0.59    0.31
  -1  21  -1    0.08    0.27
  -1  21  -1   -0.06    0.27
   1  21   1   -0.15    0.22
   1  21   1    0.01    0.28
   2 -21   1    0.36    0.44
  -2 -21  -1    0.02    0.15
   2 -21   1    0.26    0.33
  -2 -21  -1    0.01    0.24
   2  21   1    0.38    0.31
   2  21   1    0.30    0.26
  -2  21  -1    0.29    0.31
  -2  21  -1    0.00    0.31
  -3 -21  -1   21.03    1.25
   3 -21   1   20.02    1.09
  -3 -21  -1   20.99    0.72
   3 -21   1   21.05    1.18
   3  21   1   20.49    1.14
  -3  21  -1   19.75    1.06
   3  21   1   22.49    0.94
  -4 -21  -1    7.44    0.90
   4 -21   1    6.56    0.90
   4  21   1    5.24    0.61
  -4  21  -1    6.59    0.85
   4  21   1    4.27    0.68
   5 -22  -1    0.48    0.65
  -5 -22   1   -0.39    0.62
  -5  22   1    1.37    0.53
   5  22  -1    0.62    0.38
  -5  22   1    0.75    0.46
   5  22  -1    0.49    0.64
   4 -22  -1   12.23    0.76
  -4 -22   1   11.12    1.15
   4 -22  -1   11.61    1.03
  -4  22   1   11.91    0.83
   4  22  -1   12.09    0.65
   4  22  -1   12.08    1.04
  -4  22   1    9.64    0.87
  -3 -22   1    7.60    0.69
  -3 -22   1    8.14    0.81
  -3 -22   1    8.47    0.59
   3 -22  -1    8.71    0.64
   3 -22  -1    7.66    0.68
  -3  22   1    8.13    0.71
   3  22  -1    8.74    0.54
   3  22  -1    8.77    0.88
  -3  22   1    9.62    0.78
  -2 -22   1   40.18    1.39
   2 -22  -1   40.27    1.38
   2 -22  -1   42.41    1.47
  -2 -22   1   40.20    1.46
  -2 -22   1   40.77    1.33
   2  22  -1   44.14    1.34
  -2  22   1   38.11    1.33
  -2  22   1   41.17    1.51
   2  22  -1   41.17    1.59
   1 -22  -1    8.92    0.67
  -1 -22   1    8.76    0.74
   1 -22  -1    8.87    0.58
  -1 -22   1    8.33    0.65
  -1 -22   1    8.49    0.65
  -1 -22   1    8.46    0.53
  -1  22   1    9.16    0.52
   1  22  -1    8.83    0.58
  -1  22   1    8.87    0.66
   0 -22  -1   77.57    2.11
   0 -22  -1   79.88    2.09
   0 -22   1   75.90    2.22
   0 -22  -1   75.57    2.34
   0 -22   1   72.09    2.67
   0 -22   1   77.32    2.21
   0  22  -1   77.65    2.27
   0  22   1   73.88    2.30
  -1 -22  -1   14.70    0.91
   1 -22   1   13.00    0.94
  -1 -22  -1   15.59    0.58
   1 -22   1   15.83    0.81
  -1  22  -1   14.64    0.82
   1  22   1   15.25    0.76
   1  22   1   15.25    0.86
  -2 -22  -1    4.24    0.32
  -2 -22  -1    4.64    0.42
   2 -22   1    3.68    0.59
   2  22   1    4.17    0.55
  -2  22  -1    5.57    0.63
   2  22   1    3.93    0.50
  -3 -22  -1   14.53    1.11
   3 -22   1   15.27    1.08
   3 -22   1   16.57    1.17
   3  22   1   13.39    1.01
   3  22   1   16.11    0.81
  -3  22  -1   15.48    0.95
  -4 -22  -1    4.47    0.75
   4 -22   1    4.14    0.75
   4  22   1    3.44    0.48
  -4  22  -1    3.86    0.54
  -4  22  -1    4.63    0.68
   4  22   1    3.86    0.69
   4 -23  -1   36.19    1.67
  -4 -23   1   40.41    1.33
  -4 -23   1   37.54    1.79
   4  23  -1   36.50    1.70
  -4  23   1   37.63    1.48
  -4  23   1   36.69    1.57
   3 -23  -1   15.31    0.98
   3 -23  -1   15.00    0.78
  -3 -23   1   14.27    1.12
  -3 -23   1   13.20    0.75
   3  23  -1   15.18    1.08
  -3  23   1   12.83    0.88
   3  23  -1   14.50    0.72
  -3  23   1   15.03    0.95
   2 -23  -1   43.31    1.52
   2 -23  -1   44.35    1.47
  -2 -23   1   40.92    1.36
  -2 -23   1   41.88    1.71
  -2 -23   1   40.88    1.49
  -2 -23   1   40.85    1.52
   2  23  -1   44.31    1.42
  -2  23   1   43.08    1.54
  -2  23   1   45.79    1.60
   2  23  -1   42.99    1.67
   1 -23  -1    1.51    0.35
   1 -23  -1    1.52    0.40
  -1 -23   1    1.26    0.40
  -1 -23   1    1.70    0.32
   1  23  -1    1.51    0.33
  -1  23   1    1.80    0.40
  -1  23   1    1.50    0.29
   0 -23  -1   -0.09    0.35
   0 -23  -1    0.35    0.23
   0 -23   1    0.43    0.29
   0 -23  -1    0.43    0.25
   0 -23   1    0.35    0.35
   0  23   1    0.16    0.27
   0  23  -1    0.52    0.27
  -1 -23  -1    1.13    0.29
   1 -23   1    0.82    0.35
  -1 -23  -1    1.58    0.25
  -1 -23  -1    1.53    0.52
   1 -23   1    0.82    0.42
   1  23   1    1.39    0.37
  -1  23  -1    1.49    0.39
   1  23   1    1.77    0.36
  -2 -23  -1   12.98    0.98
  -2 -23  -1   13.10    0.51
   2 -23   1   13.29    0.91
   2 -23   1   13.33    0.85
   2  23   1   13.00    0.91
   2  23   1   14.04    0.77
  -2  23  -1   13.58    0.87
   3 -23   1   12.26    1.04
  -3 -23  -1   11.35    1.08
   3  23   1   11.64    0.99
  -3  23  -1   12.73    0.87
  -3  23  -1   12.47    0.91
   3  23   1   13.69    0.80
  -4 -23  -1   18.50    1.39
   4 -23   1   19.88    1.41
   4 -23   1   21.26    1.11
  -4  23  -1   19.38    1.08
   4  23   1   18.17    1.30
  -4  23  -1   21.42    1.26
   4  23   1   19.93    0.99
   4 -24  -1    1.32    0.59
  -4 -24   1    2.58    0.48
  -4 -24   1    1.63    0.72
  -4  24   1    1.37    0.50
  -4  24   1    1.90    0.53
   4  24  -1    1.99    0.66
  -3 -24   1   12.47    1.14
   3 -24  -1   14.16    0.82
   3 -24  -1   13.47    0.99
  -3 -24   1   13.11    0.74
  -3  24   1   14.34    0.91
  -3  24   1   13.53    0.95
   3  24  -1   12.80    1.07
   3  24  -1   13.69    0.74
  -2 -24   1   23.91    1.39
   2 -24  -1   22.52    1.05
   2 -24  -1   20.72    1.01
  -2 -24   1   20.87    1.23
  -2 -24   1   20.78    0.88
   2  24  -1   22.03    0.94
   2  24  -1   20.94    1.17
  -2  24   1   22.51    1.09
  -2  24   1   22.58    1.11
   1 -24  -1   35.99    1.28
  -1 -24   1   35.75    1.55
  -1 -24   1   36.38    1.22
   1 -24  -1   37.05    1.41
  -1  24   1   36.07    1.38
   1  24  -1   37.06    1.31
   0 -24   1   49.10    1.56
   0 -24  -1   43.19    1.75
   0 -24  -1   46.89    1.44
   0 -24  -1   48.78    1.44
   0  24   1   47.32    1.74
   0  24  -1   47.37    1.61
   0  24   1   48.19    1.64
  -1 -24  -1   46.56    1.36
   1 -24   1   44.32    2.16
   1  24   1   49.42    1.70
  -1  24  -1   50.71    1.73
  -1  24  -1   46.59    1.66
   1  24   1   45.71    1.60
   2 -24   1   44.28    1.67
  -2 -24  -1   41.90    1.74
   2  24   1   42.76    1.51
  -2  24  -1   43.46    1.58
  -2  24  -1   42.32    1.62
   2  24   1   42.37    1.66
  -3 -24  -1   19.45    1.32
   3 -24   1   21.08    1.30
   3  24   1   22.48    1.26
  -3  24  -1   22.22    1.18
  -3  24  -1   20.28    1.08
   3  24   1   22.18    1.02
   4 -24   1   13.99    1.30
   4 -24   1   13.24    1.04
  -4  24  -1   18.83    1.77
  -4  24  -1   15.66    1.00
   4  24   1   13.68    0.91
   4  24   1   12.54    1.25
   4 -25  -1    8.15    1.05
  -4 -25   1    9.52    1.25
   4  25  -1    8.57    1.14
  -4  25   1    8.57    0.86
  -4  25   1    6.50    0.76
   3 -25  -1   10.37    0.80
   3 -25  -1   11.38    0.95
  -3 -25   1   10.42    1.16
  -3 -25   1   11.81    0.74
  -3  25   1   11.74    0.94
  -3  25   1   10.79    0.88
   3  25  -1   10.28    0.68
   3  25  -1   10.65    1.05
  -2 -25   1   11.83    0.99
  -2 -25   1   11.54    0.67
   2 -25  -1   11.11    0.81
   2 -25  -1   11.50    0.81
   2  25  -1   11.22    0.72
  -2  25   1    9.73    0.86
  -2  25   1   11.33    0.86
   2  25  -1   10.66    0.95
   1 -25  -1    2.80    0.52
   1 -25  -1    2.77    0.43
  -1 -25   1    2.46    0.39
  -1 -25   1    1.47    0.56
  -1  25   1    3.38    0.50
   0 -25   1   -0.29    0.53
   0 -25   1   -0.18    0.30
   0 -25  -1    0.03    0.27
   0  25   1   -0.47    0.28
   0  25  -1    1.00    0.42
   0  25   1    0.41    0.34
   0  25  -1   -0.09    0.30
  -1 -25  -1    0.82    0.26
   1 -25   1    0.62    0.39
  -1 -25  -1    0.90    0.46
   1  25   1    0.38    0.32
   1  25   1    1.51    0.45
  -1  25  -1    0.90    0.43
  -1  25  -1    0.90    0.36
   2 -25   1    8.09    0.95
  -2 -25  -1    8.08    0.95
   2 -25   1    8.94    0.85
  -2  25  -1    7.17    0.81
   2  25   1    8.41    0.89
  -2  25  -1    7.64    0.79
   2  25   1    7.61    0.67
  -3 -25  -1    6.08    0.91
   3 -25   1    5.80    0.68
   3 -25   1    5.67    0.82
  -3  25  -1    6.46    0.79
   3  25   1    4.63    0.56
  -3  25  -1    4.22    0.64
   3  25   1    7.45    0.95
   3 -26  -1   10.54    0.95
   3 -26  -1   10.82    0.81
  -3 -26   1   10.57    1.22
  -3 -26   1    9.96    0.71
  -3  26   1    8.55    0.90
   3  26  -1    9.63    0.74
  -3  26   1   10.14    0.93
   3  26  -1   11.43    1.14
   2 -26  -1   10.68    0.81
  -2 -26   1   10.16    1.04
  -2 -26   1    9.79    0.64
   2 -26  -1   10.44    0.82
   2  26  -1    9.01    1.07
  -2  26   1    9.71    0.83
  -2  26   1   10.28    0.85
   2  26  -1    8.17    0.93
   1 -26  -1   46.24    1.68
  -1 -26   1   46.45    1.48
  -1 -26   1   46.28    1.82
   1 -26  -1   44.01    1.50
  -1  26   1   42.16    1.64
   1  26  -1   44.02    1.55
   1  26  -1   42.38    1.72
  -1  26   1   43.12    1.64
   0 -26  -1   16.17    0.75
   0 -26   1   13.93    1.04
   0  26  -1   16.28    1.05
   0  26   1   16.89    0.98
   0  26  -1   15.79    0.91
   0  26   1   17.63    0.96
   1 -26   1   52.45    1.92
   1 -26   1   55.01    1.84
  -1 -26  -1   53.10    1.98
  -1  26  -1   52.51    1.88
   1  26   1   50.58    1.89
  -1  26  -1   53.77    1.85
   1  26   1   53.44    1.81
   2 -26   1   10.51    0.93
  -2 -26  -1   10.23    1.07
   2 -26   1   12.53    0.99
   2  26   1   10.97    0.99
   2  26   1   11.68    0.82
  -2  26  -1   10.18    0.92
  -2  26  -1   11.13    0.91
  -3 -26  -1   10.65    1.32
   3 -26   1   11.43    1.15
   3 -26   1   12.08    1.03
  -3  26  -1   11.91    1.01
   3  26   1   12.89    0.90
  -3  26  -1   12.95    1.02
   3  26   1   14.69    1.12
  -3 -27   1    5.51    0.89
   3 -27  -1    5.65    0.77
  -3  27   1    6.46    0.87
   3  27  -1    6.87    0.88
  -3  27   1    6.80    0.89
  -2 -27   1   12.58    0.74
   2 -27  -1   13.42    0.94
  -2 -27   1   13.34    1.16
   2  27  -1   13.15    0.83
   2  27  -1   10.71    1.07
  -2  27   1   12.75    0.95
  -2  27   1   14.37    0.98
  -1 -27   1    3.26    0.60
   1 -27  -1    2.46    0.47
  -1 -27   1    3.18    0.43
  -1  27   1    2.33    0.54
   1  27  -1    2.19    0.43
  -1  27   1    2.14    0.48
   1  27  -1    3.12    0.55
   0 -27   1    0.33    0.48
   0 -27  -1   -0.62    0.47
   0 -27  -1   -0.56    0.54
   0 -27   1    0.77    0.40
   0  27  -1    0.03    0.46
   0  27   1    0.17    0.41
   0  27   1    0.20    0.39
   0  27  -1   -0.18    0.36
   1 -27   1    1.36    0.44
  -1 -27  -1    1.44    0.59
   1 -27   1    1.37    0.54
  -1  27  -1    2.99    0.53
   1  27   1    2.29    0.44
   1  27   1    2.17    0.55
  -1  27  -1    1.46    0.44
   2 -27   1   11.20    1.01
  -2 -27  -1    8.51    1.12
   2 -27   1    8.55    0.98
  -2  27  -1    8.52    0.95
  -2  27  -1   10.66    0.91
   2  27   1    8.96    0.80
   2  27   1    7.57    0.83
   3 -27   1    2.72    0.66
   3 -27   1    2.98    0.72
  -3 -27  -1    0.13    0.84
  -3  27  -1    3.17    0.64
   3  27   1    3.30    0.67
   3  27   1    1.44    0.47
   3 -28  -1    6.63    0.82
   3  28  -1    4.27    0.96
  -3  28   1    5.76    0.74
  -2 -28   1    3.07    0.74
   2 -28  -1    5.12    0.70
  -2 -28   1    4.14    0.64
   2  28  -1    4.10    0.71
  -2  28   1    3.99    0.63
  -2  28   1    4.28    0.59
   2  28  -1    5.61    0.72
  -1 -28   1   33.40    1.40
  -1 -28   1   35.13    1.68
   1 -28  -1   37.34    1.49
   1 -28  -1   34.71    1.73
   1  28  -1   35.05    1.59
   1  28  -1   38.21    1.41
  -1  28   1   34.69    1.49
  -1  28   1   36.87    1.52
   0 -28  -1   -1.17    0.50
   0 -28   1    0.18    0.41
   0 -28   1    0.82    0.51
   0  28  -1    0.22    0.37
   0  28  -1    0.10    0.46
   0  28   1    0.01    0.44
   0  28   1    0.40    0.40
  -1 -28  -1   35.52    1.71
   1 -28   1   40.45    1.55
   1 -28   1   39.02    1.61
   1  28   1   35.12    1.60
  -1  28  -1   37.54    1.60
  -1  28  -1   39.46    1.56
   1  28   1   38.00    1.49
   2 -28   1    3.19    0.67
  -2 -28  -1    3.24    0.76
   2 -28   1    3.63    0.66
   2  28   1    2.12    0.49
   2  28   1    2.76    0.63
  -2  28  -1    3.39    0.63
  -2  28  -1    3.15    0.62
  -2 -29   1   16.87    1.42
   2 -29  -1   18.51    1.37
   2  29  -1   23.35    2.02
  -2  29   1   17.27    1.16
  -2  29   1   19.69    1.49
   2  29  -1   17.82    1.04
   1 -29  -1    1.78    0.62
  -1 -29   1    1.21    0.43
  -1 -29   1    1.82    0.72
  -1  29   1    1.37    0.58
  -1  29   1    1.03    0.48
   1  29  -1    0.80    0.53
   1  29  -1    2.37    0.50
   0 -29   1    5.92    0.83
   0 -29   1    5.56    0.73
   0 -29  -1    6.78    0.85
   0  29  -1    5.41    0.72
   0  29  -1    6.74    0.77
   0  29   1    7.74    0.90
   0  29   1    5.34    0.74
   1 -29   1    1.88    0.59
  -1 -29  -1    0.87    0.65
   1 -29   1    1.66    0.64
  -1  29  -1    0.52    0.44
   1  29   1    1.31    0.53
   1  29   1    1.58    0.47
  -1  29  -1    0.10    0.54
  -1 -30   1   33.20    1.78
   1 -30  -1   36.03    1.62
   1  30  -1   35.98    1.47
  -1  30   1   34.22    1.57
   0 -30   1   18.07    1.06
   0 -30  -1   16.20    1.31
   0 -30   1   15.36    1.29
   0  30   1   18.59    1.14
   7   0  -2    0.42    0.49
  -7   0   2   -0.01    0.30
   6   0  -2   10.76    0.70
   6   0  -2   10.47    0.61
   6   0  -2   10.50    0.81
  -6   0   2   10.22    0.63
  -6   0   2   11.51    0.65
  -6   0   2   10.19    0.55
   5   0  -2    0.15    0.21
   5   0  -2    0.45    0.19
  -5   0   2    0.34    0.22
   5   0  -2    0.31    0.28
  -5   0   2    0.21    0.16
  -5   0   2    0.31    0.20
  -5   0   2   -0.08    0.23
  -4   0   2    1.04    0.20
   4   0  -2    0.73    0.25
  -4   0   2    0.58    0.27
   4   0  -2    0.74    0.24
  -4   0   2    0.80    0.22
  -4   0   2    0.69    0.14
  -4   0   2    0.66    0.23
   4   0  -2    0.99    0.16
   3   0  -2    0.39    0.16
  -3   0   2    0.40    0.16
  -3   0   2    0.26    0.17
  -3   0   2    0.11    0.10
   3   0  -2    0.55    0.12
  -3   0   2    0.18    0.10
  -3   0   2    0.40    0.15
  -2   0   2  189.17    4.71
   2   0  -2  187.58    4.56
  -2   0   2  184.60    4.57
   2   0  -2  184.99    4.58
   2   0  -2  182.59    4.69
  -2   0   2  185.84    4.59
   0   0   2 1000.00   23.59
   0   0   2  939.72   23.55
  -1   0  -2    0.44    0.13
   1   0   2    0.32    0.11
   2   0   2  125.14    3.18
   2   0   2  122.05    3.23
  -2   0  -2  124.91    3.14
   2   0   2  118.69    3.16
  -2   0  -2  119.94    3.18
  -2   0  -2  119.90    3.21
  -3   0  -2   -0.26    0.15
   3   0   2   -0.11    0.16
   3   0   2   -0.29    0.20
   3   0   2   -0.27    0.18
  -3   0  -2    0.14    0.18
  -3   0  -2   -0.29    0.19
  -4   0  -2   52.96    1.61
   4   0   2   51.66    1.67
  -4   0  -2   50.08    1.66
  -4   0  -2   49.44    1.57
  -5   0  -2   -0.51    0.33
   5   0   2   -0.29    0.30
  -5   0  -2   -0.06    0.26
  -6   0  -2    1.43    0.43
  -6   0  -2    1.82    0.51
   6   0   2    1.33    0.54
  -7  -1   2   35.26    1.38
  -7  -1   2   36.97    1.29
   7  -1  -2   36.75    1.64
   7   1  -2   36.12    1.63
  -7   1   2   36.70    1.26
  -7   1   2   36.37    1.34
  -6  -1   2    7.98    0.63
  -6  -1   2    8.98    0.59
  -6  -1   2    8.45    0.49
   6  -1  -2    9.18    0.80
   6  -1  -2    8.43    0.60
   6   1  -2    9.67    0.79
   6   1  -2    9.34    0.70
  -6   1   2    9.60    0.61
   6   1  -2    8.55    0.56
  -6   1   2    9.66    0.56
  -6   1   2    8.95    0.59
   5  -1  -2   57.55    1.65
  -5  -1   2   58.70    1.60
   5  -1  -2   56.08    1.89
  -5  -1   2   56.47    1.71
  -5  -1   2   56.77    1.71
   5  -1  -2   59.23    1.70
  -5  -1   2   59.20    1.76
   5   1  -2   59.35    1.90
  -5   1   2   56.21    1.70
   5   1  -2   56.48    1.61
   5   1  -2   57.59    1.72
  -5   1   2   57.75    1.67
  -5   1   2   57.72    1.76
  -5   1   2   60.26    1.64
   4  -1  -2    1.98    0.26
  -4  -1   2    2.06    0.25
  -4  -1   2    2.39    0.21
  -4  -1   2    2.75    0.38
  -4  -1   2    2.76    0.34
   4  -1  -2    2.25    0.33
   4  -1  -2    2.48    0.29
  -4  -1   2    2.06    0.27
  -4   1   2    1.98    0.23
   4   1  -2    2.09    0.28
   4   1  -2    2.87    0.38
  -4   1   2    2.22    0.27
   4   1  -2    2.67    0.22
  -4   1   2    2.58    0.31
  -4   1   2    2.21    0.26
  -4   1   2    2.84    0.39
   3  -1  -2  107.70    3.00
  -3  -1   2  114.22    3.03
   3  -1  -2  112.55    2.85
  -3  -1   2  115.57    2.98
  -3  -1   2  109.45    2.80
   3  -1  -2  107.70    2.84
  -3  -1   2  111.45    2.89
  -3   1   2  114.12    2.85
  -3   1   2  112.89    2.84
   3   1  -2  115.82    2.89
  -3   1   2  109.43    2.93
  -3   1   2  115.73    3.03
   3   1  -2  112.66    3.01
  -3   1   2  117.66    2.99
   3   1  -2  107.87    2.80
   2  -1  -2    2.35    0.23
  -2  -1   2    2.02    0.22
   2  -1  -2    2.40    0.15
  -2  -1   2    2.07    0.23
  -2  -1   2    2.38    0.13
   2  -1  -2    2.25    0.14
  -2   1   2    2.32    0.14
   2   1  -2    1.94    0.22
   2   1  -2    2.44    0.18
   2   1  -2    2.21    0.23
  -2   1   2    2.10    0.20
   2   1  -2    2.20    0.12
  -2   1   2    2.79    0.17
  -2   1   2    2.12    0.23
   1  -1  -2  130.45    3.28
  -1  -1   2  133.43    3.22
  -1  -1   2  131.29    3.31
  -1  -1   2  134.06    3.29
   1  -1  -2  129.22    3.24
  -1  -1   2  128.34    3.22
  -1  -1   2  129.20    3.25
  -1   1   2  130.04    3.21
  -1   1   2  126.01    3.24
  -1   1   2  129.31    3.22
   1   1  -2  129.75    3.23
  -1   1   2  129.77    3.31
  -1   1   2  128.20    3.28
   1   1  -2  130.23    3.31
  -1   1   2  130.94    3.29
   1   1  -2  133.58    3.28
   0  -1   2  525.90   12.93
   0   1   2  535.60   12.94
   1  -1   2   -0.10    0.10
  -1  -1  -2    0.01    0.10
  -1  -1  -2   -0.21    0.08
   1  -1   2   -0.14    0.05
  -1  -1  -2   -0.12    0.12
   1  -1   2    0.00    0.09
   1   1   2   -0.05    0.06
   1   1   2   -0.07    0.09
  -1   1  -2   -0.01    0.09
   1   1   2   -0.05    0.08
  -1   1  -2   -0.02    0.10
  -1   1  -2    0.12    0.12
   1   1   2   -0.08    0.05
   2  -1   2    2.50    0.27
   2  -1   2    2.19    0.29
   2  -1   2    2.02    0.25
  -2  -1  -2    2.06    0.25
  -2  -1  -2    1.96    0.26
   2   1   2    1.91    0.23
  -2   1  -2    2.17    0.25
  -2   1  -2    2.03    0.28
   2   1   2    2.25    0.27
   2   1   2    1.61    0.23
  -3  -1  -2   52.03    1.56
   3  -1   2   51.56    1.57
  -3  -1  -2   52.56    1.52
   3  -1   2   54.41    1.64
   3  -1   2   52.22    1.60
  -3  -1  -2   53.03    1.61
   3   1   2   52.81    1.57
  -3   1  -2   51.13    1.59
  -3   1  -2   51.38    1.53
   3   1   2   52.13    1.58
  -3   1  -2   52.37    1.57
   3   1   2   53.98    1.65
  -4  -1  -2    0.40    0.21
  -4  -1  -2    1.30    0.27
   4  -1   2    0.70    0.29
  -4  -1  -2    0.57    0.29
   4   1   2    0.54    0.27
  -4   1  -2    0.73    0.24
  -4   1  -2    0.79    0.28
  -4   1  -2    0.84    0.30
   5  -1   2   35.26    1.42
  -5  -1  -2   34.60    1.39
  -5  -1  -2   36.21    1.31
   5   1   2   35.94    1.40
  -5   1  -2   36.90    1.33
  -5   1  -2   34.65    1.36
  -6  -1  -2    1.43    0.53
   6  -1   2    2.50    0.56
  -6  -1  -2    1.04    0.43
  -6   1  -2    1.31    0.39
  -6   1  -2    1.22    0.47
   6   1   2    1.90    0.54
   7  -2  -2    0.45    0.50
  -7  -2   2    0.34    0.43
  -7   2   2    0.07    0.37
  -7   2   2    0.54    0.34
   7   2  -2   -0.33    0.44
  -6  -2   2    2.72    0.34
  -6  -2   2    2.37    0.38
   6  -2  -2    2.79    0.36
  -6  -2   2    2.28    0.37
   6  -2  -2    3.54    0.59
   6  -2  -2    2.72    0.42
   6   2  -2    3.15    0.52
   6   2  -2    3.17    0.43
  -6   2   2    2.58    0.37
  -6   2   2    2.49    0.35
   6   2  -2    2.59    0.46
  -6   2   2    3.00    0.35
   5  -2  -2    0.50    0.30
   5  -2  -2    0.80    0.22
  -5  -2   2    0.94    0.18
   5  -2  -2    1.21    0.26
  -5  -2   2    0.19    0.23
  -5  -2   2    0.53    0.23
  -5  -2   2    0.67    0.23
  -5   2   2    0.76    0.22
   5   2  -2    0.92    0.27
  -5   2   2    0.73    0.27
  -5   2   2    0.71    0.19
   5   2  -2    0.37    0.27
   5   2  -2    0.87    0.19
  -5   2   2    0.72    0.23
  -4  -2   2   37.64    1.17
  -4  -2   2   37.84    1.31
  -4  -2   2   38.95    1.04
   4  -2  -2   38.35    1.10
   4  -2  -2   37.57    1.11
  -4  -2   2   37.63    1.21
   4  -2  -2   37.23    1.30
   4   2  -2   38.31    1.17
  -4   2   2   37.70    1.10
   4   2  -2   36.41    1.04
  -4   2   2   38.24    1.09
   4   2  -2   36.20    1.27
  -4   2   2   38.48    1.23
  -4   2   2   36.78    1.17
   3  -2  -2    4.51    0.23
  -3  -2   2    3.94    0.29
  -3  -2   2    4.62    0.34
   3  -2  -2    4.25    0.35
   3  -2  -2    4.96    0.27
  -3  -2   2    4.26    0.19
  -3  -2   2    3.97    0.36
   3   2  -2    4.71    0.30
   3   2  -2    4.31    0.19
  -3   2   2    4.58    0.25
  -3   2   2    4.28    0.22
  -3   2   2    4.38    0.31
  -3   2   2    4.33    0.36
   3   2  -2    4.02    0.34
   3   2  -2    4.98    0.36
  -3   2   2    4.65    0.35
  -2  -2   2  185.65    4.43
  -2  -2   2  180.37    4.54
   2  -2  -2  183.64    4.50
   2  -2  -2  185.50    4.43
  -2  -2   2  185.43    4.62
   2  -2  -2  179.68    4.59
  -2   2   2  184.67    4.44
   2   2  -2  181.72    4.42
  -2   2   2  165.64    4.69
  -2   2   2  178.24    4.56
   2   2  -2  182.74    4.61
   2   2  -2  189.68    4.53
   2   2  -2  178.40    4.59
  -1  -2   2   20.61    0.57
   1  -2  -2   20.51    0.61
  -1  -2   2   21.29    0.62
  -1  -2   2   19.93    0.66
  -1  -2   2   23.10    0.67
  -1  -2   2   19.66    0.57
   1   2  -2   21.72    0.61
   1   2  -2   19.22    0.66
  -1   2   2   20.15    0.63
  -1   2   2   20.82    0.57
  -1   2   2   20.08    0.64
  -1   2   2   20.86    0.56
   0  -2   2  187.12    4.83
   0  -2   2  193.43    4.80
   0  -2   2  196.15    4.79
   0  -2  -2  196.52    4.79
   0  -2   2  202.71    4.79
   0  -2   2  187.94    4.81
   0  -2  -2  194.77    4.77
   0   2   2  199.82    4.80
   0   2   2  190.02    4.80
   0   2   2  194.80    4.80
   0   2  -2  193.50    4.79
   0   2   2  178.79    4.76
   0   2   2  195.38    4.75
  -1  -2  -2   54.20    1.49
   1  -2   2   54.23    1.38
   1  -2   2   54.07    1.49
  -1  -2  -2   53.58    1.38
   1  -2   2   54.49    1.55
   1  -2   2   54.76    1.50
  -1  -2  -2   54.49    1.44
  -1  -2  -2   54.04    1.51
  -1   2  -2   53.25    1.39
   1   2   2   52.82    1.49
   1   2   2   52.74    1.37
  -1   2  -2   57.35    1.50
  -1   2  -2   54.18    1.50
  -1   2  -2   55.10    1.49
   2  -2   2  133.71    3.40
  -2  -2  -2  128.13    3.42
   2  -2   2  132.06    3.43
   2  -2   2  128.41    3.41
  -2  -2  -2  130.78    3.38
   2   2   2  128.62    3.38
  -2   2  -2  127.89    3.40
   2   2   2  126.72    3.35
   2   2   2  133.73    3.44
  -2   2  -2  133.00    3.37
   3  -2   2    3.37    0.37
   3  -2   2    3.33    0.37
   3  -2   2    3.73    0.40
  -3  -2  -2    3.93    0.32
  -3  -2  -2    3.62    0.35
  -3  -2  -2    3.61    0.40
  -3   2  -2    4.00    0.37
  -3   2  -2    3.76    0.38
  -3   2  -2    3.74    0.34
   3   2   2    3.13    0.36
   3   2   2    3.32    0.34
   3   2   2    3.46    0.41
  -4  -2  -2    4.56    0.46
   4  -2   2    3.96    0.50
  -4  -2  -2    4.23    0.49
  -4  -2  -2    4.33    0.44
  -4   2  -2    4.68    0.45
  -4   2  -2    3.94    0.58
   4   2   2    4.39    0.48
  -4   2  -2    4.30    0.47
   5  -2   2    1.11    0.42
  -5  -2  -2    0.05    0.29
  -5  -2  -2    0.67    0.39
   5   2   2    0.61    0.56
  -5   2  -2    0.78    0.34
  -5   2  -2    0.52    0.27
  -6  -2  -2    0.42    0.39
   6  -2   2   -0.33    0.46
  -6  -2  -2    0.40    0.46
  -6   2  -2   -0.15    0.35
   6   2   2   -0.62    0.41
  -6   2  -2   -0.54    0.41
  -7  -3   2   16.93    0.89
   7  -3  -2   17.51    1.20
  -7  -3   2   18.36    1.00
  -7   3   2   14.97    0.94
  -7   3   2   16.93    0.87
   7   3  -2   16.67    1.13
  -7   3   2   15.81    0.85
  -6  -3   2    7.73    0.57
   6  -3  -2    6.22    0.72
   6  -3  -2    7.01    0.62
  -6  -3   2    6.34    0.58
  -6  -3   2    7.12    0.42
  -6   3   2    7.16    0.53
  -6   3   2    7.20    0.54
  -6   3   2    7.41    0.51
   6   3  -2    8.00    0.50
   6   3  -2    5.86    0.68
   6   3  -2    6.51    0.69
   5  -3  -2   60.84    1.69
   5  -3  -2   59.71    1.71
  -5  -3   2   59.95    1.78
  -5  -3   2   59.51    1.59
  -5  -3   2   56.56    1.75
   5  -3  -2   58.82    1.94
  -5  -3   2   59.21    1.78
  -5   3   2   58.15    1.66
  -5   3   2   61.25    1.82
   5   3  -2   59.14    1.77
  -5   3   2   57.16    1.68
   5   3  -2   58.82    1.90
  -5   3   2   55.93    1.72
  -4  -3   2    6.91    0.53
   4  -3  -2    7.33    0.52
   4  -3  -2    7.22    0.39
   4  -3  -2    7.13    0.36
  -4  -3   2    7.18    0.46
  -4  -3   2    7.22    0.43
   4   3  -2    6.72    0.30
  -4   3   2    6.51    0.41
  -4   3   2    7.46    0.47
   4   3  -2    6.54    0.49
   4   3  -2    7.47    0.45
   4   3  -2    7.23    0.49
  -4   3   2    6.40    0.53
  -4   3   2    7.11    0.38
  -4   3   2    7.48    0.34
  -3  -3   2   77.38    2.16
   3  -3  -2   76.00    2.02
  -3  -3   2   78.08    2.07
   3  -3  -2   73.82    2.15
   3  -3  -2   77.49    1.94
  -3  -3   2   76.93    1.90
  -3  -3   2   78.03    2.11
  -3   3   2   79.37    2.13
   3   3  -2   75.81    1.90
  -3   3   2   75.86    2.15
  -3   3   2   76.68    1.94
  -3   3   2   76.11    2.02
  -3   3   2   73.58    2.06
   3   3  -2   76.18    2.06
   3   3  -2   76.24    2.12
   3   3  -2   75.58    2.13
   2  -3  -2    0.40    0.10
  -2  -3   2    0.43    0.04
   2  -3  -2    0.34    0.13
  -2  -3   2    0.21    0.11
   2  -3  -2    0.28    0.12
   2  -3  -2    0.48    0.05
  -2  -3   2    0.44    0.16
  -2  -3   2    0.36    0.11
  -2  -3   2    0.31    0.04
   2   3  -2    0.18    0.12
  -2   3   2    0.73    0.12
  -2   3   2    0.39    0.16
   2   3  -2    0.20    0.10
  -2   3   2    0.36    0.12
  -2   3   2    0.31    0.05
   2   3  -2    0.36    0.12
   1  -3  -2   27.00    0.77
   1  -3  -2   26.36    0.70
  -1  -3   2   27.08    0.79
   1  -3  -2   26.60    0.77
  -1  -3   2   27.07    0.81
  -1  -3   2   26.34    0.71
  -1  -3   2   27.39    0.81
   1  -3  -2   26.75    0.79
  -1   3   2   26.48    0.79
   1   3  -2   25.95    0.78
   1   3  -2   26.89    0.77
   1   3  -2   26.63    0.82
  -1   3   2   26.39    0.77
   1   3  -2   26.21    0.71
  -1   3   2   26.28    0.77
  -1   3   2   27.66    0.71
   0  -3   2    0.24    0.10
   0  -3   2    0.15    0.10
   0  -3  -2    0.09    0.09
   0  -3   2    0.12    0.08
   0  -3   2    0.17    0.08
   0  -3  -2    0.20    0.08
   0   3   2    0.11    0.08
   0   3   2   -0.04    0.07
   0   3  -2    0.07    0.08
   0   3  -2    0.11    0.09
   0   3   2    0.26    0.10
   0   3   2    0.09    0.08
   0   3   2    0.33    0.08
   0   3   2    0.15    0.06
   1  -3   2   29.90    0.79
   1  -3   2   29.05    0.90
  -1  -3  -2   28.53    0.91
   1  -3   2   28.23    0.90
   1  -3   2   29.20    0.88
  -1  -3  -2   29.44    0.79
  -1  -3  -2   27.56    0.81
  -1  -3  -2   28.52    0.88
  -1   3  -2   29.61    0.80
   1   3   2   29.04    0.78
   1   3   2   28.98    0.81
   1   3   2   29.10    0.88
  -1   3  -2   29.98    0.89
  -1   3  -2   28.96    0.89
  -2  -3  -2   20.79    0.66
   2  -3   2   20.67    0.53
  -2  -3  -2   19.43    0.72
  -2  -3  -2   20.56    0.54
   2  -3   2   20.51    0.73
   2  -3   2   19.09    0.74
  -2  -3  -2   19.36    0.75
   2  -3   2   20.39    0.76
  -2   3  -2   20.75    0.71
   2   3   2   21.09    0.78
   2   3   2   19.72    0.71
  -2   3  -2   19.96    0.53
  -2   3  -2   19.28    0.72
  -2   3  -2   20.09    0.73
   2   3   2   21.18    0.54
   2   3   2   20.32    0.68
  -3  -3  -2   56.86    1.62
   3  -3   2   57.37    1.75
  -3  -3  -2   55.61    1.74
   3  -3   2   56.95    1.70
  -3  -3  -2   56.37    1.67
   3  -3   2   56.20    1.74
   3   3   2   54.92    1.67
   3   3   2   57.35    1.68
  -3   3  -2   57.88    1.70
  -3   3  -2   56.99    1.71
  -3   3  -2   58.53    1.68
   3   3   2   61.72    1.79
  -4  -3  -2   11.63    0.62
  -4  -3  -2   10.75    0.61
   4  -3   2   11.48    0.72
  -4  -3  -2   11.62    0.72
   4   3   2   11.67    0.64
  -4   3  -2   12.14    0.65
  -4   3  -2   11.18    0.66
  -5  -3  -2   32.95    1.22
  -5  -3  -2   33.94    1.33
   5  -3   2   32.68    1.37
  -5   3  -2   31.10    1.26
   5   3   2   32.02    1.45
  -5   3  -2   31.90    1.25
   6  -3   2   11.60    1.04
  -6  -3  -2   10.05    0.81
  -6  -3  -2    8.90    0.94
  -6   3  -2    9.38    0.82
   6   3   2   11.54    0.92
  -6   3  -2   10.01    0.83
  -7  -4   2    1.77    0.40
   7  -4  -2    1.56    0.58
  -7  -4   2    0.27    0.46
  -7   4   2    1.61    0.42
  -7   4   2    1.71    0.39
  -7   4   2    1.41    0.44
   7   4  -2    1.36    0.53
  -6  -4   2    1.36    0.34
   6  -4  -2    2.04    0.37
  -6  -4   2    1.28    0.22
   6  -4  -2    1.84    0.51
  -6  -4   2    2.01    0.39
   6  -4  -2    1.16    0.61
  -6   4   2    1.90    0.32
   6   4  -2    1.60    0.46
  -6   4   2    1.32    0.31
   6   4  -2    2.40    0.31
  -6   4   2    1.72    0.31
   5  -4  -2    2.29    0.45
  -5  -4   2    1.88    0.33
   5  -4  -2    1.59    0.28
   5  -4  -2    1.84    0.27
  -5  -4   2    1.77    0.23
  -5  -4   2    2.46    0.34
  -5   4   2    1.76    0.30
  -5   4   2    1.85    0.34
   5   4  -2    1.69    0.38
  -5   4   2    2.08    0.26
   5   4  -2    2.35    0.35
  -5   4   2    2.37    0.30
   5   4  -2    1.98    0.27
   4  -4  -2   13.09    0.55
   4  -4  -2   12.60    0.47
  -4  -4   2   12.40    0.60
  -4  -4   2   12.97    0.61
   4  -4  -2   12.47    0.68
  -4  -4   2   12.30    0.68
  -4  -4   2   13.47    0.41
  -4   4   2   13.07    0.69
  -4   4   2   12.92    0.46
   4   4  -2   11.90    0.64
  -4   4   2   12.67    0.53
   4   4  -2   12.76    0.62
  -4   4   2   13.76    0.64
  -4   4   2   13.10    0.57
   4   4  -2   13.52    0.60
   4   4  -2   12.69    0.42
   3  -4  -2    2.56    0.31
  -3  -4   2    1.63    0.25
   3  -4  -2    2.47    0.24
  -3  -4   2    1.98    0.26
   3  -4  -2    2.35    0.16
  -3  -4   2    2.17    0.27
  -3   4   2    2.60    0.24
  -3   4   2    1.96    0.29
  -3   4   2    2.36    0.14
   3   4  -2    2.82    0.12
  -3   4   2    2.27    0.26
   3   4  -2    2.16    0.30
   3   4  -2    2.41    0.27
   3   4  -2    2.54    0.29
  -2  -4   2   15.22    0.57
  -2  -4   2   15.27    0.59
   2  -4  -2   15.69    0.52
  -2  -4   2   16.16    0.58
   2  -4  -2   15.39    0.58
   2  -4  -2   15.17    0.56
  -2   4   2   16.74    0.54
  -2   4   2   13.66    0.62
   2   4  -2   15.70    0.57
   2   4  -2   15.22    0.54
   2   4  -2   15.71    0.60
  -2   4   2   15.37    0.55
   1  -4  -2   17.73    0.57
  -1  -4   2   16.69    0.57
  -1  -4   2   16.72    0.48
   1  -4  -2   16.77    0.47
  -1  -4   2   17.02    0.58
   1  -4  -2   16.76    0.53
   1  -4  -2   17.13    0.55
  -1  -4   2   18.29    0.59
   1   4  -2   16.21    0.59
  -1   4   2   17.45    0.55
  -1   4   2   17.01    0.48
  -1   4   2   17.08    0.56
   1   4  -2   16.66    0.48
   1   4  -2   17.12    0.55
  -1   4   2   17.09    0.54
   1   4  -2   17.32    0.56
   0  -4   2   60.17    1.55
   0  -4   2   57.73    1.62
   0  -4  -2   60.49    1.55
   0  -4  -2   58.89    1.58
   0  -4   2   59.15    1.57
   0  -4   2   59.81    1.58
   0  -4   2   59.62    1.56
   0  -4  -2   59.83    1.57
   0   4  -2   58.58    1.57
   0   4  -2   60.42    1.56
   0   4   2   60.99    1.57
   0   4   2   57.94    1.57
   0   4   2   59.49    1.54
   0   4   2   52.92    1.49
   0   4   2   58.13    1.48
  -1  -4  -2   31.55    0.84
   1  -4   2   30.33    0.84
   1  -4   2   30.42    0.94
   1  -4   2   29.72    0.96
  -1  -4  -2   29.38    0.84
   1  -4   2   31.00    0.93
  -1  -4  -2   30.43    0.96
  -1   4  -2   29.68    0.93
   1   4   2   31.18    0.96
   1   4   2   30.92    0.94
  -1   4  -2   30.66    0.95
   1   4   2   30.93    0.84
  -1   4  -2   31.11    0.85
   1   4   2   30.81    0.83
  -1   4  -2   31.18    0.93
   1   4   2   30.97    0.93
   2  -4   2  109.90    2.64
  -2  -4  -2  106.16    2.73
  -2  -4  -2  109.39    2.64
   2  -4   2  108.60    2.83
  -2  -4  -2  102.58    2.87
  -2  -4  -2  101.76    2.80
   2  -4   2  109.95    2.86
   2  -4   2  105.78    2.87
   2   4   2  105.31    2.65
  -2   4  -2  105.67    2.80
   2   4   2  105.84    2.76
  -2   4  -2  107.24    2.65
  -2   4  -2  103.60    2.83
  -2   4  -2  106.11    2.83
   2   4   2  108.06    2.82
   2   4   2  111.61    2.90
   3  -4   2   25.02    0.96
   3  -4   2   24.97    0.91
  -3  -4  -2   25.16    0.84
   3  -4   2   24.81    0.94
  -3  -4  -2   24.09    0.95
  -3  -4  -2   23.72    0.87
  -3   4  -2   24.42    0.89
  -3   4  -2   23.55    0.90
   3   4   2   23.44    0.88
   3   4   2   24.96    0.99
  -3   4  -2   23.94    0.88
   3   4   2   24.44    0.88
  -4  -4  -2   19.62    0.80
  -4  -4  -2   18.88    0.82
  -4  -4  -2   17.61    0.95
   4  -4   2   19.75    0.95
   4   4   2   20.04    0.86
  -4   4  -2   19.60    0.84
  -4   4  -2   19.41    0.85
  -5  -4  -2    2.83    0.40
   5  -4   2    2.59    0.52
  -5  -4  -2    2.90    0.51
   5   4   2    3.02    0.48
  -5   4  -2    2.72    0.44
  -5   4  -2    2.05    0.39
  -6  -4  -2    9.42    0.76
  -6  -4  -2    9.97    0.94
   6  -4   2    8.90    0.97
  -6   4  -2   10.60    0.83
  -6   4  -2    8.12    0.83
   6   4   2    9.33    0.87
  -7  -5   2   13.48    0.85
  -7  -5   2   17.12    1.01
   7  -5  -2   15.62    1.16
  -7   5   2   15.80    0.87
  -7   5   2   15.69    0.83
   7   5  -2   13.94    1.04
   6  -5  -2    1.52    0.47
  -6  -5   2    1.94    0.36
   6  -5  -2    2.57    0.36
  -6  -5   2    2.22    0.25
  -6  -5   2    3.16    0.48
  -6   5   2    1.69    0.34
  -6   5   2    1.76    0.33
  -6   5   2    2.17    0.30
   6   5  -2    2.25    0.47
   6   5  -2    2.01    0.46
   5  -5  -2   46.16    1.36
   5  -5  -2   43.13    1.39
  -5  -5   2   44.81    1.43
  -5  -5   2   46.01    1.22
  -5  -5   2   45.43    1.49
   5  -5  -2   45.29    1.70
  -5   5   2   44.87    1.49
   5   5  -2   44.71    1.49
   5   5  -2   45.19    1.55
   5   5  -2   43.71    1.24
  -5   5   2   45.23    1.29
  -5   5   2   44.01    1.38
   5   5  -2   44.48    1.48
  -5   5   2   44.92    1.39
   4  -5  -2   78.06    2.02
  -4  -5   2   77.81    2.30
   4  -5  -2   75.41    2.29
  -4  -5   2   81.96    2.20
   4  -5  -2   77.97    2.13
  -4  -5   2   76.61    2.20
  -4   5   2   74.80    2.13
  -4   5   2   79.98    2.22
  -4   5   2   77.09    2.12
  -4   5   2   76.53    2.27
   4   5  -2   77.69    2.22
  -4   5   2   78.62    2.00
   4   5  -2   76.63    1.96
   4   5  -2   75.88    2.24
   4   5  -2   78.61    2.18
   3  -5  -2   76.21    1.91
  -3  -5   2   76.64    2.11
   3  -5  -2   75.70    2.17
  -3  -5   2   75.65    2.11
  -3  -5   2   76.23    2.18
   3  -5  -2   76.59    2.06
   3  -5  -2   78.65    2.10
   3   5  -2   77.94    2.10
  -3   5   2   78.38    1.90
  -3   5   2   77.29    2.16
  -3   5   2   77.72    2.07
  -3   5   2   74.15    2.07
   3   5  -2   76.73    2.14
   3   5  -2   75.26    2.14
   2  -5  -2   28.65    0.91
   2  -5  -2   29.48    0.90
   2  -5  -2   29.23    0.86
  -2  -5   2   29.70    0.93
  -2  -5   2   28.59    0.92
  -2  -5   2   29.61    0.91
   2   5  -2   28.47    0.90
  -2   5   2   27.06    0.87
  -2   5   2   28.57    0.88
   2   5  -2   29.02    0.93
   2   5  -2   28.18    0.88
   1  -5  -2    5.71    0.28
  -1  -5   2    5.87    0.22
   1  -5  -2    6.14    0.21
  -1  -5   2    5.65    0.31
   1  -5  -2    5.56    0.29
  -1  -5   2    6.00    0.31
  -1  -5   2    5.34    0.35
   1  -5  -2    5.76    0.26
   1   5  -2    6.19    0.29
  -1   5   2    6.01    0.29
  -1   5   2    6.08    0.29
  -1   5   2    6.07    0.22
   1   5  -2    6.07    0.22
   1   5  -2    5.87    0.32
  -1   5   2    5.78    0.26
   0  -5  -2    7.72    0.33
   0  -5   2    7.68    0.31
   0  -5   2    7.72    0.38
   0  -5   2    7.72    0.33
   0  -5   2    7.44    0.32
   0  -5  -2    8.16    0.32
   0  -5  -2    7.53    0.35
   0   5   2    7.63    0.30
   0   5  -2    7.64    0.32
   0   5   2    7.51    0.24
   0   5   2    8.30    0.35
   0   5   2    8.25    0.33
   0   5  -2    7.26    0.33
   0   5   2    7.10    0.25
  -1  -5  -2   10.87    0.47
   1  -5   2   11.82    0.47
  -1  -5  -2   10.85    0.36
  -1  -5  -2   11.13    0.38
   1  -5   2   10.39    0.48
   1  -5   2   11.37    0.45
   1  -5   2   11.00    0.38
  -1   5  -2   11.53    0.49
  -1   5  -2   10.80    0.45
   1   5   2   11.34    0.38
   1   5   2   11.50    0.45
  -1   5  -2   10.96    0.40
   1   5   2   11.45    0.46
   1   5   2   11.49    0.49
   1   5   2   11.00    0.36
   2  -5   2    2.84    0.31
  -2  -5  -2    2.74    0.32
  -2  -5  -2    3.56    0.18
  -2  -5  -2    3.85    0.24
   2  -5   2    3.87    0.35
   2  -5   2    3.75    0.19
   2   5   2    3.13    0.30
  -2   5  -2    2.59    0.30
   2   5   2    3.05    0.24
   2   5   2    3.17    0.21
   2   5   2    2.67    0.33
  -2   5  -2    3.22    0.19
  -2   5  -2    4.18    0.31
  -2   5  -2    3.39    0.31
   3  -5   2   21.08    0.89
  -3  -5  -2   21.11    0.56
   3  -5   2   20.01    0.82
   3  -5   2   19.69    0.84
  -3  -5  -2   21.46    0.74
  -3  -5  -2   20.32    0.78
   3  -5   2   21.03    0.55
  -3  -5  -2   19.99    0.86
  -3   5  -2   22.07    0.83
   3   5   2   19.82    0.78
   3   5   2   21.15    0.58
   3   5   2   20.68    0.89
  -3   5  -2   20.98    0.56
  -3   5  -2   20.19    0.80
   3   5   2   20.04    0.76
  -3   5  -2   20.91    0.82
   4  -5   2    7.05    0.63
  -4  -5  -2    7.99    0.52
  -4  -5  -2    8.17    0.52
  -4   5  -2    6.70    0.54
  -4   5  -2    7.43    0.55
   4   5   2    7.37    0.53
   5  -5   2   43.68    1.71
  -5  -5  -2   45.50    1.52
  -5  -5  -2   46.40    1.68
   5   5   2   45.56    1.58
  -5   5  -2   43.90    1.57
  -5   5  -2   44.14    1.56
   6  -5   2    4.02    0.73
  -6  -5  -2    3.90    0.62
   6   5   2    4.90    0.63
  -6   5  -2    5.39    0.74
  -6   5  -2    5.68    0.72
   7  -6  -2    4.16    0.72
  -7  -6   2    3.89    0.62
  -7   6   2    4.07    0.53
   7   6  -2    5.68    0.81
  -7   6   2    3.16    0.47
   6  -6  -2    0.46    0.44
  -6  -6   2    0.35    0.30
   6  -6  -2    0.34    0.43
   6   6  -2   -0.07    0.32
  -6   6   2    0.13    0.27
  -6   6   2    0.20    0.22
  -6   6   2    0.31    0.27
  -5  -6   2    1.11    0.30
  -5  -6   2    0.85    0.28
   5  -6  -2    0.83    0.27
   5  -6  -2    0.68    0.24
  -5   6   2    0.89    0.25
   5   6  -2    1.02    0.16
  -5   6   2    1.24    0.33
   5   6  -2    1.74    0.37
  -5   6   2    1.21    0.27
   5   6  -2    1.59    0.33
   5   6  -2    1.58    0.35
  -5   6   2    1.28    0.19
   5   6  -2    1.04    0.17
   4  -6  -2    1.90    0.21
   4  -6  -2    2.34    0.37
  -4  -6   2    2.12    0.38
   4  -6  -2    2.07    0.27
  -4  -6   2    2.23    0.30
  -4  -6   2    2.87    0.36
   4   6  -2    1.53    0.29
   4   6  -2    2.29    0.33
  -4   6   2    1.87    0.24
   4   6  -2    2.24    0.14
  -4   6   2    2.36    0.38
  -4   6   2    2.54    0.33
   4   6  -2    2.34    0.32
   4   6  -2    2.08    0.15
  -4   6   2    2.36    0.28
   3  -6  -2   30.67    0.75
   3  -6  -2   29.73    0.94
  -3  -6   2   28.68    0.99
  -3  -6   2   30.79    1.05
   3  -6  -2   30.29    1.04
   3  -6  -2   30.20    0.97
   3  -6  -2   29.99    0.77
  -3  -6   2   30.64    0.99
  -3   6   2   29.64    0.95
  -3   6   2   29.53    1.02
   3   6  -2   29.80    0.98
   3   6  -2   29.25    1.01
  -3   6   2   29.07    0.95
   3   6  -2   31.05    1.00
  -2  -6   2   51.97    1.51
  -2  -6   2   51.47    1.50
   2  -6  -2   52.43    1.45
  -2  -6   2   54.41    1.49
   2  -6  -2   52.39    1.48
   2  -6  -2   53.11    1.47
   2   6  -2   51.14    1.46
   2   6  -2   50.92    1.50
   2   6  -2   51.99    1.47
  -2   6   2   51.39    1.45
  -2   6   2   51.47    1.46
   1  -6  -2   66.28    1.81
   1  -6  -2   59.75    1.76
   1  -6  -2   63.81    1.66
   1  -6  -2   63.69    1.60
  -1  -6   2   57.63    1.77
  -1  -6   2   65.57    1.74
  -1  -6   2   63.41    1.61
  -1  -6   2   62.88    1.73
  -1   6   2   64.50    1.61
  -1   6   2   62.88    1.69
  -1   6   2   64.12    1.70
   1   6  -2   63.55    1.74
   1   6  -2   63.73    1.70
   1   6  -2   63.28    1.61
  -1   6   2   63.29    1.65
   1   6  -2   63.75    1.71
   0  -6   2   86.94    2.32
   0  -6  -2   88.99    2.33
   0  -6   2   89.95    2.29
   0  -6  -2   92.63    2.30
   0  -6   2   93.93    2.31
   0  -6  -2   90.79    2.32
   0  -6   2   90.55    2.38
   0   6   2   89.52    2.20
   0   6   2   86.40    2.32
   0   6   2   87.95    2.28
   0   6   2   91.28    2.31
   0   6  -2   88.77    2.30
   0   6  -2   89.84    2.33
   0   6   2   80.65    2.19
  -1  -6  -2    5.19    0.25
   1  -6   2    5.55    0.26
  -1  -6  -2    4.89    0.33
   1  -6   2    5.48    0.36
   1  -6   2    4.98    0.31
  -1  -6  -2    6.06    0.22
   1  -6   2    5.08    0.32
  -1   6  -2    4.77    0.30
   1   6   2    5.03    0.34
  -1   6  -2    6.50    0.38
  -1   6  -2    5.11    0.27
   1   6   2    4.92    0.21
   1   6   2    5.06    0.31
   1   6   2    4.94    0.31
   1   6   2    5.11    0.25
   2  -6   2   86.22    2.43
   2  -6   2   85.98    2.38
   2  -6   2   88.66    2.21
  -2  -6  -2   84.48    2.41
   2  -6   2   88.33    2.37
  -2  -6  -2   86.90    2.24
  -2  -6  -2   88.69    2.20
   2   6   2   91.00    2.43
   2   6   2   80.04    2.23
  -2   6  -2   85.81    2.35
  -2   6  -2   88.20    2.36
   2   6   2   87.31    2.27
   2   6   2   89.54    2.35
  -2   6  -2   85.84    2.37
   2   6   2   86.17    2.36
   3  -6   2    8.23    0.29
  -3  -6  -2    8.74    0.30
   3  -6   2    8.33    0.57
  -3  -6  -2    7.99    0.56
  -3  -6  -2    8.26    0.43
   3  -6   2    8.89    0.51
   3  -6   2    8.15    0.54
  -3   6  -2    8.96    0.52
  -3   6  -2    8.28    0.31
   3   6   2    8.95    0.62
   3   6   2    7.87    0.44
  -3   6  -2    8.89    0.52
   3   6   2    8.51    0.32
  -3   6  -2    7.89    0.50
   3   6   2    7.69    0.49
  -4  -6  -2   58.62    1.93
  -4  -6  -2   60.13    1.76
   4  -6   2   59.36    1.98
  -4   6  -2   59.64    1.91
  -4   6  -2   59.49    1.83
   4   6   2   61.27    1.83
   5  -6   2    9.03    0.82
  -5  -6  -2    6.65    0.74
   5   6   2    6.57    0.63
  -5   6  -2    6.73    0.62
  -5   6  -2    6.88    0.65
   6  -6   2    0.45    0.54
  -6  -6  -2    0.32    0.53
  -6   6  -2   -0.19    0.41
   6   6   2   -0.20    0.42
  -6   6  -2    0.17    0.41
   6   6   2    0.60    0.48
   7  -7  -2   23.66    1.42
  -7  -7   2   23.53    1.23
  -7   7   2   23.69    1.10
   7   7  -2   25.06    1.28
  -6  -7   2    9.04    0.78
   6  -7  -2    8.91    0.85
  -6   7   2    8.84    0.49
  -6   7   2    8.88    0.61
   6   7  -2    9.23    0.43
  -6   7   2    9.30    0.62
   6   7  -2    9.16    0.76
  -5  -7   2   71.48    2.04
   5  -7  -2   70.10    1.88
   5  -7  -2   66.80    2.01
   5  -7  -2   62.43    2.43
  -5  -7   2   69.16    2.12
   5   7  -2   66.46    2.08
   5   7  -2   69.41    2.12
  -5   7   2   67.29    1.96
  -5   7   2   69.37    2.08
  -5   7   2   72.11    1.83
   5   7  -2   68.32    2.08
  -5   7   2   69.27    2.01
   5   7  -2   69.89    1.78
   4  -7  -2   25.50    1.04
   4  -7  -2   24.95    0.91
  -4  -7   2   26.14    1.03
   4  -7  -2   25.36    0.74
   4  -7  -2   24.66    0.90
  -4  -7   2   24.90    0.97
  -4  -7   2   26.34    0.93
  -4   7   2   24.54    0.88
   4   7  -2   24.67    0.67
   4   7  -2   25.34    0.66
   4   7  -2   25.37    0.96
   4   7  -2   27.18    0.98
   4   7  -2   25.58    0.96
  -4   7   2   24.59    1.00
  -4   7   2   25.90    0.91
   3  -7  -2   18.89    0.52
   3  -7  -2   19.83    0.71
   3  -7  -2   18.47    0.77
  -3  -7   2   19.87    0.79
  -3  -7   2   20.32    0.75
  -3  -7   2   19.52    0.77
   3  -7  -2   20.49    0.74
  -3   7   2   20.36    0.77
  -3   7   2   19.77    0.72
   3   7  -2   19.35    0.75
   3   7  -2   20.14    0.78
   3   7  -2   20.23    0.75
  -3   7   2   18.13    0.69
   2  -7  -2   46.52    1.35
  -2  -7   2   47.65    1.38
  -2  -7   2   47.87    1.35
   2  -7  -2   49.13    1.35
   2  -7  -2   46.25    1.32
  -2  -7   2   45.45    1.38
  -2   7   2   44.16    1.39
   2   7  -2   45.42    1.37
   2   7  -2   46.03    1.33
   2   7  -2   45.51    1.34
  -2   7   2   46.04    1.33
  -2   7   2   44.82    1.31
  -1  -7   2    0.26    0.11
  -1  -7   2    0.48    0.15
  -1  -7   2    0.41    0.08
   1  -7  -2    0.34    0.08
   1  -7  -2    0.39    0.10
   1  -7  -2    0.46    0.12
   1  -7  -2    0.32    0.11
   1   7  -2    0.58    0.13
  -1   7   2    0.49    0.13
  -1   7   2    0.33    0.10
   1   7  -2    0.18    0.12
  -1   7   2    0.31    0.08
  -1   7   2    0.35    0.09
   1   7  -2    0.32    0.08
   0  -7  -2   35.75    1.01
   0  -7  -2   35.59    1.05
   0  -7   2   34.58    1.04
   0  -7   2   35.41    1.02
   0  -7   2   35.84    1.09
   0  -7   2   35.36    1.00
   0  -7  -2   34.86    1.02
   0   7   2   36.01    0.88
   0   7  -2   36.47    1.05
   0   7   2   35.11    0.88
   0   7  -2   34.66    1.04
   0   7   2   34.86    1.00
   0   7   2   36.35    1.03
   0   7  -2   35.13    1.01
   1  -7   2    0.62    0.16
  -1  -7  -2    0.52    0.16
   1  -7   2    0.69    0.19
  -1  -7  -2    0.84    0.13
   1  -7   2    0.81    0.13
   1  -7   2    0.81    0.17
   1  -7   2    0.87    0.16
  -1   7  -2    0.84    0.14
   1   7   2    0.84    0.15
   1   7   2    0.61    0.09
   1   7   2    0.81    0.19
   1   7   2    1.32    0.18
  -1   7  -2    0.61    0.15
   1   7   2    0.76    0.16
   2  -7   2    0.41    0.18
  -2  -7  -2    0.24    0.20
   2  -7   2    0.05    0.16
   2  -7   2    0.40    0.12
  -2  -7  -2    0.53    0.11
  -2  -7  -2    0.53    0.12
  -2   7  -2    0.35    0.11
   2   7   2    0.28    0.20
  -2   7  -2    0.48    0.19
   2   7   2    0.70    0.14
   2   7   2    0.04    0.15
   2   7   2    0.49    0.17
  -2   7  -2    0.37    0.16
   2   7   2    0.44    0.13
  -3  -7  -2   12.06    0.50
  -3  -7  -2   11.56    0.65
   3  -7   2   12.02    0.40
  -3  -7  -2   12.34    0.40
   3  -7   2   10.27    0.59
   3  -7   2   11.49    0.68
   3  -7   2   11.56    0.64
  -3   7  -2   11.43    0.53
   3   7   2   11.48    0.59
  -3   7  -2   10.90    0.58
   3   7   2   12.19    0.54
   3   7   2   11.87    0.42
  -3   7  -2   12.00    0.58
  -3   7  -2   11.24    0.61
   3   7   2   11.90    0.70
   3   7   2   11.79    0.58
  -4  -7  -2    8.71    0.70
  -4  -7  -2    9.33    0.32
  -4  -7  -2    9.63    0.53
  -4   7  -2    9.16    0.31
   4   7   2    8.72    0.59
  -4   7  -2    9.23    0.60
  -4   7  -2    9.01    0.32
   4   7   2    9.57    0.57
   4   7   2    8.37    0.34
  -5  -7  -2   27.61    1.29
   5  -7   2   29.18    1.37
   5   7   2   29.33    1.16
  -5   7  -2   28.00    1.19
   5   7   2   28.51    1.16
  -5   7  -2   27.75    1.16
  -6  -7  -2   19.11    1.23
   6  -7   2   19.39    1.32
   6   7   2   19.64    1.07
  -6   7  -2   19.12    1.10
   6   7   2   19.19    1.08
  -6   7  -2   20.84    1.07
  -7  -8   2    1.30    0.49
   7  -8  -2    1.47    0.63
   7   8  -2    1.51    0.49
  -7   8   2    2.02    0.46
   6  -8  -2    2.60    0.52
  -6  -8   2    3.13    0.53
  -6   8   2    2.68    0.40
  -6   8   2    2.70    0.30
   6   8  -2    2.66    0.47
   6   8  -2    1.46    0.42
   6   8  -2    2.88    0.38
   5  -8  -2    6.01    0.53
   5  -8  -2    5.90    0.39
  -5  -8   2    5.50    0.59
  -5  -8   2    5.75    0.55
   5  -8  -2    4.98    0.63
   5   8  -2    5.27    0.29
   5   8  -2    6.52    0.55
  -5   8   2    6.22    0.59
  -5   8   2    4.95    0.49
   5   8  -2    6.72    0.63
   5   8  -2    6.31    0.27
   5   8  -2    6.17    0.56
  -5   8   2    5.34    0.48
   4  -8  -2   29.70    0.84
   4  -8  -2   30.98    1.04
   4  -8  -2   29.44    0.80
   4  -8  -2   28.20    1.02
   4  -8  -2   29.83    1.15
  -4  -8   2   29.74    1.15
  -4  -8   2   31.82    1.06
  -4  -8   2   29.55    1.11
  -4   8   2   30.00    1.00
  -4   8   2   29.26    1.11
   4   8  -2   29.89    0.76
   4   8  -2   30.83    1.09
  -4   8   2   29.93    1.04
   4   8  -2   28.26    1.08
   4   8  -2   29.62    0.76
   4   8  -2   29.50    1.07
  -3  -8   2   47.53    1.52
  -3  -8   2   50.97    1.48
   3  -8  -2   48.22    1.52
  -3  -8   2   49.44    1.53
   3  -8  -2   49.52    1.45
   3  -8  -2   49.73    1.46
   3   8  -2   47.76    1.50
  -3   8   2   48.84    1.43
  -3   8   2   49.85    1.50
  -3   8   2   49.20    1.47
   3   8  -2   51.41    1.48
   3   8  -2   47.39    1.48
   2  -8  -2   55.51    1.61
   2  -8  -2   58.62    1.63
   2  -8  -2   56.22    1.62
  -2  -8   2   58.85    1.67
  -2  -8   2   60.03    1.64
  -2  -8   2   57.19    1.68
  -2  -8   2   57.93    1.43
   2   8  -2   57.73    1.43
  -2   8   2   58.09    1.61
   2   8  -2   57.78    1.64
   2   8  -2   56.84    1.67
  -2   8   2   57.35    1.60
  -2   8   2   55.44    1.62
   2   8  -2   58.60    1.61
   1  -8  -2  136.82    3.45
   1  -8  -2  136.58    3.52
  -1  -8   2  135.00    3.56
   1  -8  -2  135.32    3.42
   1  -8  -2  139.91    3.52
  -1  -8   2  141.80    3.53
  -1  -8   2  137.47    3.42
  -1  -8   2  145.14    3.57
  -1   8   2  135.54    3.43
  -1   8   2  136.25    3.52
   1   8  -2  139.75    3.54
   1   8  -2  136.12    3.55
  -1   8   2  132.14    3.49
   1   8  -2  134.16    3.42
  -1   8   2  137.76    3.42
   0  -8   2  137.61    3.44
   0  -8   2  126.92    3.38
   0  -8  -2  135.82    3.39
   0  -8   2  133.84    3.34
   0  -8  -2  132.15    3.36
   0   8  -2  129.00    3.38
   0   8  -2  133.43    3.38
   0   8   2  125.55    3.32
   0   8  -2  127.90    3.34
   0   8   2  137.38    3.37
   0   8   2  127.01    3.37
  -1  -8  -2   55.28    1.64
   1  -8   2   56.71    1.60
   1  -8   2   59.71    1.56
   1  -8   2   56.26    1.60
  -1  -8  -2   58.76    1.55
   1  -8   2   56.88    1.62
  -1   8  -2   56.43    1.62
   1   8   2   57.70    1.61
   1   8   2   59.00    1.65
   1   8   2   56.97    1.41
  -1   8  -2   58.29    1.66
  -1   8  -2   56.96    1.57
   1   8   2   58.35    1.55
   2  -8   2   91.59    2.42
  -2  -8  -2   93.00    2.38
   2  -8   2   92.10    2.51
  -2  -8  -2   95.54    2.62
   2  -8   2   95.28    2.56
   2  -8   2   94.98    2.55
   2  -8   2   94.13    2.64
  -2  -8  -2   95.84    2.40
  -2   8  -2   93.32    2.54
  -2   8  -2   95.82    2.43
   2   8   2   88.32    2.44
  -2   8  -2   92.20    2.56
   2   8   2   95.33    2.53
   2   8   2   96.16    2.61
   2   8   2   93.20    2.53
   3  -8   2   30.50    1.11
   3  -8   2   31.46    1.21
  -3  -8  -2   31.05    0.87
   3  -8   2   32.19    0.88
  -3  -8  -2   31.02    0.96
  -3  -8  -2   30.43    1.16
   3  -8   2   33.65    1.25
  -3   8  -2   30.73    1.10
   3   8   2   30.56    0.98
  -3   8  -2   28.84    1.06
   3   8   2   30.64    1.17
   3   8   2   30.18    1.06
   3   8   2   30.80    0.91
  -3   8  -2   29.90    1.06
   3   8   2   30.30    1.05
  -3   8  -2   31.38    0.90
   4  -8   2   26.99    1.22
  -4  -8  -2   26.61    0.77
  -4  -8  -2   26.73    0.96
  -4  -8  -2   27.57    1.29
  -4   8  -2   26.50    1.03
   4   8   2   26.54    0.99
   4   8   2   27.24    1.04
   4   8   2   27.41    0.81
  -4   8  -2   28.13    1.10
   5  -8   2   -0.16    0.41
  -5  -8  -2    0.41    0.44
  -5   8  -2    1.65    0.37
  -5   8  -2    0.54    0.37
   5   8   2    0.25    0.34
   5   8   2    1.13    0.35
  -6  -8  -2    0.38    0.58
   6  -8   2    1.63    0.68
   6   8   2   -0.04    0.44
  -6   8  -2    1.20    0.46
   6   8   2    0.83    0.46
  -6   8  -2   -0.01    0.42
  -7  -9   2   13.21    1.10
   7  -9  -2   14.61    1.27
   7   9  -2   14.58    1.03
  -7   9   2   14.48    0.93
   6  -9  -2   64.53    1.76
   6  -9  -2   65.49    2.30
  -6  -9   2   63.93    2.14
  -6   9   2   64.52    2.03
   6   9  -2   65.82    2.13
   5  -9  -2   34.45    1.02
   5  -9  -2   34.12    0.97
  -5  -9   2   35.03    1.32
   5  -9  -2   33.69    1.39
  -5  -9   2   33.69    1.23
   5   9  -2   34.15    0.93
  -5   9   2   35.63    1.23
   5   9  -2   34.95    0.92
  -5   9   2   33.58    1.15
   5   9  -2   33.76    1.27
  -5   9   2   32.81    1.28
   5   9  -2   34.16    1.28
  -4  -9   2    9.07    0.58
   4  -9  -2    9.15    0.53
   4  -9  -2    8.10    0.52
   4  -9  -2    9.06    0.63
  -4  -9   2    8.37    0.53
   4  -9  -2    8.56    0.34
   4  -9  -2    8.50    0.30
  -4  -9   2    8.22    0.62
   4   9  -2    8.62    0.54
  -4   9   2    8.96    0.50
   4   9  -2    8.61    0.56
  -4   9   2    9.07    0.54
  -4   9   2    8.53    0.62
   4   9  -2    7.83    0.55
  -3  -9   2   35.60    1.13
  -3  -9   2   34.14    1.18
   3  -9  -2   34.08    1.11
   3  -9  -2   35.36    1.12
   3  -9  -2   34.49    1.18
  -3  -9   2   34.45    1.19
  -3   9   2   34.55    1.13
  -3   9   2   34.80    1.14
  -3   9   2   33.73    1.08
   3   9  -2   33.48    1.14
   3   9  -2   34.94    1.17
   3   9  -2   35.42    1.12
  -2  -9   2   21.03    0.74
   2  -9  -2   20.88    0.72
   2  -9  -2   19.91    0.52
   2  -9  -2   19.56    0.72
  -2  -9   2   20.19    0.76
  -2  -9   2   19.70    0.54
   2  -9  -2   19.54    0.71
  -2  -9   2   19.16    0.77
  -2   9   2   19.49    0.68
  -2   9   2   19.99    0.73
   2   9  -2   18.81    0.75
   2   9  -2   19.61    0.54
   2   9  -2   20.45    0.74
   2   9  -2   18.64    0.68
  -2   9   2   18.87    0.68
  -1  -9   2    1.02    0.21
   1  -9  -2    0.65    0.14
  -1  -9   2    0.83    0.12
   1  -9  -2    1.05    0.18
  -1  -9   2    0.96    0.17
   1  -9  -2    0.75    0.14
   1  -9  -2    1.07    0.15
  -1  -9   2    1.28    0.22
  -1  -9   2    0.82    0.16
  -1   9   2    0.74    0.15
   1   9  -2    0.77    0.16
   1   9  -2    0.86    0.15
  -1   9   2    1.13    0.15
   1   9  -2    0.58    0.16
  -1   9   2    1.04    0.14
  -1   9   2    0.94    0.16
   0  -9   2    0.25    0.16
   0  -9  -2    0.28    0.12
   0  -9  -2    0.33    0.15
   0  -9   2    0.32    0.14
   0  -9  -2    0.36    0.14
   0  -9   2    0.35    0.13
   0   9  -2    0.10    0.11
   0   9   2    0.19    0.12
   0   9  -2    0.22    0.13
   0   9   2    0.21    0.11
   0   9  -2    0.25    0.12
   0   9   2    0.32    0.12
   1  -9   2    0.45    0.16
   1  -9   2    0.32    0.14
   1  -9   2    0.85    0.20
  -1  -9  -2    0.36    0.18
   1  -9   2    0.28    0.14
  -1  -9  -2    0.23    0.14
   1   9   2    0.26    0.16
   1   9   2    0.29    0.14
   1   9   2    0.56    0.15
  -1   9  -2    0.39    0.14
  -1   9  -2    0.81    0.22
  -1   9  -2    0.16    0.14
   2  -9   2    0.27    0.17
   2  -9   2    0.28    0.13
   2  -9   2    0.19    0.17
  -2  -9  -2    0.51    0.11
   2  -9   2    0.62    0.25
  -2  -9  -2    0.66    0.14
  -2  -9  -2    0.20    0.18
   2  -9   2    0.32    0.19
   2   9   2    0.36    0.11
   2   9   2    0.13    0.17
  -2   9  -2    0.53    0.14
   2   9   2    0.33    0.14
  -2   9  -2    0.87    0.22
   2   9   2    0.37    0.18
  -2   9  -2    0.48    0.19
   2   9   2    0.41    0.22
  -3  -9  -2    9.28    0.43
  -3  -9  -2    8.69    0.61
  -3  -9  -2    8.94    0.38
   3  -9   2    9.18    0.39
   3  -9   2    9.32    0.61
   3  -9   2    9.61    0.67
   3   9   2    8.81    0.43
  -3   9  -2    9.27    0.40
   3   9   2    8.92    0.53
  -3   9  -2    9.37    0.57
  -3   9  -2    8.59    0.54
   3   9   2    9.22    0.42
   3   9   2    8.40    0.51
   3   9   2    8.33    0.62
  -4  -9  -2   52.00    1.39
   4  -9   2   51.38    1.39
  -4  -9  -2   52.19    1.56
   4  -9   2   54.08    1.89
   4   9   2   51.91    1.43
   4   9   2   50.54    1.58
  -4   9  -2   52.34    1.41
  -4   9  -2   51.29    1.71
   4   9   2   51.55    1.64
  -4   9  -2   52.65    1.65
   5  -9   2   17.83    1.16
  -5  -9  -2   16.02    1.03
  -5   9  -2   18.69    0.93
   5   9   2   18.50    0.89
  -5   9  -2   20.18    1.02
   5   9   2   18.15    0.89
   6  -9   2   11.02    1.17
  -6  -9  -2   11.43    1.09
   6   9   2   10.69    0.88
  -6   9  -2   12.59    0.99
   6   9   2   12.18    0.89
  -6   9  -2   11.34    0.89
  -7 -10   2    3.16    0.65
   7 -10  -2    2.89    0.74
  -7 -10   2    2.99    0.53
   7  10  -2    2.59    0.58
  -7  10   2    1.78    0.50
  -7  10   2    1.59    0.51
  -6 -10   2   -0.04    0.42
   6 -10  -2    0.47    0.47
   6 -10  -2    0.58    0.21
   6  10  -2    0.38    0.37
  -6  10   2   -0.14    0.31
  -6  10   2   -0.03    0.30
   6  10  -2    0.53    0.37
   5 -10  -2    2.16    0.23
   5 -10  -2    1.72    0.41
  -5 -10   2    1.63    0.42
   5 -10  -2    1.98    0.25
  -5 -10   2    1.50    0.40
   5  10  -2    2.26    0.49
  -5  10   2    2.07    0.32
  -5  10   2    1.73    0.33
   5  10  -2    1.70    0.37
   5  10  -2    1.82    0.18
   5  10  -2    1.86    0.20
   4 -10  -2   18.53    0.78
   4 -10  -2   18.01    0.88
  -4 -10   2   16.65    0.83
   4 -10  -2   17.34    0.53
   4 -10  -2   17.05    0.51
  -4 -10   2   17.00    0.84
  -4 -10   2   16.85    0.76
   4  10  -2   17.12    0.81
  -4  10   2   16.58    0.82
   4  10  -2   17.75    0.76
  -4  10   2   17.06    0.76
  -4  10   2   16.73    0.71
   4  10  -2   18.36    0.83
   3 -10  -2   56.42    1.68
  -3 -10   2   55.11    1.76
  -3 -10   2   61.01    1.70
   3 -10  -2   56.24    1.42
   3 -10  -2   57.97    1.68
   3 -10  -2   55.33    1.42
   3 -10  -2   57.05    1.74
  -3 -10   2   56.28    1.74
   3  10  -2   55.61    1.72
   3  10  -2   58.64    1.73
  -3  10   2   57.24    1.70
  -3  10   2   58.80    1.69
   3  10  -2   57.41    1.40
   3  10  -2   56.73    1.66
  -3  10   2   55.98    1.63
  -2 -10   2  166.38    4.21
   2 -10  -2  165.26    4.19
  -2 -10   2  178.67    4.45
   2 -10  -2  176.98    4.40
   2 -10  -2  175.19    4.40
   2 -10  -2  169.12    4.38
  -2 -10   2  179.38    4.41
  -2 -10   2  162.46    4.46
  -2  10   2  173.92    4.35
   2  10  -2  168.41    4.21
  -2  10   2  176.42    4.19
  -2  10   2  168.24    4.36
   2  10  -2  165.43    4.44
   2  10  -2  166.36    4.35
  -2  10   2  170.84    4.41
   2  10  -2  174.91    4.43
   1 -10  -2  104.01    2.65
   1 -10  -2  101.16    2.55
   1 -10  -2  101.33    2.66
  -1 -10   2   99.02    2.54
  -1 -10   2   98.68    2.71
  -1 -10   2   99.46    2.63
  -1 -10   2   98.05    2.69
   1 -10  -2   91.54    2.58
  -1 -10   2  102.92    2.65
  -1  10   2  101.11    2.55
  -1  10   2   98.63    2.66
   1  10  -2   99.81    2.69
  -1  10   2  100.52    2.62
  -1  10   2  101.18    2.53
   1  10  -2  100.38    2.67
   1  10  -2  100.27    2.55
   0 -10   2   15.81    0.58
   0 -10   2   15.02    0.56
   0 -10  -2   16.05    0.61
   0 -10   2   18.56    0.67
   0 -10   2   15.16    0.62
   0 -10  -2   16.28    0.59
   0 -10  -2   15.09    0.59
   0  10   2   15.52    0.60
   0  10  -2   15.62    0.58
   0  10   2   15.46    0.56
   0  10   2   16.47    0.59
   0  10  -2   16.87    0.62
   0  10  -2   15.12    0.61
  -1 -10  -2  219.19    5.38
  -1 -10  -2  217.85    5.46
   1 -10   2  223.51    5.40
   1 -10   2  216.68    5.45
   1 -10   2  213.25    5.43
  -1 -10  -2  213.27    5.48
   1 -10   2  212.29    5.43
   1 -10   2  191.10    5.49
  -1  10  -2  231.54    5.52
  -1  10  -2  210.60    5.44
   1  10   2  221.05    5.48
   1  10   2  214.76    5.39
   1  10   2  214.06    5.43
  -1  10  -2  210.11    5.41
   2 -10   2    5.85    0.50
  -2 -10  -2    6.98    0.34
  -2 -10  -2    6.59    0.26
   2 -10   2    5.95    0.35
   2 -10   2    6.28    0.45
  -2 -10  -2    5.92    0.47
   2 -10   2    6.28    0.41
   2 -10   2    5.74    0.41
  -2  10  -2    5.53    0.42
  -2  10  -2    7.25    0.46
   2  10   2    6.54    0.38
   2  10   2    5.55    0.47
   2  10   2    5.96    0.26
   2  10   2    6.23    0.41
  -2  10  -2    5.82    0.35
   2  10   2    6.54    0.41
  -3 -10  -2   36.05    1.30
  -3 -10  -2   33.69    1.09
   3 -10   2   35.32    1.35
  -3 -10  -2   33.66    1.07
   3 -10   2   34.28    1.15
   3 -10   2   34.22    1.22
   3  10   2   36.06    1.08
   3  10   2   34.81    1.18
  -3  10  -2   34.87    1.23
   3  10   2   35.10    1.17
   3  10   2   35.95    1.06
  -3  10  -2   34.36    1.04
   4 -10   2    1.73    0.47
   4 -10   2    1.44    0.21
  -4 -10  -2    2.11    0.33
  -4 -10  -2    2.18    0.27
   4  10   2    1.88    0.25
   4  10   2    2.12    0.34
  -4  10  -2    1.49    0.35
   4  10   2    1.81    0.29
  -4  10  -2    1.68    0.23
   5 -10   2    9.79    0.99
  -5 -10  -2    9.30    0.90
  -5  10  -2    9.81    0.79
   5  10   2   10.55    0.73
   5  10   2   11.03    0.71
  -6 -10  -2    2.56    0.64
   6 -10   2    2.30    0.70
   6  10   2    2.83    0.53
  -6  10  -2    3.73    0.59
   6  10   2    3.28    0.57
  -7 -11   2    3.59    0.69
   7  11  -2    3.33    0.60
  -7  11   2    2.51    0.50
  -7  11   2    3.50    0.58
   6 -11  -2   30.24    1.47
  -6 -11   2   29.85    1.39
   6  11  -2   29.45    1.29
   6  11  -2   29.97    1.25
  -6  11   2   29.55    1.23
   5 -11  -2   11.43    0.49
   5 -11  -2   10.63    0.42
  -5 -11   2    9.88    0.78
   5 -11  -2   10.24    0.83
  -5  11   2   11.63    0.64
   5  11  -2   10.97    0.74
  -5  11   2   10.04    0.67
   5  11  -2   10.80    0.35
   5  11  -2   10.96    0.36
  -4 -11   2  119.96    3.21
   4 -11  -2  120.93    2.95
   4 -11  -2  120.88    2.94
  -4 -11   2  113.43    3.31
  -4 -11   2  116.12    3.34
   4 -11  -2  119.88    3.36
   4 -11  -2  114.60    3.22
   4  11  -2  116.03    3.28
   4  11  -2  119.64    3.22
   4  11  -2  119.74    2.90
   4  11  -2  118.90    3.29
  -4  11   2  117.12    3.15
   4  11  -2  117.74    2.88
  -4  11   2  118.66    3.25
  -3 -11   2    4.61    0.48
   3 -11  -2    4.90    0.20
  -3 -11   2    5.30    0.43
  -3 -11   2    5.29    0.47
   3 -11  -2    5.32    0.42
   3 -11  -2    4.77    0.20
   3 -11  -2    4.58    0.42
   3 -11  -2    4.99    0.43
   3  11  -2    4.70    0.45
  -3  11   2    4.28    0.40
   3  11  -2    5.31    0.38
   3  11  -2    5.35    0.47
  -3  11   2    5.15    0.39
  -3  11   2    5.06    0.43
   3  11  -2    5.01    0.19
   3  11  -2    4.81    0.19
   2 -11  -2   20.22    0.74
  -2 -11   2   21.49    0.77
  -2 -11   2   18.54    0.81
  -2 -11   2   21.08    0.80
   2 -11  -2   20.22    0.74
   2 -11  -2   20.40    0.76
   2 -11  -2   19.87    0.58
  -2 -11   2   19.44    0.59
   2  11  -2   19.61    0.59
   2  11  -2   19.10    0.78
   2  11  -2   20.81    0.79
   2  11  -2   18.65    0.70
  -2  11   2   19.28    0.76
  -2  11   2   20.81    0.70
  -2  11   2   20.14    0.57
  -2  11   2   19.38    0.72
  -1 -11   2   48.50    1.56
  -1 -11   2   53.57    1.60
   1 -11  -2   54.12    1.54
   1 -11  -2   53.03    1.44
  -1 -11   2   54.60    1.53
   1 -11  -2   54.66    1.53
  -1 -11   2   51.65    1.51
  -1 -11   2   53.33    1.43
   1  11  -2   53.57    1.44
  -1  11   2   50.77    1.53
   1  11  -2   53.08    1.58
  -1  11   2   53.75    1.43
  -1  11   2   53.11    1.50
   1  11  -2   52.90    1.55
  -1  11   2   53.81    1.40
   0 -11  -2    0.43    0.15
   0 -11  -2    0.11    0.15
   0 -11   2    0.14    0.12
   0 -11  -2    0.36    0.17
   0 -11   2    0.78    0.18
   0 -11   2    0.42    0.17
   0  11   2    0.20    0.13
   0  11  -2    0.11    0.12
   0  11  -2    0.20    0.15
   0  11   2    0.25    0.13
   0  11  -2    0.77    0.19
   0  11   2    0.27    0.14
  -1 -11  -2    7.74    0.46
   1 -11   2    7.90    0.46
   1 -11   2    7.16    0.43
   1 -11   2    9.72    0.43
  -1 -11  -2    7.96    0.49
   1 -11   2    7.96    0.43
   1 -11   2    8.48    0.51
  -1 -11  -2    8.26    0.40
   1  11   2    8.70    0.42
  -1  11  -2    8.27    0.45
  -1  11  -2    7.93    0.43
   1  11   2    8.11    0.43
   1  11   2    8.04    0.46
  -1  11  -2    8.36    0.49
   2 -11   2   49.31    1.52
   2 -11   2   49.27    1.52
  -2 -11  -2   51.30    1.61
  -2 -11  -2   51.23    1.41
   2 -11   2   50.13    1.48
   2 -11   2   47.91    1.42
  -2 -11  -2   49.20    1.29
   2 -11   2   46.17    1.61
  -2  11  -2   50.54    1.54
  -2  11  -2   51.45    1.44
   2  11   2   49.36    1.57
   2  11   2   50.94    1.50
   2  11   2   51.32    1.29
  -2  11  -2   50.42    1.54
   2  11   2   48.21    1.46
   2  11   2   49.16    1.50
  -3 -11  -2    5.42    0.47
   3 -11   2    6.02    0.61
  -3 -11  -2    5.64    0.57
   3 -11   2    6.06    0.47
   3 -11   2    5.34    0.52
   3 -11   2    5.89    0.38
  -3 -11  -2    6.26    0.36
   3  11   2    5.90    0.42
   3  11   2    6.08    0.45
  -3  11  -2    5.54    0.39
  -3  11  -2    5.70    0.50
   3  11   2    5.12    0.44
   3  11   2    6.19    0.35
   4 -11   2   14.91    0.96
  -4 -11  -2   15.36    0.58
  -4 -11  -2   14.95    0.69
   4 -11   2   15.47    0.63
   4  11   2   16.34    0.76
   4  11   2   15.36    0.67
  -4  11  -2   15.52    0.60
   4  11   2   15.60    0.63
  -4  11  -2   14.98    0.83
  -5 -11  -2   20.15    1.19
   5 -11   2   21.60    0.98
   5 -11   2   22.92    1.33
   5  11   2   20.70    0.96
  -5  11  -2   20.92    1.08
   5  11   2   22.86    0.94
   6 -11   2   31.61    1.34
  -6  11  -2   29.64    1.47
   6  11   2   37.75    1.77
   6  11   2   32.76    1.35
  -6 -12   2    0.27    0.46
   6 -12  -2    0.50    0.51
  -6  12   2    0.13    0.38
   6  12  -2    0.61    0.39
   6  12  -2    0.33    0.39
   5 -12  -2   12.07    0.50
   5 -12  -2   12.09    0.44
   5 -12  -2   12.18    0.89
  -5 -12   2   12.24    0.85
   5  12  -2   11.07    0.36
   5  12  -2   11.54    0.36
  -5  12   2   10.74    0.88
  -5  12   2   11.56    0.65
   5  12  -2   10.84    0.78
   5  12  -2   12.19    0.71
   4 -12  -2    8.24    0.64
   4 -12  -2    8.27    0.33
  -4 -12   2    9.02    0.60
   4 -12  -2    8.11    0.34
  -4 -12   2    8.65    0.68
  -4 -12   2    8.49    0.67
   4 -12  -2   10.71    1.00
   4  12  -2    8.80    0.53
   4  12  -2    8.25    0.27
   4  12  -2    8.34    0.27
  -4  12   2    8.43    0.53
  -4  12   2    8.26    0.59
   4  12  -2    7.50    0.61
   3 -12  -2    6.41    0.25
   3 -12  -2    6.32    0.47
   3 -12  -2    5.60    0.46
  -3 -12   2    6.90    0.49
   3 -12  -2    6.48    0.25
  -3 -12   2    7.26    0.52
   3 -12  -2    6.51    0.50
  -3 -12   2    6.41    0.55
   3  12  -2    6.67    0.44
   3  12  -2    7.73    0.53
   3  12  -2    6.63    0.25
  -3  12   2    6.83    0.45
   3  12  -2    6.31    0.50
  -3  12   2    6.62    0.48
  -3  12   2    6.45    0.43
   3  12  -2    6.16    0.25
   2 -12  -2    1.09    0.21
  -2 -12   2    0.94    0.22
   2 -12  -2    0.88    0.14
   2 -12  -2    0.96    0.22
  -2 -12   2    0.78    0.24
  -2 -12   2    1.01    0.14
   2 -12  -2    1.48    0.24
   2  12  -2    1.01    0.26
  -2  12   2    1.17    0.15
   2  12  -2    1.10    0.25
  -2  12   2    0.83    0.18
  -2  12   2    1.00    0.21
  -2  12   2    0.98    0.23
  -1 -12   2   52.99    1.42
   1 -12  -2   51.80    1.41
  -1 -12   2   50.70    1.57
  -1 -12   2   53.49    1.51
   1 -12  -2   51.76    1.42
  -1 -12   2   51.02    1.50
  -1 -12   2   44.53    1.53
   1 -12  -2   51.63    1.52
   1 -12  -2   53.15    1.51
  -1  12   2   51.52    1.36
  -1  12   2   50.93    1.52
   1  12  -2   51.48    1.42
  -1  12   2   50.79    1.47
   1  12  -2   51.01    1.55
   1  12  -2   52.28    1.53
  -1  12   2   53.24    1.42
   0 -12  -2    5.51    0.35
   0 -12  -2    5.38    0.39
   0 -12  -2    5.29    0.37
   0 -12   2    6.36    0.41
   0 -12   2    5.46    0.35
   0 -12   2    5.15    0.33
   0 -12   2    5.45    0.39
   0  12  -2    6.55    0.40
   0  12   2    4.87    0.35
   0  12  -2    5.10    0.34
   0  12  -2    4.78    0.37
   0  12   2    5.57    0.34
   0  12   2    5.33    0.34
   1 -12   2   93.60    2.53
   1 -12   2   95.27    2.50
   1 -12   2   91.47    2.53
  -1 -12  -2   92.62    2.56
   1 -12   2   94.87    2.56
  -1 -12  -2   94.07    2.59
   1 -12   2   86.79    2.60
  -1 -12  -2   96.44    2.49
   1  12   2   97.11    2.58
  -1  12  -2   92.72    2.59
  -1  12  -2   92.32    2.55
  -1  12  -2   94.94    2.53
   1  12   2   92.32    2.53
   1  12   2   95.93    2.51
  -2 -12  -2    6.35    0.24
   2 -12   2    6.35    0.47
   2 -12   2    7.04    0.47
  -2 -12  -2    6.69    0.39
   2 -12   2    5.97    0.53
   2 -12   2    6.16    0.40
  -2 -12  -2    5.53    0.51
   2 -12   2    6.21    0.44
   2  12   2    6.37    0.43
   2  12   2    6.63    0.44
  -2  12  -2    6.28    0.50
  -2  12  -2    6.83    0.49
  -2  12  -2    6.15    0.41
   2  12   2    6.79    0.51
   2  12   2    6.15    0.46
   2  12   2    6.51    0.24
   3 -12   2   90.73    2.56
  -3 -12  -2   94.74    2.45
  -3 -12  -2   92.16    2.75
  -3 -12  -2   91.35    2.41
   3 -12   2   96.54    2.48
   3 -12   2   90.51    2.65
   3 -12   2   90.93    2.81
  -3  12  -2   92.62    2.48
   3  12   2   93.14    2.41
   3  12   2   92.98    2.54
   3  12   2   94.45    2.58
  -3  12  -2   91.79    2.66
   3  12   2   91.18    2.59
  -4 -12  -2    3.50    0.43
   4 -12   2    3.42    0.56
   4 -12   2    4.38    0.52
  -4 -12  -2    4.21    0.38
   4  12   2    3.88    0.48
   4  12   2    4.21    0.39
  -4  12  -2    4.73    0.40
  -4  12  -2    4.16    0.52
   4  12   2    4.37    0.42
   5 -12   2    3.05    0.67
   5 -12   2    1.33    0.40
  -5 -12  -2    2.54    0.60
  -5  12  -2    2.37    0.45
   5  12   2    1.88    0.40
   5  12   2    2.28    0.39
   6 -13  -2   27.45    1.44
  -6 -13   2   27.05    1.34
  -6  13   2   28.85    1.25
   6  13  -2   23.64    1.21
   6  13  -2   24.63    1.14
   5 -13  -2    1.60    0.48
   5 -13  -2    1.31    0.23
  -5 -13   2    0.33    0.39
   5 -13  -2    1.49    0.20
  -5  13   2    1.26    0.37
  -5  13   2    1.73    0.38
   5  13  -2    1.01    0.38
   5  13  -2    2.12    0.37
   5  13  -2    1.63    0.17
   5  13  -2    1.60    0.16
   4 -13  -2   42.38    1.51
  -4 -13   2   42.15    1.59
   4 -13  -2   41.48    1.11
  -4 -13   2   41.21    1.54
  -4 -13   2   40.22    1.49
   4 -13  -2   41.07    1.11
   4  13  -2   40.74    1.06
   4  13  -2   39.54    1.45
   4  13  -2   40.70    1.34
   4  13  -2   41.91    1.07
  -4  13   2   42.83    1.44
  -4  13   2   40.97    1.33
   3 -13  -2   22.87    0.68
   3 -13  -2   23.58    0.92
  -3 -13   2   23.72    0.91
   3 -13  -2   23.64    0.67
   3 -13  -2   22.79    0.92
   3 -13  -2   23.60    0.95
  -3 -13   2   22.96    1.01
  -3 -13   2   23.83    0.96
   3  13  -2   23.98    0.67
  -3  13   2   23.74    0.87
   3  13  -2   23.85    0.67
   3  13  -2   23.01    0.94
  -3  13   2   23.19    0.93
  -3  13   2   23.50    0.87
   3  13  -2   24.18    0.98
   3  13  -2   22.84    0.84
  -2 -13   2   50.11    1.49
   2 -13  -2   50.32    1.50
  -2 -13   2   47.30    1.58
  -2 -13   2   48.74    1.54
   2 -13  -2   48.85    1.46
  -2 -13   2   47.34    1.33
   2 -13  -2   50.14    1.51
   2 -13  -2   48.76    1.33
  -2  13   2   48.91    1.52
   2  13  -2   47.52    1.52
  -2  13   2   51.78    1.41
   2  13  -2   47.68    1.44
   2  13  -2   50.40    1.57
   2  13  -2   49.29    1.33
  -2  13   2   48.85    1.31
  -2  13   2   49.14    1.45
   1 -13  -2    0.27    0.14
   1 -13  -2    0.43    0.19
  -1 -13   2    0.07    0.15
  -1 -13   2    0.25    0.17
  -1 -13   2    0.40    0.23
  -1 -13   2    0.16    0.14
   1 -13  -2   -0.13    0.13
  -1 -13   2    0.18    0.21
   1 -13  -2    0.07    0.14
  -1  13   2    0.27    0.14
  -1  13   2    0.28    0.11
   1  13  -2    0.01    0.16
  -1  13   2    0.08    0.13
   1  13  -2    0.18    0.18
  -1  13   2    0.05    0.15
   1  13  -2    0.02    0.11
   0 -13   2   13.36    0.62
   0 -13  -2   12.47    0.34
   0 -13  -2   12.03    0.58
   0 -13   2   12.19    0.53
   0 -13  -2   12.71    0.56
   0 -13   2   12.87    0.59
   0 -13   2   13.05    0.56
   0 -13   2   12.14    0.59
   0 -13  -2   12.41    0.56
   0  13  -2   12.13    0.60
   0  13  -2   12.82    0.58
   0  13  -2   12.41    0.54
   0  13   2   12.12    0.56
   0  13   2   11.79    0.54
   0  13   2   12.88    0.55
  -1 -13  -2    6.58    0.40
  -1 -13  -2    6.65    0.45
   1 -13   2    6.23    0.44
   1 -13   2    6.96    0.49
   1 -13   2    7.22    0.43
  -1 -13  -2    6.32    0.46
   1 -13   2    5.99    0.42
   1  13   2    6.75    0.43
  -1  13  -2    6.36    0.44
   1  13   2    6.32    0.41
  -1  13  -2    7.05    0.50
   1  13   2    5.88    0.45
  -1  13  -2    6.41    0.43
  -2 -13  -2   21.25    0.57
   2 -13   2   22.19    0.87
   2 -13   2   21.02    0.78
  -2 -13  -2   21.25    0.75
   2 -13   2   18.92    0.92
   2 -13   2   21.88    0.82
   2 -13   2   19.68    0.84
  -2 -13  -2   20.72    0.90
   2  13   2   21.44    0.81
   2  13   2   22.25    0.91
   2  13   2   20.22    0.81
  -2  13  -2   21.50    0.87
  -2  13  -2   20.24    0.87
  -2  13  -2   20.70    0.78
   2  13   2   20.89    0.81
   2  13   2   21.09    0.56
  -3 -13  -2    0.07    0.18
   3 -13   2    0.35    0.24
   3 -13   2    0.75    0.23
   3 -13   2    0.16    0.30
  -3 -13  -2    0.28    0.31
  -3 -13  -2    0.43    0.18
   3  13   2    0.24    0.21
  -3  13  -2    0.21    0.48
   3  13   2   -0.14    0.23
   3  13   2    0.18    0.42
  -3  13  -2    0.35    0.21
   3  13   2    0.36    0.14
  -4 -13  -2   66.38    1.84
   4 -13   2   66.81    2.34
  -4 -13  -2   65.29    1.88
   4 -13   2   67.15    2.01
   4  13   2   66.71    1.87
   4  13   2   68.49    1.93
   4  13   2   64.74    2.14
  -4  13  -2   68.51    2.15
  -4  13  -2   65.57    1.87
   5 -13   2    1.11    0.60
   5 -13   2    0.34    0.35
  -5 -13  -2    1.18    0.46
  -5  13  -2   -0.08    0.40
   5  13   2    0.44    0.32
   5  13   2   -0.34    0.31
   6 -14  -2    0.18    0.54
  -6 -14   2    0.38    0.51
  -6  14   2    0.32    0.42
  -6  14   2    0.15    0.35
   6  14  -2    0.76    0.41
   6  14  -2    0.99    0.48
   5 -14  -2    1.75    0.22
  -5 -14   2    2.55    0.55
   5 -14  -2    2.83    0.58
   5  14  -2    1.97    0.17
  -5  14   2    2.23    0.44
   5  14  -2    1.55    0.43
   5  14  -2    1.24    0.34
  -5  14   2    2.02    0.36
   4 -14  -2   19.50    0.96
   4 -14  -2   18.98    0.59
  -4 -14   2   17.69    1.28
   4 -14  -2   17.61    0.69
   4  14  -2   18.47    0.55
   4  14  -2   19.34    0.55
   4  14  -2   19.95    0.81
  -4  14   2   18.41    0.89
  -4  14   2   18.38    0.81
   4  14  -2   19.62    0.93
  -3 -14   2    9.87    0.69
   3 -14  -2    9.13    0.59
   3 -14  -2    9.07    0.35
   3 -14  -2    9.51    0.70
   3 -14  -2    8.14    0.58
  -3 -14   2    9.09    0.64
   3 -14  -2    8.45    0.46
  -3 -14   2    9.09    0.57
  -3  14   2    9.22    0.52
  -3  14   2    9.68    0.60
   3  14  -2    8.70    0.60
   3  14  -2    9.23    0.50
  -3  14   2    9.31    0.53
   3  14  -2    9.33    0.64
   3  14  -2    8.73    0.38
   2 -14  -2    1.16    0.27
   2 -14  -2    0.46    0.19
  -2 -14   2    0.67    0.20
  -2 -14   2    0.27    0.24
  -2 -14   2    0.52    0.15
  -2 -14   2    0.86    0.28
   2 -14  -2    0.62    0.22
   2 -14  -2    0.46    0.15
  -2  14   2    0.89    0.22
  -2  14   2    0.72    0.24
  -2  14   2    0.61    0.18
   2  14  -2    0.46    0.23
   2  14  -2    0.78    0.24
  -2  14   2    0.71    0.15
   2  14  -2    0.59    0.13
   1 -14  -2   72.69    1.97
   1 -14  -2   72.40    2.07
  -1 -14   2   73.87    2.04
  -1 -14   2   72.61    2.04
  -1 -14   2   75.26    1.96
  -1 -14   2   73.18    2.14
   1 -14  -2   73.05    1.93
  -1 -14   2   61.57    2.06
  -1  14   2   72.42    2.02
  -1  14   2   72.59    1.87
  -1  14   2   69.16    2.00
   1  14  -2   71.67    2.11
   1  14  -2   73.70    1.96
   1  14  -2   76.35    2.09
  -1  14   2   73.12    2.07
   0 -14   2   18.36    0.78
   0 -14  -2   20.18    0.75
   0 -14  -2   18.52    0.75
   0 -14   2   20.56    0.78
   0 -14  -2   19.44    0.52
   0 -14  -2   19.38    0.52
   0 -14   2   19.15    0.71
   0 -14   2   22.85    0.83
   0 -14  -2   19.39    0.78
   0 -14   2   19.43    0.74
   0  14   2   19.98    0.74
   0  14  -2   19.18    0.80
   0  14   2   19.32    0.75
   0  14  -2   18.96    0.72
   0  14   2   18.05    0.72
   0  14  -2   19.07    0.76
   1 -14   2   80.84    2.32
  -1 -14  -2   83.49    2.27
  -1 -14  -2   80.62    2.33
   1 -14   2   81.07    2.38
  -1 -14  -2   80.74    2.37
   1 -14   2   80.54    2.30
   1 -14   2   85.88    2.29
   1  14   2   86.81    2.36
  -1  14  -2   83.43    2.36
   1  14   2   82.97    2.30
  -1  14  -2   84.31    2.33
  -1  14  -2   82.17    2.32
   1  14   2   84.65    2.30
   2 -14   2    6.90    0.55
   2 -14   2    6.87    0.47
  -2 -14  -2    6.58    0.23
  -2 -14  -2    6.82    0.21
  -2 -14  -2    7.00    0.57
   2 -14   2    6.66    0.48
   2 -14   2    6.37    0.58
  -2 -14  -2    6.26    0.42
   2  14   2    6.45    0.50
  -2  14  -2    6.67    0.46
  -2  14  -2    5.92    0.51
   2  14   2    7.21    0.50
   2  14   2    6.30    0.58
   2  14   2    7.21    0.47
   3 -14   2   30.07    1.10
   3 -14   2   28.33    1.31
  -3 -14  -2   30.89    0.91
  -3 -14  -2   30.34    1.27
  -3  14  -2   30.30    1.03
   3  14   2   31.10    1.09
   3  14   2   31.95    0.89
   3  14   2   29.21    1.10
  -3  14  -2   31.86    1.21
  -4 -14  -2    6.21    0.48
   4 -14   2    7.48    0.87
   4 -14   2    5.79    0.65
  -4 -14  -2    6.70    0.49
   4  14   2    6.47    0.55
   4  14   2    4.82    0.63
  -4  14  -2    6.24    0.67
  -4  14  -2    6.83    0.50
   4  14   2    6.60    0.42
   5 -14   2   10.08    0.79
   5 -14   2    9.63    1.12
  -5 -14  -2   10.83    1.00
   5  14   2   10.97    0.78
  -5  14  -2   10.59    0.88
   5  14   2   11.69    0.66
  -6 -15   2   30.89    1.58
   6 -15  -2   30.99    1.60
  -6  15   2   33.49    1.27
  -6  15   2   33.32    1.42
   6  15  -2   32.67    1.30
   6  15  -2   34.33    1.46
   5 -15  -2    0.78    0.46
   5 -15  -2    0.67    0.20
  -5 -15   2    0.01    0.42
   5  15  -2    0.63    0.31
   5  15  -2    0.28    0.40
  -5  15   2    1.01    0.40
   4 -15  -2   38.98    1.46
   4 -15  -2   38.18    1.05
  -4 -15   2   38.08    1.51
  -4  15   2   33.48    1.53
   4  15  -2   38.17    1.28
   4  15  -2   37.54    1.01
   4  15  -2   37.19    1.01
  -4  15   2   36.29    1.44
   3 -15  -2    1.97    0.36
  -3 -15   2    2.07    0.33
   3 -15  -2    1.49    0.34
   3 -15  -2    1.60    0.20
  -3 -15   2    1.60    0.38
   3 -15  -2    1.84    0.22
  -3 -15   2    1.33    0.38
  -3  15   2    1.63    0.28
  -3  15   2    1.51    0.34
   3  15  -2    1.83    0.23
  -3  15   2    1.84    0.29
   3  15  -2    1.93    0.28
   3  15  -2    1.48    0.33
   2 -15  -2   40.42    1.32
  -2 -15   2   39.97    1.30
   2 -15  -2   40.13    1.27
  -2 -15   2   37.69    1.35
  -2 -15   2   38.56    1.17
  -2 -15   2   39.32    1.41
   2 -15  -2   40.09    1.32
   2 -15  -2   40.51    1.16
  -2  15   2   41.23    1.19
   2  15  -2   40.68    1.35
  -2  15   2   40.48    1.14
  -2  15   2   40.54    1.34
   2  15  -2   39.56    1.14
   2  15  -2   38.22    1.37
  -2  15   2   41.38    1.27
   1 -15  -2    0.91    0.20
  -1 -15   2    0.81    0.24
   1 -15  -2    1.40    0.26
  -1 -15   2    0.96    0.22
  -1 -15   2    0.70    0.29
  -1 -15   2    0.92    0.26
   1 -15  -2    1.07    0.26
   1 -15  -2    1.16    0.19
  -1 -15   2    1.15    0.21
   1  15  -2    0.81    0.18
  -1  15   2    1.25    0.26
  -1  15   2    0.83    0.18
   1  15  -2    0.67    0.22
  -1  15   2    0.78    0.21
  -1  15   2    0.83    0.14
   1  15  -2    1.06    0.28
   0 -15   2    2.68    0.36
   0 -15   2    1.94    0.26
   0 -15  -2    1.93    0.15
   0 -15  -2    1.96    0.14
   0 -15  -2    2.21    0.30
   0 -15   2    2.66    0.35
   0 -15  -2    2.32    0.33
   0 -15   2    2.09    0.29
   0 -15  -2    1.86    0.29
   0 -15   2    1.95    0.31
   0  15  -2    1.73    0.31
   0  15   2    2.35    0.29
   0  15   2    2.39    0.30
   0  15   2    1.89    0.27
   0  15  -2    1.81    0.26
   0  15  -2    1.82    0.30
  -1 -15  -2    2.83    0.39
   1 -15   2    3.04    0.41
  -1 -15  -2    2.09    0.30
   1 -15   2    2.93    0.39
   1 -15   2    3.69    0.39
   1 -15   2    2.84    0.34
  -1 -15  -2    3.22    0.37
   1  15   2    2.75    0.37
   1  15   2    2.77    0.35
  -1  15  -2    4.12    0.42
  -1  15  -2    2.71    0.35
   1  15   2    2.64    0.33
  -1  15  -2    3.03    0.39
  -1  15  -2    3.90    0.42
  -2 -15  -2   19.46    0.75
  -2 -15  -2   19.90    0.93
   2 -15   2   20.52    0.82
   2 -15   2   19.66    0.81
   2 -15   2   18.77    0.86
   2 -15   2   18.06    0.94
   2  15   2   18.69    0.89
   2  15   2   19.54    0.84
   2  15   2   19.38    0.80
  -2  15  -2   20.23    0.87
   2  15   2   18.22    0.81
  -2  15  -2   19.31    0.79
   3 -15   2    7.92    0.76
  -3 -15  -2    9.21    0.80
  -3 -15  -2    8.90    0.40
   3 -15   2    9.32    0.60
  -3  15  -2    9.21    0.56
  -3  15  -2    9.10    0.67
   3  15   2    9.32    0.59
   3  15   2   10.37    0.39
   3  15   2   10.42    0.64
   4 -15   2   14.02    1.09
  -4  15  -2   16.45    0.74
  -4  15  -2   14.59    0.91
   4  15   2   16.32    0.79
   4  15   2   15.55    0.62
   4  15   2   15.86    0.80
   5 -15   2    1.06    0.42
  -5 -15  -2    0.27    0.55
   5 -15   2    1.14    0.66
   5  15   2    0.34    0.36
  -5  15  -2    0.36    0.45
   6 -16  -2   -0.22    0.59
  -6 -16   2    0.25    0.64
  -6  16   2    1.27    0.40
   6  16  -2    0.76    0.42
  -6  16   2   -0.51    0.39
   6  16  -2    0.47    0.50
  -5 -16   2    0.98    0.49
   5 -16  -2    0.27    0.43
  -5  16   2    0.30    0.38
   5  16  -2    0.62    0.31
   5  16  -2    0.43    0.42
   4 -16  -2    1.76    0.45
   4 -16  -2    1.62    0.22
  -4 -16   2    1.79    0.52
   4 -16  -2    1.96    0.23
  -4  16   2    2.24    0.43
   4  16  -2    1.62    0.44
   4  16  -2    1.86    0.25
   4  16  -2    1.81    0.32
  -4  16   2    1.77    0.35
   3 -16  -2   56.92    1.83
  -3 -16   2   59.20    1.58
  -3 -16   2   55.55    1.85
   3 -16  -2   59.68    1.56
  -3 -16   2   58.06    1.96
   3 -16  -2   57.17    1.57
   3  16  -2   57.51    1.56
   3  16  -2   58.76    1.91
  -3  16   2   59.12    1.75
  -3  16   2   57.51    1.72
  -3  16   2   58.21    1.85
   3  16  -2   58.21    1.72
   2 -16  -2    0.57    0.19
   2 -16  -2    0.54    0.22
   2 -16  -2    0.77    0.28
  -2 -16   2    0.65    0.32
  -2 -16   2    0.81    0.18
  -2 -16   2    1.48    0.33
   2  16  -2    0.45    0.25
  -2  16   2    1.22    0.20
  -2  16   2    0.53    0.22
  -2  16   2    0.96    0.26
   2  16  -2    0.44    0.26
   2  16  -2    0.73    0.16
  -1 -16   2  118.53    3.17
   1 -16  -2  119.12    3.21
   1 -16  -2  117.75    3.12
  -1 -16   2  121.79    3.10
  -1 -16   2  120.73    3.19
  -1 -16   2  117.24    3.28
  -1 -16   2  108.18    3.22
   1 -16  -2  117.64    3.06
   1 -16  -2  116.52    3.21
   1  16  -2  117.72    3.10
  -1  16   2  126.37    3.11
  -1  16   2  116.52    2.99
  -1  16   2  117.47    3.16
   1  16  -2  114.86    3.26
   1  16  -2  120.51    3.23
  -1  16   2  117.94    3.22
   0 -16   2    3.76    0.38
   0 -16  -2    4.16    0.42
   0 -16  -2    4.49    0.43
   0 -16   2    4.68    0.45
   0 -16   2    4.15    0.42
   0 -16  -2    4.80    0.21
   0 -16  -2    3.63    0.20
   0 -16  -2    5.16    0.44
   0  16   2    4.19    0.40
   0  16  -2    3.88    0.43
   0  16   2    3.79    0.40
   0  16   2    3.84    0.38
   0  16  -2    2.68    0.35
   0  16  -2    3.64    0.36
   1 -16   2  112.70    3.18
  -1 -16  -2  113.71    3.19
  -1 -16  -2  116.10    3.25
  -1 -16  -2  117.71    3.14
   1 -16   2  125.26    3.46
   1 -16   2  112.05    3.15
   1 -16   2  118.76    3.25
  -1  16  -2  115.39    3.19
  -1  16  -2  118.29    3.21
  -1  16  -2  115.01    3.18
  -1  16  -2  116.37    3.19
   1  16   2  116.97    3.16
   1  16   2  117.29    3.17
   1  16   2  122.01    3.22
   2 -16   2    1.57    0.36
   2 -16   2    2.54    0.47
  -2 -16  -2    1.82    0.28
   2 -16   2    1.74    0.33
  -2 -16  -2    1.35    0.36
   2  16   2    1.83    0.34
  -2  16  -2    1.37    0.30
   2  16   2    2.02    0.30
  -2  16  -2    1.92    0.35
   3 -16   2   17.37    1.07
  -3 -16  -2   19.70    0.80
  -3 -16  -2   20.61    0.63
   3 -16   2   18.02    1.00
  -3  16  -2   21.42    0.84
   3  16   2   20.83    0.86
  -3  16  -2   20.54    0.98
   3  16   2   17.66    0.88
   4 -16   2    8.37    0.97
  -4 -16  -2    7.16    0.85
  -4  16  -2    7.01    0.59
   4  16   2    8.07    0.43
  -4  16  -2    7.12    0.73
   4  16   2    8.25    0.66
   4  16   2    6.85    0.59
  -5 -16  -2   -0.30    0.61
   5 -16   2   -0.35    0.40
   5 -16   2    0.19    0.65
  -5  16  -2   -0.05    0.43
   5  16   2   -0.28    0.37
   6 -17  -2   21.14    1.43
  -6 -17   2   19.61    1.43
  -6  17   2   20.54    1.20
   6  17  -2   21.30    1.03
   6  17  -2   21.49    1.30
  -6  17   2   21.76    1.06
   5 -17  -2    1.17    0.51
  -5 -17   2    1.22    0.52
  -5  17   2    0.99    0.34
  -5  17   2    0.81    0.40
   5  17  -2    0.97    0.35
   5  17  -2    1.40    0.48
   4 -17  -2   40.78    1.76
   4 -17  -2   41.70    1.16
  -4 -17   2   39.88    1.63
   4 -17  -2   40.81    1.15
  -4  17   2   39.90    1.50
   4  17  -2   38.46    1.54
   4  17  -2   40.19    1.12
   4  17  -2   40.54    1.35
   4  17  -2   41.64    1.14
   3 -17  -2    0.51    0.18
   3 -17  -2    0.42    0.29
   3 -17  -2    0.31    0.19
  -3 -17   2    0.01    0.35
  -3 -17   2    0.27    0.19
  -3 -17   2    0.04    0.35
  -3  17   2   -0.30    0.23
   3  17  -2    0.01    0.21
   3  17  -2    0.28    0.16
  -2 -17   2   43.41    1.62
  -2 -17   2   51.23    1.46
   2 -17  -2   52.58    1.57
  -2 -17   2   51.01    1.54
  -2 -17   2   50.85    1.74
   2 -17  -2   51.16    1.46
  -2  17   2   51.55    1.57
   2  17  -2   52.13    1.72
  -2  17   2   44.83    1.54
  -2  17   2   53.76    1.46
   2  17  -2   52.35    1.45
  -2  17   2   51.36    1.64
   1 -17  -2    5.35    0.42
  -1 -17   2    5.84    0.55
  -1 -17   2    4.89    0.53
   1 -17  -2    5.26    0.47
   1 -17  -2    5.58    0.35
  -1 -17   2    5.84    0.41
  -1 -17   2    4.54    0.46
  -1 -17   2    5.79    0.46
  -1  17   2    5.26    0.44
  -1  17   2    5.48    0.38
  -1  17   2    5.21    0.31
   1  17  -2    5.54    0.39
  -1  17   2    5.08    0.44
   1  17  -2    5.30    0.53
   1  17  -2    5.42    0.48
   0 -17  -2   14.10    0.69
   0 -17   2   14.80    0.69
   0 -17   2   15.20    0.77
   0 -17  -2   14.27    0.44
   0 -17   2   14.57    0.69
   0 -17   2   14.44    0.66
   0 -17  -2   14.08    0.72
   0 -17  -2   14.63    0.46
   0 -17   2   16.53    0.75
   0 -17  -2   14.66    0.70
   0  17   2   14.07    0.65
   0  17   2   14.27    0.67
   0  17  -2   14.39    0.66
   0  17   2   14.41    0.69
   0  17  -2   14.23    0.74
   0  17  -2   13.35    0.70
  -1 -17  -2   14.16    0.68
  -1 -17  -2   12.27    0.74
   1 -17   2   13.02    0.71
   1 -17   2   13.13    0.68
  -1 -17  -2   12.44    0.71
   1 -17   2   13.54    0.74
  -1  17  -2   13.36    0.71
   1  17   2   13.58    0.71
  -1  17  -2   13.25    0.69
   1  17   2   13.11    0.68
   1  17   2   14.00    0.67
  -1  17  -2   13.53    0.71
   2 -17   2    2.30    0.37
  -2 -17  -2    2.17    0.41
  -2 -17  -2    2.78    0.37
   2 -17   2    1.85    0.44
  -2  17  -2    2.64    0.38
  -2  17  -2    3.74    0.49
   2  17   2    2.20    0.37
   2  17   2    2.68    0.36
  -3 -17  -2    0.82    0.17
   3 -17   2    0.74    0.30
   3 -17   2    0.06    0.39
  -3  17  -2    1.03    0.30
  -3  17  -2    0.96    0.36
   3  17   2    0.86    0.32
   3  17   2    0.63    0.27
   4 -17   2   28.30    1.52
   4 -17   2   29.53    1.46
  -4 -17  -2   30.53    1.46
  -4  17  -2   30.63    1.34
   4  17   2   31.83    1.25
  -4  17  -2   28.93    1.12
   4  17   2   31.47    1.18
   5 -17   2    1.02    0.72
  -5 -17  -2    1.14    0.56
   5 -17   2    1.87    0.47
  -5  17  -2   -0.46    0.46
   5  17   2    1.32    0.45
  -6 -18   2    2.11    0.76
   6 -18  -2    3.99    0.83
  -6  18   2    3.83    0.56
   6  18  -2    4.42    0.75
   6  18  -2    5.08    0.69
  -6  18   2    2.82    0.61
   5 -18  -2    0.14    0.44
  -5 -18   2    1.48    0.54
   5  18  -2    0.51    0.32
  -5  18   2    0.55    0.42
  -5  18   2    0.94    0.38
   5  18  -2    1.54    0.53
   4 -18  -2   -0.02    0.24
  -4 -18   2   -0.13    0.45
   4 -18  -2    0.26    0.40
   4 -18  -2    0.25    0.20
   4  18  -2    0.07    0.15
  -4  18   2    0.61    0.34
   4  18  -2    0.67    0.28
   4  18  -2    0.12    0.21
   4  18  -2   -0.12    0.36
   3 -18  -2   27.76    1.12
   3 -18  -2   27.92    0.89
   3 -18  -2   28.46    0.89
  -3 -18   2   28.22    0.91
   3  18  -2   26.85    0.99
   3  18  -2   26.72    1.21
  -3  18   2   27.52    1.14
   3  18  -2   27.32    0.87
  -3  18   2   26.04    0.97
  -3  18   2   27.37    1.06
   2 -18  -2    1.63    0.30
  -2 -18   2    1.67    0.38
  -2 -18   2    1.86    0.25
   2 -18  -2    1.25    0.25
  -2  18   2    0.99    0.28
   2  18  -2    1.30    0.22
   2  18  -2    1.60    0.39
  -2  18   2    1.47    0.31
  -1 -18   2   94.44    2.52
  -1 -18   2   93.69    2.57
   1 -18  -2   91.71    2.54
  -1 -18   2   91.24    2.65
  -1 -18   2   91.91    2.72
   1 -18  -2   93.61    2.46
  -1  18   2   96.31    2.51
  -1  18   2   91.53    2.57
  -1  18   2   93.93    2.64
  -1  18   2   78.69    2.57
   1  18  -2   94.58    2.52
   1  18  -2   94.15    2.71
   0 -18  -2    4.46    0.26
   0 -18  -2    4.34    0.46
   0 -18   2    6.25    0.49
   0 -18   2    4.56    0.44
   0 -18  -2    4.90    0.51
   0 -18  -2    5.28    0.25
   0 -18   2    4.93    0.55
   0 -18   2    5.13    0.48
   0  18   2    4.29    0.46
   0  18  -2    4.30    0.50
   0  18  -2    4.85    0.44
   0  18   2    4.99    0.46
   0  18  -2    4.75    0.52
   0  18   2    4.99    0.45
   1 -18   2  163.72    4.35
  -1 -18  -2  161.06    4.39
  -1 -18  -2  155.21    4.30
   1 -18   2  166.74    4.39
   1  18   2  164.50    4.32
  -1  18  -2  161.08    4.33
  -1  18  -2  158.66    4.34
   1  18   2  165.92    4.36
   1  18   2  163.18    4.31
  -1  18  -2  166.82    4.51
   2 -18   2    2.57    0.48
   2 -18   2    4.35    0.49
  -2 -18  -2    3.58    0.55
  -2 -18  -2    2.88    0.47
  -2  18  -2    3.87    0.53
  -2  18  -2    3.34    0.43
   2  18   2    4.02    0.46
   2  18   2    3.26    0.44
   3 -18   2   43.46    1.48
  -3 -18  -2   41.43    1.14
  -3 -18  -2   42.53    1.66
  -3 -18  -2   41.86    1.09
   3 -18   2   39.42    1.69
  -3  18  -2   43.69    1.58
   3  18   2   37.66    1.46
  -3  18  -2   42.61    1.41
   3  18   2   42.41    1.44
   4 -18   2    1.49    0.43
  -4 -18  -2    1.57    0.56
   4 -18   2    1.16    0.59
   4  18   2    1.99    0.40
  -4  18  -2    1.44    0.46
   4  18   2    2.26    0.49
  -4  18  -2    1.43    0.39
   5 -18   2    7.55    0.84
   5  18   2    7.05    0.77
   5 -19  -2   11.89    1.02
  -5 -19   2    9.86    1.09
   5  19  -2   11.34    1.06
   5  19  -2   12.51    0.76
  -5  19   2   13.10    0.82
  -5  19   2   11.70    0.94
   4 -19  -2   64.67    2.18
  -4 -19   2   62.98    2.30
   4 -19  -2   64.45    1.76
  -4  19   2   66.67    2.16
   4  19  -2   64.36    2.22
   4  19  -2   63.86    1.73
  -3 -19   2    1.65    0.28
   3 -19  -2    1.37    0.37
   3 -19  -2    1.64    0.28
   3  19  -2    1.39    0.23
  -3  19   2    1.67    0.41
   3  19  -2    1.41    0.43
  -3  19   2    1.38    0.32
   2 -19  -2   26.38    0.94
  -2 -19   2   26.21    1.00
  -2 -19   2   26.60    0.93
  -2 -19   2   23.56    1.11
   2 -19  -2   26.86    1.01
  -2  19   2   26.14    0.88
   2  19  -2   27.26    1.19
   2  19  -2   27.78    0.91
  -2  19   2   28.04    1.24
  -2  19   2   27.26    0.91
  -1 -19   2   22.16    1.03
   1 -19  -2   21.59    0.88
   1 -19  -2   22.43    0.79
  -1 -19   2   21.76    0.98
  -1 -19   2   22.61    0.85
  -1 -19   2   21.80    0.88
  -1  19   2   20.74    0.92
   1  19  -2   22.38    0.84
   1  19  -2   22.11    1.04
  -1  19   2   21.74    0.93
  -1  19   2   22.95    0.76
  -1  19   2   23.20    0.94
   0 -19  -2    5.71    0.30
   0 -19  -2    6.03    0.28
   0 -19   2    6.38    0.51
   0 -19  -2    5.46    0.53
   0 -19   2    6.04    0.58
   0 -19   2    6.70    0.57
   0 -19   2    4.64    0.50
   0  19   2    5.75    0.53
   0  19  -2    5.51    0.57
   0  19  -2    5.11    0.47
   0  19   2    5.75    0.50
   1 -19   2    5.91    0.60
   1 -19   2    7.56    0.62
  -1 -19  -2    6.66    0.62
   1  19   2    6.65    0.54
   1  19   2    6.73    0.59
  -1  19  -2    6.67    0.59
  -1  19  -2    6.56    0.56
   1  19   2    6.93    0.55
  -2 -19  -2   19.66    1.02
   2 -19   2   19.99    0.99
   2 -19   2   19.94    1.05
  -2  19  -2   18.67    0.90
  -2  19  -2   19.59    0.96
   2  19   2   19.37    0.92
   2  19   2   18.90    0.88
  -3 -19  -2    9.37    0.85
   3 -19   2    8.58    0.90
  -3  19  -2    9.77    0.80
   3  19   2    7.93    0.63
  -3  19  -2    9.45    0.67
   3  19   2    7.54    0.71
   4 -19   2   24.72    1.13
   4 -19   2   21.96    1.46
  -4 -19  -2   23.87    1.35
   4  19   2   24.93    1.07
   4  19   2   21.11    1.17
  -4  19  -2   24.10    1.06
  -4  19  -2   25.26    1.28
  -5 -20   2    6.71    0.92
   5 -20  -2    6.18    0.83
  -5  20   2    5.56    0.72
  -5  20   2    5.21    0.68
   5  20  -2    6.46    0.81
   5  20  -2    7.31    0.63
   4 -20  -2    0.59    0.45
  -4 -20   2    0.69    0.53
   4 -20  -2    0.05    0.29
   4  20  -2    0.44    0.22
  -4  20   2   -0.13    0.33
   4  20  -2    0.21    0.38
  -4  20   2    0.73    0.39
   4  20  -2    0.89    0.32
   3 -20  -2   26.29    0.93
   3 -20  -2   27.56    1.16
  -3 -20   2   29.88    1.06
  -3 -20   2   26.11    0.97
   3 -20  -2   26.61    0.94
  -3  20   2   27.36    1.17
   3  20  -2   25.31    1.27
   3  20  -2   26.68    0.89
  -2 -20   2    6.25    0.50
  -2 -20   2    6.09    0.54
   2 -20  -2    6.45    0.52
   2 -20  -2    6.43    0.50
  -2  20   2    7.40    0.49
  -2  20   2    5.93    0.43
   2  20  -2    7.11    0.46
  -2  20   2    7.13    0.61
   1 -20  -2  131.81    3.61
  -1 -20   2  135.38    3.62
  -1 -20   2  131.77    3.72
  -1 -20   2  138.54    3.81
  -1 -20   2  132.96    3.57
   1 -20  -2  135.18    3.51
   1  20  -2  132.57    3.58
  -1  20   2  136.66    3.57
  -1  20   2  134.29    4.10
  -1  20   2  138.44    3.45
   0 -20  -2   13.70    0.50
   0 -20   2   14.56    0.73
   0 -20   2   16.68    0.76
   0 -20  -2   14.90    0.48
   0 -20  -2   14.42    0.76
   0  20  -2   13.30    1.02
   0  20   2   13.41    0.85
   0  20  -2   13.43    0.70
   0  20   2   13.74    0.75
   1 -20   2    8.93    0.82
   1 -20   2   10.45    0.72
  -1 -20  -2   11.22    0.76
  -1  20  -2   10.74    0.68
   1  20   2   10.54    0.76
   2 -20   2   21.24    1.11
   2 -20   2   21.64    1.01
  -2  20  -2   21.14    1.02
   2  20   2   20.69    0.93
   3 -20   2   17.80    1.17
  -3 -20  -2   18.82    1.09
   3  20   2   17.96    0.88
  -3  20  -2   14.86    1.12
   3  20   2   17.81    0.99
  -3  20  -2   18.04    1.04
   4 -20   2    1.42    0.47
  -4 -20  -2    0.91    0.50
   4 -20   2    0.34    0.62
  -4  20  -2    2.09    0.57
   4  20   2    1.03    0.53
  -4  20  -2    0.47    0.42
   4  20   2    1.19    0.40
   5 -21  -2   10.07    1.06
  -5 -21   2    9.44    1.19
  -5  21   2   10.06    1.00
   5  21  -2   11.14    0.76
   5  21  -2    9.44    1.10
  -5  21   2    8.85    0.83
   4 -21  -2   33.92    1.48
  -4 -21   2   32.33    1.63
   4  21  -2   34.10    1.57
  -4  21   2   36.05    1.48
  -4  21   2   34.16    1.34
   3 -21  -2   24.38    0.94
   3 -21  -2   25.97    0.92
  -3 -21   2   23.08    0.96
  -3 -21   2   27.15    1.04
   3 -21  -2   26.39    1.14
  -3  21   2   26.62    1.14
  -3  21   2   25.87    1.17
   3  21  -2   26.09    0.88
   3  21  -2   24.44    1.28
   2 -21  -2   17.54    0.78
   2 -21  -2   18.25    0.83
  -2 -21   2   17.11    0.82
  -2 -21   2   17.98    0.78
  -2  21   2   16.77    0.70
  -2  21   2   18.65    0.93
   2  21  -2   17.85    0.74
  -2  21   2   19.32    1.10
   1 -21  -2    7.61    0.47
  -1 -21   2    7.78    0.57
  -1 -21   2    6.90    0.55
   1 -21  -2    8.46    0.61
  -1 -21   2    8.20    0.75
  -1  21   2    7.67    0.61
   1  21  -2    7.77    0.53
  -1  21   2    7.41    0.61
  -1  21   2    8.15    0.43
   0 -21   2    3.90    0.51
   0 -21  -2    3.05    0.28
   0 -21  -2    3.26    0.27
   0 -21   2    2.52    0.45
   0 -21  -2    3.18    0.45
   0  21   2    3.49    0.44
   0  21   2    3.71    0.46
   0  21  -2    3.34    0.49
   0  21  -2    2.96    0.39
   1 -21   2   17.38    0.93
   1 -21   2   17.55    0.89
  -1  21  -2   16.39    0.89
   1  21   2   17.95    0.86
  -1  21  -2   16.17    0.91
   1  21   2   17.38    0.88
   2 -21   2    8.93    0.82
   2  21   2    9.47    0.64
  -2  21  -2    8.07    0.72
   2  21   2   10.13    0.76
  -2  21  -2    8.70    0.73
   3 -21   2    4.53    0.56
   3 -21   2    5.02    0.72
  -3 -21  -2    5.43    0.73
   3  21   2    5.42    0.59
   3  21   2    4.82    0.63
  -3  21  -2    4.98    0.64
   4 -21   2   16.95    1.41
  -4 -21  -2   18.85    1.33
   4 -21   2   19.39    1.10
  -4  21  -2   20.14    1.23
   4  21   2   17.16    1.17
   4  21   2   19.09    1.00
   5 -22  -2    0.68    0.61
  -5 -22   2    1.41    0.74
  -5  22   2    1.74    0.45
  -5  22   2    0.59    0.53
   5  22  -2    1.19    0.41
   5  22  -2    0.68    0.60
  -4 -22   2    1.04    0.64
   4 -22  -2    1.30    0.52
  -4  22   2    1.03    0.47
  -4  22   2    1.19    0.40
   4  22  -2    0.08    0.52
   3 -22  -2    8.23    0.74
   3 -22  -2    8.73    0.58
  -3 -22   2    8.73    0.68
   3  22  -2    9.11    0.54
  -3  22   2    7.91    0.75
  -3  22   2   10.31    0.72
   3  22  -2    8.43    0.90
   2 -22  -2   14.28    0.76
   2 -22  -2   15.49    0.75
  -2 -22   2   16.99    0.81
  -2 -22   2   13.96    0.75
  -2  22   2   14.83    0.86
  -2  22   2   14.51    0.67
  -2  22   2   16.02    0.73
   2  22  -2   15.38    0.70
   1 -22  -2    3.07    0.41
   1 -22  -2    2.44    0.33
  -1 -22   2    2.61    0.39
  -1 -22   2    2.12    0.36
  -1  22   2    2.66    0.44
   1  22  -2    1.86    0.33
  -1  22   2    2.99    0.33
   0 -22   2   28.21    1.11
   0 -22  -2   26.70    0.79
   0 -22  -2   26.52    1.14
   0 -22  -2   23.39    0.92
   0  22   2   27.73    1.14
   0  22  -2   27.50    1.07
   0  22   2   27.91    1.12
   1 -22   2   57.78    1.87
  -1 -22  -2   53.98    1.91
  -1  22  -2   55.02    1.83
   1  22   2   53.79    1.82
   1  22   2   57.31    1.82
  -2 -22  -2   10.07    0.88
   2 -22   2    8.49    0.85
   2  22   2   10.15    0.71
   2  22   2    9.18    0.78
  -2  22  -2    8.51    0.76
   3 -22   2   31.91    1.35
   3 -22   2   32.72    1.61
  -3 -22  -2   30.69    1.52
  -3  22  -2   32.04    1.43
   3  22   2   30.92    1.25
   3  22   2   30.03    1.40
   4 -22   2    3.03    0.61
  -4 -22  -2    3.32    0.72
   4 -22   2    1.73    0.77
  -4  22  -2    3.76    0.65
  -4  22  -2    2.96    0.57
   4  22   2    2.07    0.47
   4  22   2    1.64    0.62
  -4 -23   2   14.29    1.29
   4 -23  -2   17.47    1.12
  -4 -23   2   16.32    0.88
  -4  23   2   14.97    0.95
  -4  23   2   15.35    1.08
   4  23  -2   12.46    1.19
  -3 -23   2   18.90    1.23
   3 -23  -2   19.62    1.03
  -3 -23   2   18.57    0.94
   3 -23  -2   18.57    0.84
  -3  23   2   18.83    1.01
   3  23  -2   19.12    0.79
  -3  23   2   20.48    1.10
   3  23  -2   18.50    1.21
  -2 -23   2    1.55    0.37
  -2 -23   2    1.34    0.41
   2 -23  -2    2.33    0.41
  -2 -23   2    1.00    0.52
   2 -23  -2    2.18    0.41
  -2  23   2    2.38    0.45
   2  23  -2    2.39    0.34
  -2  23   2    2.33    0.36
  -1 -23   2   20.32    0.88
  -1 -23   2   15.00    1.53
   1 -23  -2   20.61    0.80
   1 -23  -2   21.03    0.95
   1  23  -2   20.01    0.87
  -1  23   2   20.08    0.99
   0 -23   2    0.13    0.31
   0 -23  -2    0.71    0.19
   0 -23  -2    0.43    0.38
   0  23  -2    0.24    0.30
   0  23   2    0.19    0.28
   0  23   2    0.18    0.32
   1 -23   2    1.59    0.44
   1  23   2    0.97    0.33
   1  23   2    1.60    0.39
  -1  23  -2    1.27    0.38
   2 -23   2    1.31    0.44
   2 -23   2    0.45    0.45
  -2 -23  -2    0.55    0.48
   2  23   2    0.37    0.34
   2  23   2    0.71    0.42
  -2  23  -2    1.02    0.40
  -2  23  -2    1.19    0.44
   3 -23   2   14.34    0.95
  -3 -23  -2   12.46    1.09
   3 -23   2   13.16    1.15
  -3  23  -2   10.64    0.98
   3  23   2   11.11    1.02
   3  23   2    9.96    0.77
  -3  23  -2   10.64    0.89
  -4 -24   2    1.78    0.50
   4 -24  -2    2.02    0.59
  -4 -24   2    0.36    0.69
  -4  24   2    0.79    0.54
  -4  24   2    1.46    0.51
   4  24  -2    0.67    0.65
  -3 -24   2   14.07    1.11
   3 -24  -2   13.86    0.94
   3 -24  -2   12.46    0.79
  -3 -24   2   12.52    0.82
  -3  24   2   12.53    0.87
  -3  24   2   13.46    0.97
   3  24  -2   11.96    1.08
   3  24  -2   14.20    0.70
  -2 -24   2   16.53    0.83
  -2 -24   2   16.31    1.13
   2 -24  -2   16.03    0.86
   2 -24  -2   16.07    0.86
  -2 -24   2   16.01    0.94
  -2  24   2   15.61    0.92
  -2  24   2   16.21    0.92
   2  24  -2   13.93    1.06
   2  24  -2   16.84    0.78
   1 -24  -2   24.34    0.92
  -1 -24   2   23.54    1.02
   1 -24  -2   26.02    1.10
  -1 -24   2   25.41    1.24
   1  24  -2   24.43    1.02
  -1  24   2   24.90    1.13
   0 -24   2   36.51    1.50
   0 -24   2   37.40    1.33
   0 -24  -2   30.15    1.55
   0  24  -2   34.09    1.45
   0  24   2   34.62    1.37
   0  24  -2   36.47    1.33
   0  24   2   35.66    1.37
   1 -24   2   20.33    1.06
   1 -24   2   18.43    1.08
  -1  24  -2   18.79    0.99
   1  24   2   19.55    1.01
   1  24   2   18.56    0.97
  -1  24  -2   18.39    1.02
   2 -24   2   15.22    1.02
   2 -24   2   16.02    1.07
  -2 -24  -2   16.34    1.12
  -2  24  -2   15.24    0.98
   2  24   2   17.15    0.94
   2  24   2   17.04    1.05
  -2  24  -2   16.38    0.99
   3 -24   2   17.16    1.26
   3 -24   2   15.63    1.08
  -3 -24  -2   18.02    1.28
  -3  24  -2   14.46    1.11
  -3  24  -2   14.82    1.02
   3  24   2   14.32    1.15
   3  24   2   17.10    0.95
   4 -25  -2   12.05    1.09
  -4 -25   2   13.37    1.60
  -4 -25   2   12.17    0.88
   4  25  -2   10.93    1.29
  -4  25   2    9.74    1.02
  -4  25   2   12.13    0.95
  -3 -25   2   16.04    1.22
  -3 -25   2   15.83    0.90
   3 -25  -2   14.98    1.16
  -3  25   2   14.04    1.00
   3  25  -2   11.36    1.14
  -3  25   2   13.01    0.94
  -2 -25   2    2.52    0.69
  -2 -25   2    3.36    0.49
   2 -25  -2    3.13    0.51
   2 -25  -2    3.38    0.52
   2  25  -2    3.37    0.43
  -2  25   2    2.97    0.47
  -2  25   2    2.91    0.51
   2  25  -2    2.06    0.55
  -1 -25   2    7.13    0.91
  -1 -25   2    9.08    0.67
   1 -25  -2    7.74    0.77
   1 -25  -2    8.83    0.59
   1  25  -2    7.50    0.65
  -1  25   2    8.27    0.78
  -1  25   2    8.18    0.74
   1  25  -2    7.94    0.86
   0 -25   2    0.85    0.49
   0 -25   2    1.33    0.39
   0  25   2    0.91    0.41
   0  25   2    0.71    0.38
   0  25  -2    0.94    0.35
   0  25  -2    0.42    0.44
   1 -25   2   -0.23    0.43
   1 -25   2    0.16    0.41
  -1 -25  -2    0.33    0.48
   1  25   2   -0.44    0.36
   1  25   2    0.41    0.36
  -1  25  -2   -0.24    0.41
  -1  25  -2   -0.20    0.35
  -2 -25  -2    0.93    0.55
   2 -25   2   -0.13    0.50
   2 -25   2   -0.06    0.48
   2  25   2    0.36    0.46
   2  25   2    0.11    0.37
  -2  25  -2    0.23    0.42
  -2  25  -2    0.41    0.43
   3 -25   2    6.85    0.92
  -3 -25  -2    6.26    0.89
   3 -25   2    7.42    1.08
   3  25   2    5.93    0.76
   3  25   2    6.46    0.83
  -3  25  -2    5.20    0.75
  -3  25  -2    7.19    0.88
  -3 -26   2    8.13    0.78
  -3 -26   2    9.90    1.21
   3 -26  -2    9.71    0.91
  -3  26   2    9.10    0.90
  -3  26   2    8.65    0.93
   3  26  -2    6.78    0.89
   2 -26  -2   21.77    1.05
   2 -26  -2   21.72    1.09
  -2 -26   2   19.88    1.28
  -2 -26   2   22.11    1.00
  -2  26   2   21.12    1.14
   2  26  -2   22.26    0.98
  -2  26   2   23.29    1.18
   2  26  -2   19.45    1.29
  -1 -26   2   14.03    1.12
   1 -26  -2   12.95    1.57
  -1 -26   2   15.48    0.83
  -1  26   2   14.17    0.97
   1  26  -2   14.45    1.07
  -1  26   2   14.49    0.94
   1  26  -2   14.23    0.82
   0 -26   2   46.79    1.82
   0 -26   2   47.79    1.64
   0  26   2   47.44    1.71
   0  26  -2   42.03    1.77
   0  26  -2   47.48    1.65
   0  26   2   45.72    1.71
   1 -26   2   13.54    0.94
   1 -26   2   14.79    1.03
  -1 -26  -2   16.59    1.10
  -1  26  -2   14.71    0.95
   1  26   2   12.91    0.87
  -1  26  -2   12.44    0.99
   1  26   2   13.54    0.97
   2 -26   2   23.40    1.26
  -2 -26  -2   22.33    1.35
   2 -26   2   24.51    1.35
   2  26   2   21.00    1.11
  -2  26  -2   23.13    1.22
  -2  26  -2   22.33    1.18
   2  26   2   23.23    1.23
  -3 -27   2   10.70    0.82
   3 -27  -2   10.06    0.97
  -3 -27   2   11.88    1.37
  -3  27   2   12.58    1.01
   3  27  -2    9.68    1.17
  -3  27   2   11.41    1.01
  -2 -27   2    3.21    0.50
   2 -27  -2    3.48    0.57
  -2 -27   2    2.51    0.65
   2  27  -2    2.61    0.66
  -2  27   2    2.93    0.56
  -2  27   2    3.61    0.57
  -1 -27   2    4.62    0.65
  -1 -27   2    5.16    0.80
   1  27  -2    4.46    0.69
  -1  27   2    4.91    0.63
  -1  27   2    4.49    0.59
   1  27  -2    4.01    0.50
   0 -27  -2    1.87    0.57
   0 -27   2    2.09    0.47
   0 -27   2    0.52    0.57
   0  27  -2    1.32    0.42
   0  27   2    0.94    0.46
   0  27   2    2.10    0.48
   0  27  -2    2.00    0.54
  -1 -27  -2    0.84    0.57
   1 -27   2    0.40    0.46
   1 -27   2    0.29    0.55
  -1  27  -2    0.54    0.42
   1  27   2    0.68    0.43
   1  27   2    1.49    0.51
  -1  27  -2    0.66    0.50
   2 -27   2    0.96    0.61
  -2 -27  -2    0.73    0.62
   2 -27   2    0.70    0.62
   2  27   2    1.64    0.53
  -2  27  -2    1.99    0.57
  -2 -28   2   12.86    0.83
  -2 -28   2   12.52    1.29
   2  28  -2   12.01    1.17
   2  28  -2   13.50    0.85
  -2  28   2   13.19    1.04
  -2  28   2   13.28    1.01
  -1 -28   2   15.23    0.91
  -1 -28   2   15.64    1.16
  -1  28   2   13.73    1.02
  -1  28   2   15.75    1.02
   1  28  -2   13.42    1.17
   1  28  -2   13.76    0.90
   0 -28   2   36.32    1.44
   0 -28   2   35.71    1.65
   0 -28  -2   38.60    1.67
   0  28   2   36.01    1.53
   0  28   2   37.91    1.54
   0  28  -2   37.45    1.49
   0  28  -2   34.99    1.60
   1 -28   2    0.55    0.63
   1 -28   2    1.10    0.53
  -1 -28  -2    1.62    0.66
   1  28   2    1.43    0.52
  -1  28  -2    0.31    0.44
  -1  28  -2    0.29    0.51
   1  28   2    0.79    0.44
  -2 -29   2    1.61    0.48
  -1 -29   2    7.54    0.98
  -1 -29   2    6.50    0.76
   1 -29  -2    6.95    0.81
   1  29  -2    6.68    1.14
   1  29  -2    6.97    0.79
  -1  29   2    7.03    0.89
   0 -29  -2    0.79    0.67
   0 -29   2    2.80    0.67
   0 -29   2    1.76    0.54
   0  29  -2    2.27    0.56
   0  29   2    2.10    0.52
   0  29   2    1.09    0.53
   0  29  -2    1.50    0.48
   1 -29   2    8.24    1.02
  -1 -29  -2    6.44    0.89
  -1  29  -2    7.62    1.01
   1  29   2    4.92    0.72
  -7   0   3    3.73    0.49
  -7   0   3    2.05    0.48
   7   0  -3    3.38    0.65
  -6   0   3   -0.35    0.19
   6   0  -3    0.67    0.34
   6   0  -3    0.24    0.38
  -6   0   3    0.26    0.29
  -6   0   3    0.17    0.25
   6   0  -3    0.22    0.24
  -5   0   3    2.06    0.32
   5   0  -3    2.21    0.30
   5   0  -3    2.17    0.54
   5   0  -3    2.24    0.27
  -5   0   3    2.05    0.28
  -5   0   3    2.15    0.25
  -5   0   3    1.71    0.36
   4   0  -3    0.14    0.14
   4   0  -3    0.26    0.24
  -4   0   3   -0.10    0.13
  -4   0   3   -0.06    0.10
   4   0  -3   -0.04    0.11
  -4   0   3    0.06    0.22
  -4   0   3   -0.10    0.18
  -4   0   3    0.33    0.24
   3   0  -3    7.17    0.44
  -3   0   3    6.82    0.44
  -3   0   3    7.72    0.48
  -3   0   3    7.32    0.34
   3   0  -3    7.66    0.30
  -3   0   3    7.36    0.48
   3   0  -3    7.47    0.32
  -2   0   3   -0.18    0.10
  -2   0   3   -0.25    0.11
   2   0  -3    0.03    0.08
   2   0  -3    0.12    0.08
  -2   0   3    0.12    0.14
  -2   0   3    0.18    0.14
   2   0  -3   -0.13    0.11
  -2   0   3    0.04    0.09
   1   0  -3    5.23    0.29
  -1   0   3    4.90    0.31
  -1   0   3    5.09    0.26
  -1   0   3    5.04    0.30
  -1   0   3    4.87    0.26
  -1   0   3    4.90    0.25
  -1   0   3    4.89    0.26
   0   0   3    0.10    0.10
   0   0  -3   -0.07    0.11
   0   0  -3    0.11    0.11
   0   0   3    0.09    0.11
   0   0   3    0.08    0.10
   0   0   3    0.06    0.12
   0   0   3    0.09    0.11
   0   0   3    0.20    0.10
  -1   0  -3  491.95   12.15
   1   0   3  493.50   12.12
   1   0   3  505.99   12.19
  -1   0  -3  481.55   12.16
  -1   0  -3  472.08   12.12
   1   0   3  500.32   12.15
   1   0   3  509.19   12.03
   2   0   3    0.12    0.15
   2   0   3    0.06    0.19
   2   0   3    0.15    0.17
  -2   0  -3    0.26    0.19
  -2   0  -3   -0.08    0.14
  -2   0  -3   -0.14    0.15
   3   0   3   41.50    1.53
  -3   0  -3   42.68    1.39
   3   0   3   41.85    1.38
  -3   0  -3   44.04    1.44
  -3   0  -3   42.23    1.32
   4   0   3   -0.50    0.27
  -4   0  -3   -0.26    0.28
  -4   0  -3    0.14    0.26
  -5   0  -3    2.80    0.52
   5   0   3    2.98    0.55
  -5   0  -3    3.04    0.48
  -6   0  -3    0.58    0.45
   6   0   3   -0.35    0.53
  -6   0  -3   -0.14    0.51
  -7  -1   3    0.89    0.39
   7  -1  -3   -0.11    0.47
  -7  -1   3    1.74    0.45
   7   1  -3    0.71    0.51
  -7   1   3    0.13    0.40
   6  -1  -3   63.51    1.89
   6  -1  -3   65.24    2.18
  -6  -1   3   65.54    1.76
  -6  -1   3   64.73    1.92
   6  -1  -3   62.81    1.83
  -6  -1   3   64.11    2.03
  -6   1   3   66.16    1.82
   6   1  -3   62.21    1.80
  -6   1   3   67.76    1.88
   6   1  -3   64.24    2.17
  -6   1   3   63.67    2.00
   6   1  -3   64.53    1.94
  -5  -1   3    3.78    0.37
   5  -1  -3    2.74    0.35
  -5  -1   3    3.75    0.26
   5  -1  -3    3.36    0.33
  -5  -1   3    3.14    0.39
  -5  -1   3    2.94    0.40
   5  -1  -3    2.40    0.45
   5   1  -3    3.22    0.65
  -5   1   3    3.28    0.33
   5   1  -3    2.87    0.38
  -5   1   3    3.94    0.43
  -5   1   3    3.82    0.48
   5   1  -3    3.14    0.27
  -5   1   3    3.90    0.31
  -4  -1   3   61.17    1.99
  -4  -1   3   67.71    1.95
   4  -1  -3   62.65    1.96
   4  -1  -3   63.79    1.72
  -4  -1   3   64.69    1.79
  -4  -1   3   65.48    1.91
   4  -1  -3   66.01    1.74
   4   1  -3   63.82    1.67
  -4   1   3   66.40    1.75
  -4   1   3   67.41    1.96
  -4   1   3   64.44    2.00
   4   1  -3   65.00    1.96
  -4   1   3   65.28    1.73
  -4   1   3   63.87    1.89
   3  -1  -3   26.23    0.94
  -3  -1   3   27.83    0.84
  -3  -1   3   27.30    0.96
   3  -1  -3   27.27    0.75
  -3  -1   3   27.36    0.75
   3  -1  -3   26.24    0.77
  -3  -1   3   25.64    0.96
  -3   1   3   26.69    0.80
  -3   1   3   24.14    0.82
   3   1  -3   26.85    0.73
  -3   1   3   25.20    0.91
   3   1  -3   25.99    0.79
   3   1  -3   26.58    0.93
  -3   1   3   26.88    0.96
  -3   1   3   26.75    0.97
  -2  -1   3   49.05    1.44
   2  -1  -3   47.22    1.40
   2  -1  -3   48.62    1.32
  -2  -1   3   50.58    1.30
  -2  -1   3   48.49    1.36
  -2  -1   3   48.94    1.29
  -2  -1   3   50.58    1.45
   2   1  -3   48.42    1.46
   2   1  -3   48.39    1.41
  -2   1   3   47.61    1.41
   2   1  -3   50.29    1.31
  -2   1   3   50.15    1.33
  -2   1   3   48.17    1.43
  -2   1   3   50.39    1.46
  -1  -1   3    5.79    0.29
   1  -1  -3    5.65    0.30
  -1  -1   3    6.20    0.32
  -1  -1   3    5.40    0.33
  -1  -1   3    5.79    0.28
  -1  -1   3    6.20    0.29
  -1  -1   3    6.16    0.29
  -1   1   3    5.57    0.34
  -1   1   3    6.19    0.30
   1   1  -3    5.84    0.35
  -1   1   3    6.05    0.28
  -1   1   3    6.20    0.33
  -1   1   3    5.92    0.29
   1   1  -3    6.32    0.32
  -1   1   3    6.28    0.32
  -1   1   3    5.99    0.27
   0  -1  -3   13.87    0.51
   0  -1   3   14.49    0.51
   0  -1   3   14.05    0.52
   0  -1   3   12.44    0.54
   0  -1   3   14.01    0.53
   0   1   3   12.94    0.59
   0   1   3   13.76    0.49
   0   1   3   13.14    0.52
   0   1   3   14.25    0.51
   0   1  -3   13.70    0.52
   0   1  -3   13.83    0.51
   0   1   3   13.67    0.49
   0   1   3   13.08    0.52
   0   1   3   14.01    0.52
   1  -1   3   12.09    0.41
   1  -1   3   11.75    0.51
   1  -1   3   11.58    0.51
   1  -1   3   12.57    0.55
   1  -1   3    9.40    0.51
  -1  -1  -3   11.76    0.53
  -1  -1  -3   11.21    0.51
   1   1   3   11.28    0.51
  -1   1  -3   12.32    0.53
   1   1   3   10.90    0.41
   1   1   3    9.65    0.42
  -1   1  -3   11.58    0.52
   1   1   3   12.05    0.55
   1   1   3   12.13    0.48
  -1   1  -3   11.16    0.51
   2  -1   3   -0.03    0.18
  -2  -1  -3    0.07    0.17
  -2  -1  -3    0.16    0.15
   2  -1   3    0.16    0.04
   2  -1   3    0.50    0.19
   2  -1   3    0.22    0.06
  -2  -1  -3    0.15    0.18
   2  -1   3    0.16    0.16
  -2   1  -3    0.25    0.19
   2   1   3    0.10    0.21
   2   1   3    0.32    0.18
   2   1   3    0.17    0.06
  -2   1  -3    0.26    0.16
   2   1   3    0.25    0.05
  -2   1  -3    0.13    0.19
   2   1   3    0.27    0.16
   3  -1   3    2.29    0.35
  -3  -1  -3    2.68    0.39
  -3  -1  -3    3.21    0.40
  -3  -1  -3    3.33    0.35
   3  -1   3    2.78    0.40
  -3   1  -3    2.84    0.39
  -3   1  -3    3.48    0.37
  -3   1  -3    2.93    0.36
   3   1   3    2.84    0.49
   3   1   3    3.13    0.39
   4  -1   3   15.28    0.84
  -4  -1  -3   15.23    0.86
  -4  -1  -3   15.23    0.78
  -4   1  -3   13.85    0.76
   4   1   3   13.89    0.79
  -4   1  -3   14.47    0.83
  -5  -1  -3    1.51    0.40
  -5  -1  -3    1.35    0.44
   5  -1   3    1.40    0.44
   5   1   3    1.48    0.45
  -5   1  -3    1.09    0.44
  -5   1  -3    1.08    0.37
   6  -1   3   16.77    1.20
  -6  -1  -3   13.90    1.04
  -6  -1  -3   14.16    1.22
   6   1   3   14.77    1.10
  -6   1  -3   15.62    1.05
  -6   1  -3   12.29    1.00
  -7  -2   3    2.17    0.48
   7  -2  -3    2.19    0.58
  -7  -2   3    2.52    0.48
  -7   2   3    2.78    0.48
   6  -2  -3    2.38    0.52
  -6  -2   3    2.25    0.30
  -6  -2   3    2.95    0.42
   6  -2  -3    2.45    0.34
  -6  -2   3    2.44    0.39
   6  -2  -3    2.20    0.37
  -6   2   3    2.94    0.39
  -6   2   3    2.62    0.41
   6   2  -3    1.75    0.44
  -6   2   3    2.11    0.31
   5  -2  -3    2.59    0.34
  -5  -2   3    2.84    0.24
   5  -2  -3    2.41    0.37
   5  -2  -3    3.49    0.65
  -5  -2   3    2.70    0.41
  -5  -2   3    1.91    0.34
  -5  -2   3    2.72    0.35
   5   2  -3    2.59    0.33
  -5   2   3    2.13    0.34
  -5   2   3    1.75    0.37
  -5   2   3    3.31    0.31
  -5   2   3    2.53    0.29
   5   2  -3    2.33    0.24
  -4  -2   3    1.58    0.30
  -4  -2   3    1.00    0.12
   4  -2  -3    0.87    0.17
   4  -2  -3    0.96    0.15
  -4  -2   3    1.08    0.22
  -4  -2   3    1.26    0.31
   4  -2  -3    0.67    0.24
  -4  -2   3    1.37    0.27
  -4   2   3    1.14    0.17
   4   2  -3    1.02    0.22
   4   2  -3    0.95    0.12
  -4   2   3    1.15    0.32
  -4   2   3    0.62    0.25
   4   2  -3    0.76    0.25
  -4   2   3    1.09    0.26
  -4   2   3    1.14    0.18
   3  -2  -3   13.11    0.40
   3  -2  -3   13.01    0.60
  -3  -2   3   13.28    0.40
  -3  -2   3   13.35    0.53
  -3  -2   3   13.00    0.61
   3  -2  -3   13.26    0.47
  -3  -2   3   12.55    0.61
   3   2  -3   12.71    0.39
  -3   2   3   13.08    0.43
  -3   2   3   12.93    0.61
   3   2  -3   12.83    0.49
   3   2  -3   12.43    0.59
   3   2  -3   12.64    0.62
  -3   2   3   13.09    0.62
  -3   2   3   11.99    0.56
  -3   2   3   13.37    0.49
   2  -2  -3    4.45    0.30
  -2  -2   3    4.79    0.34
  -2  -2   3    4.56    0.30
  -2  -2   3    4.34    0.34
  -2  -2   3    4.87    0.22
  -2  -2   3    4.53    0.21
   2  -2  -3    4.55    0.26
  -2   2   3    4.43    0.23
   2   2  -3    4.45    0.25
   2   2  -3    4.44    0.34
  -2   2   3    4.80    0.21
  -2   2   3    5.19    0.37
  -2   2   3    4.49    0.26
   2   2  -3    4.47    0.31
  -2   2   3    4.05    0.31
  -2   2   3    4.65    0.33
  -1  -2   3  150.04    3.83
  -1  -2   3  152.93    3.91
  -1  -2   3  151.19    3.83
  -1  -2   3  154.82    3.86
  -1  -2   3  160.29    3.93
  -1  -2   3  152.02    3.86
   1  -2  -3  152.79    3.85
  -1   2   3  161.23    3.84
  -1   2   3  154.38    3.93
  -1   2   3  151.08    3.89
  -1   2   3  153.15    3.86
  -1   2   3  148.19    3.86
   1   2  -3  151.16    3.88
   1   2  -3  150.49    3.93
   0  -2   3   -0.06    0.10
   0  -2   3    0.05    0.12
   0  -2   3    0.14    0.14
   0  -2  -3    0.10    0.11
   0  -2   3   -0.15    0.12
   0  -2   3    0.12    0.11
   0   2  -3   -0.01    0.11
   0   2   3    0.17    0.13
   0   2   3    0.01    0.11
   0   2  -3    0.07    0.10
   0   2   3   -0.12    0.09
   0   2   3   -0.12    0.09
   0   2   3    0.02    0.10
   0   2   3    0.01    0.10
   1  -2   3   50.74    1.51
  -1  -2  -3   50.89    1.50
  -1  -2  -3   52.82    1.52
   1  -2   3   51.54    1.38
  -1  -2  -3   52.23    1.45
   1  -2   3   51.95    1.53
   1  -2   3   52.90    1.50
   1   2   3   54.04    1.54
  -1   2  -3   51.87    1.50
   1   2   3   52.88    1.43
  -1   2  -3   51.28    1.51
   1   2   3   52.03    1.50
   1   2   3   50.96    1.36
   1   2   3   52.90    1.40
  -1   2  -3   49.85    1.50
   2  -2   3    4.17    0.37
   2  -2   3    3.99    0.39
   2  -2   3    3.69    0.39
  -2  -2  -3    3.19    0.32
   2  -2   3    4.09    0.17
  -2  -2  -3    4.26    0.40
   2  -2   3    4.09    0.15
  -2  -2  -3    3.98    0.37
  -2   2  -3    4.60    0.39
   2   2   3    3.97    0.32
  -2   2  -3    3.71    0.36
   2   2   3    3.69    0.36
   2   2   3    3.97    0.17
   2   2   3    4.58    0.43
   2   2   3    4.02    0.18
  -2   2  -3    3.61    0.38
   3  -2   3  103.45    2.83
   3  -2   3   92.76    2.91
  -3  -2  -3   98.61    2.69
  -3  -2  -3   99.73    2.85
  -3  -2  -3  103.80    2.80
  -3   2  -3   99.34    2.74
  -3   2  -3  102.68    2.81
  -3   2  -3  100.32    2.82
   3   2   3  100.60    2.76
  -4  -2  -3    6.38    0.61
  -4  -2  -3    5.62    0.55
   4  -2   3    6.19    0.61
  -4  -2  -3    4.78    0.50
  -4   2  -3    4.83    0.59
  -4   2  -3    6.42    0.58
   4   2   3    6.08    0.57
  -5  -2  -3   15.22    0.90
   5  -2   3   14.42    0.97
  -5  -2  -3   12.40    0.96
  -5   2  -3   14.66    0.88
   5   2   3   15.42    0.92
  -5   2  -3   15.23    0.92
   6  -2   3    1.72    0.62
  -6  -2  -3   -0.17    0.44
  -6   2  -3    0.61    0.55
  -6   2  -3    1.02    0.50
   6   2   3    1.57    0.61
   7  -3  -3   -0.08    0.48
  -7  -3   3    0.26    0.40
  -7   3   3   -0.17    0.37
  -7   3   3    0.04    0.34
   7   3  -3    1.20    0.53
   6  -3  -3   37.21    1.25
  -6  -3   3   37.01    1.37
   6  -3  -3   39.21    1.57
   6  -3  -3   38.94    1.43
  -6  -3   3   39.11    1.33
  -6  -3   3   37.48    1.07
  -6   3   3   37.25    1.21
   6   3  -3   38.49    1.51
  -6   3   3   37.32    1.35
  -6   3   3   38.31    1.17
  -5  -3   3   19.14    0.86
  -5  -3   3   19.62    0.81
   5  -3  -3   19.74    0.68
  -5  -3   3   18.74    0.58
   5  -3  -3   19.45    0.74
   5  -3  -3   16.26    1.36
  -5  -3   3   19.77    0.89
   5   3  -3   19.74    0.58
  -5   3   3   19.86    0.95
  -5   3   3   19.99    0.72
  -5   3   3   18.85    0.83
   5   3  -3   19.48    0.80
  -5   3   3   20.06    0.67
  -4  -3   3   74.63    2.06
   4  -3  -3   72.63    2.19
   4  -3  -3   76.19    1.89
  -4  -3   3   75.05    2.16
   4  -3  -3   72.03    1.97
  -4  -3   3   71.98    2.22
  -4  -3   3   74.56    1.83
  -4   3   3   66.58    1.96
  -4   3   3   73.66    2.10
   4   3  -3   74.92    2.04
  -4   3   3   74.84    1.99
   4   3  -3   73.42    2.16
   4   3  -3   73.98    1.83
   4   3  -3   72.91    2.17
  -4   3   3   72.59    2.21
  -4   3   3   78.94    2.20
  -3  -3   3    2.82    0.35
   3  -3  -3    3.32    0.15
   3  -3  -3    3.16    0.34
  -3  -3   3    3.31    0.37
  -3  -3   3    3.65    0.14
  -3  -3   3    3.25    0.29
  -3  -3   3    3.30    0.14
  -3   3   3    3.66    0.18
   3   3  -3    3.42    0.47
   3   3  -3    2.99    0.34
   3   3  -3    3.53    0.36
  -3   3   3    3.39    0.32
  -3   3   3    3.74    0.28
  -3   3   3    3.43    0.38
  -3   3   3    4.09    0.40
  -2  -3   3   61.10    1.76
   2  -3  -3   63.39    1.77
   2  -3  -3   64.00    1.71
  -2  -3   3   67.71    1.83
  -2  -3   3   65.62    1.64
  -2  -3   3   63.90    1.63
  -2  -3   3   64.30    1.82
   2   3  -3   64.27    1.72
  -2   3   3   66.77    1.85
   2   3  -3   63.38    1.78
  -2   3   3   65.05    1.73
   2   3  -3   63.31    1.84
  -2   3   3   62.93    1.65
  -2   3   3   65.98    1.63
  -2   3   3   64.50    1.80
  -2   3   3   62.95    1.78
   1  -3  -3   13.60    0.51
  -1  -3   3   14.35    0.55
   1  -3  -3   14.22    0.46
   1  -3  -3   14.34    0.49
  -1  -3   3   13.71    0.55
  -1  -3   3   13.48    0.51
  -1  -3   3   13.87    0.47
  -1   3   3   14.25    0.50
   1   3  -3   13.60    0.56
   1   3  -3   14.37    0.54
  -1   3   3   14.29    0.48
   1   3  -3   13.43    0.47
  -1   3   3   14.42    0.54
  -1   3   3   13.68    0.51
   0  -3   3    8.96    0.40
   0  -3   3    9.05    0.44
   0  -3   3    8.96    0.46
   0  -3   3    8.58    0.40
   0  -3   3    9.69    0.40
   0  -3  -3    9.55    0.41
   0  -3   3    9.04    0.42
   0   3  -3    9.54    0.41
   0   3   3    9.65    0.42
   0   3   3    9.40    0.42
   0   3   3    9.56    0.38
   0   3  -3    9.81    0.40
   0   3   3    8.08    0.38
   0   3   3    9.30    0.35
   1  -3   3    2.94    0.31
  -1  -3  -3    3.80    0.33
   1  -3   3    3.58    0.34
  -1  -3  -3    3.62    0.27
   1  -3   3    3.37    0.22
   1  -3   3    3.20    0.33
   1   3   3    3.21    0.20
  -1   3  -3    3.37    0.30
   1   3   3    2.92    0.30
   1   3   3    3.38    0.24
   1   3   3    3.54    0.23
  -1   3  -3    2.96    0.29
  -1   3  -3    3.12    0.23
   1   3   3    3.14    0.32
  -1   3  -3    3.36    0.34
   2  -3   3   42.52    1.07
   2  -3   3   38.49    1.08
  -2  -3  -3   42.94    1.36
   2  -3   3   40.44    1.31
  -2  -3  -3   41.47    1.30
   2  -3   3   43.44    1.35
  -2  -3  -3   40.98    1.23
   2  -3   3   41.49    1.36
  -2   3  -3   41.77    1.32
   2   3   3   42.52    1.32
   2   3   3   43.63    1.09
   2   3   3   40.20    1.09
   2   3   3   40.34    1.23
   2   3   3   43.80    1.38
  -2   3  -3   43.59    1.33
  -2   3  -3   42.22    1.31
   3  -3   3    2.71    0.38
  -3  -3  -3    2.40    0.33
  -3  -3  -3    2.65    0.34
   3  -3   3    2.08    0.45
  -3  -3  -3    2.88    0.40
  -3   3  -3    3.07    0.41
   3   3   3    3.02    0.38
  -3   3  -3    2.23    0.34
  -3   3  -3    2.50    0.36
  -4  -3  -3   62.70    1.94
  -4  -3  -3   61.19    2.01
  -4  -3  -3   59.83    1.83
   4  -3   3   58.41    2.46
  -4   3  -3   60.80    1.94
  -4   3  -3   62.33    1.97
   4   3   3   64.49    1.94
  -5  -3  -3    3.31    0.55
   5  -3   3    3.92    0.63
  -5  -3  -3    2.53    0.47
  -5   3  -3    3.17    0.57
  -5   3  -3    2.15    0.44
   5   3   3    3.42    0.54
  -7  -4   3    6.83    0.78
  -7  -4   3    8.05    0.77
   7  -4  -3    9.65    1.01
  -7   4   3    6.98    0.70
  -7   4   3    6.92    0.66
   7   4  -3    8.70    0.93
   6  -4  -3    1.14    0.42
  -6  -4   3    1.21    0.37
   6  -4  -3    1.42    0.34
  -6  -4   3    1.16    0.27
  -6  -4   3    1.72    0.37
  -6   4   3    1.04    0.35
  -6   4   3    0.86    0.27
  -6   4   3    1.46    0.25
   6   4  -3    1.70    0.43
   5  -4  -3   15.45    0.68
  -5  -4   3   16.44    0.46
  -5  -4   3   15.07    0.82
  -5  -4   3   17.12    0.75
   5  -4  -3   15.92    0.57
  -5   4   3   16.20    0.55
  -5   4   3   15.10    0.74
   5   4  -3   16.10    0.74
  -5   4   3   16.46    0.66
   5   4  -3   15.87    0.46
   5   4  -3   13.91    1.19
  -5   4   3   14.83    0.84
  -4  -4   3    4.47    0.40
  -4  -4   3    3.13    0.43
  -4  -4   3    4.82    0.51
   4  -4  -3    4.20    0.46
   4  -4  -3    4.46    0.21
   4  -4  -3    4.40    0.34
  -4   4   3    4.19    0.49
  -4   4   3    4.42    0.35
   4   4  -3    4.56    0.40
  -4   4   3    4.13    0.39
   4   4  -3    3.43    0.45
  -4   4   3    4.29    0.21
  -4   4   3    4.56    0.49
   4   4  -3    4.18    0.44
  -3  -4   3  121.66    3.20
   3  -4  -3  116.91    3.06
  -3  -4   3  116.68    3.23
  -3  -4   3  117.75    3.14
   3  -4  -3  118.01    3.19
  -3   4   3  124.30    3.22
  -3   4   3  117.62    2.90
   3   4  -3  114.49    3.21
  -3   4   3  120.18    2.90
   3   4  -3  121.84    3.10
   3   4  -3  117.73    3.18
  -3   4   3  125.39    3.24
  -3   4   3  118.93    3.09
  -3   4   3  114.95    3.14
  -2  -4   3   20.56    0.74
  -2  -4   3   19.63    0.71
  -2  -4   3   20.54    0.76
   2  -4  -3   19.89    0.69
  -2  -4   3   20.12    0.56
  -2  -4   3   19.75    0.55
   2  -4  -3   20.40    0.66
   2   4  -3   20.00    0.77
   2   4  -3   18.33    0.75
  -2   4   3   20.41    0.72
   2   4  -3   19.09    0.70
  -2   4   3   19.68    0.56
  -2   4   3   19.24    0.71
  -2   4   3   20.04    0.55
  -2   4   3   19.50    0.66
   1  -4  -3  242.55    5.90
  -1  -4   3  237.88    5.93
  -1  -4   3  245.05    5.93
   1  -4  -3  233.88    5.83
  -1  -4   3  230.18    5.88
   1  -4  -3  228.67    5.80
  -1  -4   3  235.45    5.81
   1  -4  -3  243.35    5.88
  -1   4   3  235.65    5.85
  -1   4   3  227.57    5.86
   1   4  -3  230.60    5.93
  -1   4   3  234.14    5.89
   1   4  -3  230.91    5.90
   1   4  -3  231.19    5.81
   1   4  -3  245.29    5.87
  -1   4   3  238.10    5.82
   0  -4   3    1.05    0.17
   0  -4   3    1.19    0.18
   0  -4   3    1.37    0.22
   0  -4   3    1.68    0.21
   0  -4  -3    1.25    0.16
   0  -4  -3    1.29    0.18
   0  -4   3    1.11    0.17
   0  -4   3    1.45    0.22
   0   4  -3    1.20    0.18
   0   4   3    1.00    0.16
   0   4  -3    1.14    0.17
   0   4   3    1.22    0.19
   0   4   3    1.20    0.15
   0   4   3    1.20    0.14
  -1  -4  -3   98.93    2.68
   1  -4   3  100.82    2.54
   1  -4   3  102.98    2.69
  -1  -4  -3  101.18    2.56
  -1  -4  -3  100.95    2.55
   1  -4   3   91.34    2.69
   1  -4   3  101.13    2.66
   1   4   3  102.57    2.56
   1   4   3   96.84    2.52
   1   4   3  104.20    2.71
  -1   4  -3   99.93    2.57
  -1   4  -3   97.40    2.70
  -1   4  -3   99.23    2.66
   1   4   3  100.38    2.68
   1   4   3  100.99    2.67
  -1   4  -3   98.29    2.67
   2  -4   3    4.08    0.41
   2  -4   3    4.81    0.23
   2  -4   3    4.99    0.43
   2  -4   3    4.60    0.41
  -2  -4  -3    4.51    0.33
  -2  -4  -3    5.40    0.44
   2   4   3    4.70    0.24
  -2   4  -3    4.85    0.39
  -2   4  -3    4.69    0.22
   2   4   3    4.69    0.31
   2   4   3    3.77    0.37
   2   4   3    4.27    0.45
  -2   4  -3    4.70    0.40
  -2   4  -3    4.13    0.41
   2   4   3    4.44    0.23
   3  -4   3   23.72    0.98
  -3  -4  -3   23.56    0.98
  -3  -4  -3   22.33    0.80
  -3  -4  -3   22.56    0.90
   3   4   3   22.94    0.86
  -3   4  -3   22.10    0.91
  -3   4  -3   22.91    0.92
  -3   4  -3   21.57    0.89
  -4  -4  -3   14.30    0.70
  -4  -4  -3   14.94    0.77
   4  -4   3   14.27    0.86
   4   4   3   15.51    0.78
  -4   4  -3   14.52    0.80
  -4   4  -3   14.89    0.83
  -5  -4  -3    0.24    0.35
   5  -4   3    0.73    0.47
  -5  -4  -3   -0.07    0.46
  -5   4  -3   -0.15    0.34
  -5   4  -3    0.27    0.37
   5   4   3    0.14    0.38
  -7  -5   3   10.24    0.80
  -7  -5   3    9.91    0.81
   7  -5  -3    9.61    1.04
   7   5  -3    9.02    0.92
  -7   5   3    9.93    0.71
  -7   5   3    8.74    0.77
   6  -5  -3   17.79    0.83
  -6  -5   3   18.05    1.02
  -6  -5   3   18.01    0.89
   6  -5  -3   17.38    1.02
   6   5  -3   19.71    1.17
  -6   5   3   17.50    0.65
  -6   5   3   18.30    0.91
  -6   5   3   17.56    0.79
   6   5  -3   18.30    0.99
   5  -5  -3    1.72    0.29
  -5  -5   3    1.29    0.31
   5  -5  -3    1.44    0.19
   5   5  -3    1.52    0.33
   5   5  -3    1.30    0.38
   5   5  -3    1.45    0.34
  -5   5   3    1.47    0.28
  -5   5   3    2.01    0.70
  -5   5   3    1.51    0.18
  -5   5   3    1.13    0.25
  -4  -5   3   59.53    1.73
  -4  -5   3   58.64    1.77
   4  -5  -3   58.01    1.43
   4  -5  -3   57.29    1.64
   4  -5  -3   56.28    1.81
  -4  -5   3   56.26    1.83
  -4   5   3   59.69    1.44
  -4   5   3   58.78    1.66
  -4   5   3   57.87    1.82
   4   5  -3   59.11    1.70
  -4   5   3   57.16    1.80
   4   5  -3   58.18    1.81
   4   5  -3   55.66    1.77
  -4   5   3   56.29    1.71
   3  -5  -3   33.96    1.03
  -3  -5   3   33.09    1.11
  -3  -5   3   33.60    1.18
  -3  -5   3   34.83    1.15
   3  -5  -3   33.73    1.14
   3   5  -3   34.35    1.07
  -3   5   3   35.58    1.18
  -3   5   3   33.67    1.10
  -3   5   3   34.24    1.06
  -3   5   3   35.42    1.15
   3   5  -3   34.00    1.12
   3   5  -3   34.25    1.18
  -2  -5   3   65.74    1.91
  -2  -5   3   67.88    1.89
   2  -5  -3   68.11    1.82
  -2  -5   3   67.12    1.69
  -2  -5   3   69.07    1.90
   2  -5  -3   67.53    1.85
  -2  -5   3   67.57    1.69
   2  -5  -3   68.52    1.88
  -2   5   3   67.39    1.83
   2   5  -3   68.31    1.83
  -2   5   3   65.82    1.68
  -2   5   3   67.26    1.87
  -2   5   3   65.73    1.86
   2   5  -3   66.73    1.87
  -2   5   3   67.45    1.68
   2   5  -3   65.40    1.92
   1  -5  -3   16.35    0.60
  -1  -5   3   16.14    0.61
   1  -5  -3   15.45    0.50
  -1  -5   3   15.43    0.51
   1  -5  -3   16.27    0.59
  -1  -5   3   16.14    0.62
   1  -5  -3   15.75    0.52
  -1  -5   3   15.92    0.59
   1   5  -3   15.96    0.57
   1   5  -3   15.07    0.61
  -1   5   3   16.33    0.52
  -1   5   3   15.26    0.56
  -1   5   3   15.35    0.58
  -1   5   3   15.97    0.54
   1   5  -3   15.67    0.51
   1   5  -3   15.24    0.59
   0  -5   3    3.67    0.26
   0  -5  -3    3.61    0.30
   0  -5   3    3.60    0.28
   0  -5   3    3.37    0.32
   0  -5   3    3.25    0.29
   0  -5   3    3.54    0.33
   0  -5  -3    3.64    0.28
   0  -5   3    3.23    0.29
   0   5   3    3.50    0.19
   0   5   3    3.45    0.28
   0   5   3    3.88    0.25
   0   5  -3    3.20    0.28
   0   5   3    3.54    0.23
   0   5  -3    3.19    0.25
   0   5   3    3.73    0.28
  -1  -5  -3    8.60    0.46
   1  -5   3    8.54    0.45
   1  -5   3    8.59    0.35
   1  -5   3    7.99    0.46
  -1  -5  -3    8.62    0.35
   1  -5   3    7.27    0.48
  -1   5  -3    8.30    0.49
   1   5   3    7.95    0.46
   1   5   3    7.94    0.44
  -1   5  -3    8.49    0.45
   1   5   3    8.22    0.33
   1   5   3    8.20    0.45
  -1   5  -3    8.14    0.37
   1   5   3    8.61    0.34
   2  -5   3   40.89    1.34
   2  -5   3   41.30    1.33
   2  -5   3   37.58    1.07
  -2  -5  -3   40.93    1.07
  -2  -5  -3   38.50    1.31
   2  -5   3   39.14    1.27
  -2   5  -3   39.50    1.27
   2   5   3   40.53    1.29
  -2   5  -3   38.95    1.28
  -2   5  -3   39.60    1.29
   2   5   3   38.03    1.26
   2   5   3   40.69    1.34
   2   5   3   40.56    1.17
  -2   5  -3   39.13    1.09
  -3  -5  -3    0.24    0.19
   3  -5   3    0.49    0.29
  -3  -5  -3    0.10    0.24
  -3   5  -3    0.15    0.22
   3   5   3    0.20    0.20
  -3   5  -3    0.16    0.19
  -4  -5  -3   52.59    1.60
   4  -5   3   54.14    1.85
  -4   5  -3   50.23    1.72
  -4   5  -3   51.78    1.73
   4   5   3   52.45    1.67
   5  -5   3   31.97    1.47
  -5  -5  -3   31.23    1.43
   5   5   3   32.52    1.46
  -5   5  -3   33.24    1.35
  -5   5  -3   32.71    1.34
   7  -6  -3    6.56    0.85
  -7  -6   3    4.97    0.62
  -7  -6   3    6.58    0.81
  -7   6   3    5.40    0.69
  -7   6   3    5.60    0.65
   7   6  -3    4.52    0.67
   6  -6  -3    0.36    0.35
   6  -6  -3   -0.06    0.39
  -6  -6   3    0.00    0.35
   6   6  -3    0.51    0.37
  -6   6   3   -0.14    0.25
  -6   6   3    0.25    0.17
   5  -6  -3    2.18    0.47
   5  -6  -3    1.38    0.17
  -5  -6   3    1.49    0.33
   5  -6  -3    0.76    0.26
  -5   6   3    1.38    0.17
   5   6  -3    2.06    0.37
  -5   6   3    1.56    0.28
   5   6  -3    1.55    0.35
   5   6  -3    1.14    0.35
  -5   6   3    1.15    0.29
  -4  -6   3   15.07    0.72
   4  -6  -3   13.99    0.61
   4  -6  -3   14.94    0.75
  -4  -6   3   14.37    0.70
   4   6  -3   14.05    0.74
  -4   6   3   13.95    0.75
   4   6  -3   13.32    0.70
   4   6  -3   14.79    0.68
  -4   6   3   16.22    0.64
  -4   6   3   14.07    0.66
  -4   6   3   14.47    0.77
   3  -6  -3   19.68    0.70
  -3  -6   3   18.39    0.81
   3  -6  -3   19.39    0.78
  -3  -6   3   18.88    0.77
  -3  -6   3   18.62    0.76
   3  -6  -3   19.15    0.75
   3   6  -3   19.30    0.72
  -3   6   3   19.33    0.72
  -3   6   3   20.56    0.79
   3   6  -3   19.77    0.77
  -3   6   3   19.83    0.74
   3   6  -3   19.61    0.81
  -2  -6   3   25.12    0.67
  -2  -6   3   24.89    0.67
   2  -6  -3   26.14    0.82
   2  -6  -3   24.34    0.82
   2  -6  -3   25.36    0.86
  -2  -6   3   26.03    0.91
  -2  -6   3   24.97    0.89
  -2  -6   3   25.19    0.88
   2   6  -3   24.40    0.84
   2   6  -3   25.88    0.83
  -2   6   3   24.69    0.85
   2   6  -3   23.23    0.89
  -2   6   3   24.23    0.65
  -2   6   3   26.21    0.85
  -2   6   3   26.17    0.65
  -2   6   3   24.98    0.83
   1  -6  -3   66.36    1.80
   1  -6  -3   65.43    1.79
  -1  -6   3   67.99    1.81
   1  -6  -3   64.16    1.69
   1  -6  -3   64.14    1.70
  -1  -6   3   67.93    1.85
  -1  -6   3   63.46    1.79
  -1  -6   3   64.04    1.69
   1   6  -3   65.35    1.77
   1   6  -3   63.52    1.70
  -1   6   3   65.24    1.78
   1   6  -3   64.03    1.83
  -1   6   3   64.07    1.72
  -1   6   3   62.60    1.77
  -1   6   3   64.70    1.70
   0  -6   3   24.63    0.88
   0  -6   3   26.86    0.92
   0  -6   3   25.15    0.83
   0  -6   3   26.08    0.85
   0  -6   3   25.50    0.81
   0  -6   3   25.85    0.82
   0  -6  -3   26.91    0.82
   0  -6  -3   25.22    0.83
   0   6  -3   25.84    0.82
   0   6   3   25.09    0.84
   0   6   3   25.16    0.73
   0   6   3   25.44    0.72
   0   6  -3   26.29    0.85
   0   6   3   26.13    0.85
   0   6   3   25.89    0.80
  -1  -6  -3   85.20    2.35
  -1  -6  -3   88.30    2.22
   1  -6   3   84.21    2.31
   1  -6   3   86.21    2.32
   1  -6   3   86.55    2.22
   1  -6   3   86.44    2.35
   1  -6   3   73.14    2.36
  -1   6  -3   85.94    2.33
   1   6   3   86.07    2.34
  -1   6  -3   85.87    2.25
   1   6   3   83.03    2.32
   1   6   3   85.15    2.17
   1   6   3   90.49    2.37
   1   6   3   85.74    2.20
  -1   6  -3   85.51    2.38
  -2  -6  -3   28.61    0.90
   2  -6   3   29.87    1.11
   2  -6   3   28.35    0.86
  -2  -6  -3   30.75    0.85
   2  -6   3   29.30    1.06
  -2  -6  -3   29.28    1.08
   2  -6   3   29.27    1.04
  -2   6  -3   30.26    1.05
  -2   6  -3   29.98    1.04
   2   6   3   30.33    1.05
  -2   6  -3   30.33    0.87
   2   6   3   30.81    0.88
   2   6   3   31.01    1.11
  -2   6  -3   29.24    1.06
   2   6   3   30.41    0.92
   2   6   3   30.88    1.06
  -3  -6  -3   37.61    1.40
  -3  -6  -3   36.55    1.16
   3  -6   3   40.18    1.43
  -3   6  -3   38.69    1.33
   3   6   3   39.79    1.24
  -3   6  -3   38.91    1.32
   3   6   3   38.97    1.00
   3   6   3   39.81    1.34
   4  -6   3    8.13    0.75
  -4  -6  -3    8.36    0.55
   4   6   3    8.00    0.67
   4   6   3    7.92    0.59
  -4   6  -3    7.74    0.66
  -4   6  -3    8.06    0.66
   5  -6   3   16.30    1.11
  -5  -6  -3   17.15    1.05
  -5   6  -3   15.37    0.95
   5   6   3   16.74    0.98
   5   6   3   15.46    1.02
  -5   6  -3   15.69    0.95
   7  -7  -3   13.29    1.13
  -7  -7   3   14.95    0.95
  -7  -7   3   14.61    1.00
  -7   7   3   14.06    0.92
   7   7  -3   14.73    1.06
  -7   7   3   15.51    0.87
   6  -7  -3   13.82    0.99
  -6   7   3   13.80    0.73
   6   7  -3   12.30    0.85
   5  -7  -3   77.31    2.31
   5  -7  -3   82.80    2.56
   5  -7  -3   85.44    2.04
   5  -7  -3   82.16    2.03
  -5  -7   3   82.98    2.43
  -5   7   3   84.87    2.34
  -5   7   3   81.05    2.35
   5   7  -3   82.53    2.40
   5   7  -3   80.81    2.47
   5   7  -3   81.53    2.45
   4  -7  -3   44.07    1.50
  -4  -7   3   45.09    1.46
  -4  -7   3   43.83    1.44
   4  -7  -3   43.71    1.35
  -4   7   3   42.58    1.47
  -4   7   3   45.01    1.38
   4   7  -3   44.64    1.45
   4   7  -3   44.66    1.41
  -4   7   3   42.17    1.38
  -4   7   3   45.82    1.50
   4   7  -3   44.59    1.50
   3  -7  -3   35.26    1.08
  -3  -7   3   34.13    1.17
   3  -7  -3   34.75    1.14
  -3  -7   3   34.82    1.16
  -3  -7   3   34.43    1.20
   3  -7  -3   34.20    1.15
  -3   7   3   33.85    1.11
   3   7  -3   35.50    1.11
  -3   7   3   35.16    1.16
   3   7  -3   33.12    1.19
   3   7  -3   33.53    1.12
  -3   7   3   33.49    1.10
   2  -7  -3   25.20    0.87
   2  -7  -3   24.80    0.83
  -2  -7   3   25.13    0.92
   2  -7  -3   25.11    0.83
  -2  -7   3   24.86    0.67
  -2  -7   3   25.60    0.88
  -2  -7   3   24.84    0.90
  -2   7   3   25.12    0.63
   2   7  -3   25.88    0.85
  -2   7   3   25.65    0.85
  -2   7   3   24.83    0.63
   2   7  -3   24.90    0.85
   2   7  -3   24.79    0.91
  -2   7   3   24.86    0.83
  -2   7   3   23.78    0.84
  -1  -7   3    4.49    0.33
  -1  -7   3    4.37    0.32
   1  -7  -3    4.08    0.25
  -1  -7   3    4.38    0.25
   1  -7  -3    4.78    0.33
  -1  -7   3    4.27    0.34
   1  -7  -3    4.07    0.24
   1  -7  -3    4.60    0.33
  -1  -7   3    4.32    0.36
  -1   7   3    4.61    0.25
   1   7  -3    4.56    0.31
  -1   7   3    4.35    0.25
  -1   7   3    4.62    0.30
   1   7  -3    4.69    0.36
   1   7  -3    4.47    0.25
  -1   7   3    4.24    0.30
   0  -7   3    0.26    0.15
   0  -7  -3    0.26    0.13
   0  -7   3    0.29    0.13
   0  -7  -3    0.49    0.17
   0  -7   3    0.19    0.18
   0  -7   3    0.25    0.17
   0  -7   3    0.54    0.21
   0  -7   3    0.29    0.13
   0  -7  -3    0.11    0.14
   0   7   3    0.14    0.12
   0   7  -3    0.12    0.13
   0   7   3    0.25    0.08
   0   7   3    0.26    0.12
   0   7  -3    0.15    0.13
   0   7   3    0.10    0.13
   0   7   3    0.22    0.10
   1  -7   3    1.59    0.25
   1  -7   3    2.10    0.21
   1  -7   3    1.61    0.23
   1  -7   3    1.20    0.27
  -1  -7  -3    1.14    0.24
   1  -7   3    1.52    0.24
  -1  -7  -3    1.54    0.21
  -1   7  -3    1.29    0.22
  -1   7  -3    1.35    0.20
  -1   7  -3    2.02    0.30
   1   7   3    1.27    0.14
   1   7   3    1.55    0.15
   1   7   3    1.86    0.26
   1   7   3    1.01    0.20
   1   7   3    1.48    0.18
   1   7   3    1.10    0.22
  -2  -7  -3    0.32    0.15
   2  -7   3    0.12    0.24
   2  -7   3    0.25    0.13
  -2  -7  -3    0.21    0.12
   2  -7   3   -0.14    0.20
   2  -7   3    0.54    0.28
  -2  -7  -3    0.27    0.22
   2   7   3    0.06    0.17
   2   7   3    0.44    0.15
  -2   7  -3    0.46    0.25
  -2   7  -3    0.31    0.19
   2   7   3    0.38    0.27
   2   7   3   -0.10    0.20
  -2   7  -3    0.56    0.15
   2   7   3    0.39    0.15
   3  -7   3   19.77    0.97
  -3  -7  -3   21.02    0.60
  -3  -7  -3   19.07    1.11
   3  -7   3   20.27    0.58
  -3  -7  -3   19.72    0.72
   3   7   3   21.00    0.78
  -3   7  -3   21.15    0.88
   3   7   3   20.25    0.61
  -3   7  -3   20.66    0.59
   3   7   3   21.29    0.90
  -3   7  -3   20.32    0.88
  -4  -7  -3    6.41    0.50
   4  -7   3    6.09    0.70
   4   7   3    6.53    0.54
  -4   7  -3    6.48    0.60
  -4   7  -3    6.04    0.63
   4   7   3    5.65    0.61
   5  -7   3    6.37    0.80
  -5  -7  -3    6.22    0.81
  -5   7  -3    7.30    0.74
   5   7   3    6.63    0.76
   5   7   3    7.14    0.69
  -5   7  -3    5.95    0.71
  -7  -8   3    2.11    0.58
  -7  -8   3    2.96    0.56
   7  -8  -3    1.99    0.71
  -7   8   3    2.91    0.49
   7   8  -3    1.74    0.55
  -7   8   3    3.40    0.51
   6  -8  -3    2.19    0.55
  -6  -8   3    2.09    0.44
  -6   8   3    1.31    0.35
   6   8  -3    1.37    0.40
   6   8  -3    1.64    0.45
  -5  -8   3   14.57    0.81
   5  -8  -3   14.33    0.87
   5  -8  -3   13.58    0.73
   5   8  -3   15.52    0.81
   5   8  -3   15.05    0.82
   5   8  -3   15.00    0.87
  -5   8   3   14.18    0.71
  -5   8   3   14.15    0.73
   4  -8  -3    2.11    0.37
  -4  -8   3    1.31    0.38
   4  -8  -3    1.93    0.30
  -4  -8   3    1.97    0.35
  -4  -8   3    2.37    0.36
   4   8  -3    2.28    0.35
  -4   8   3    2.62    0.40
   4   8  -3    1.92    0.33
  -4   8   3    2.40    0.33
  -4   8   3    2.08    0.30
   4   8  -3    2.38    0.35
   3  -8  -3   23.21    0.86
  -3  -8   3   23.03    0.93
   3  -8  -3   23.28    0.82
  -3  -8   3   21.88    0.90
   3  -8  -3   22.33    0.87
  -3  -8   3   23.98    0.89
   3   8  -3   22.46    0.85
   3   8  -3   22.05    0.90
  -3   8   3   23.26    0.86
  -3   8   3   22.40    0.83
  -3   8   3   23.08    0.85
   3   8  -3   22.40    0.84
  -2  -8   3   69.33    1.96
  -2  -8   3   68.03    1.68
   2  -8  -3   68.09    1.90
   2  -8  -3   66.75    1.84
   2  -8  -3   67.42    1.86
  -2  -8   3   65.16    1.93
  -2  -8   3   67.23    1.91
  -2   8   3   68.97    1.64
   2   8  -3   63.13    1.86
   2   8  -3   66.07    1.68
  -2   8   3   65.38    1.87
  -2   8   3   67.67    1.64
   2   8  -3   69.42    1.88
  -2   8   3   65.65    1.84
   2   8  -3   64.81    1.94
  -2   8   3   65.04    1.86
  -1  -8   3   36.01    1.12
  -1  -8   3   36.70    1.01
   1  -8  -3   35.47    1.11
   1  -8  -3   36.16    1.11
  -1  -8   3   35.00    1.11
   1  -8  -3   35.57    1.01
  -1  -8   3   36.01    1.13
  -1  -8   3   35.57    1.17
   1   8  -3   34.43    1.14
  -1   8   3   37.36    1.02
  -1   8   3   35.81    1.01
  -1   8   3   35.46    1.10
   1   8  -3   35.85    1.02
   1   8  -3   37.06    1.11
  -1   8   3   35.59    1.09
   0  -8  -3  112.21    2.82
   0  -8   3  107.26    2.85
   0  -8   3  109.11    2.92
   0  -8  -3  108.00    2.83
   0  -8   3  110.58    2.82
   0  -8  -3  106.92    2.87
   0  -8   3  111.55    2.87
   0  -8   3  101.47    2.89
   0  -8   3  108.24    2.81
   0   8   3  105.73    2.78
   0   8   3  107.32    2.66
   0   8   3  106.38    2.85
   0   8  -3  105.43    2.81
   0   8  -3  106.47    2.86
   0   8   3  106.42    2.66
   0   8   3  109.05    2.83
  -1  -8  -3   86.79    2.39
   1  -8   3   88.69    2.26
   1  -8   3   82.60    2.34
   1  -8   3   72.77    2.40
   1  -8   3   85.93    2.37
  -1  -8  -3   90.17    2.27
   1  -8   3   86.86    2.35
  -1   8  -3   89.59    2.43
   1   8   3   86.20    2.13
   1   8   3   83.36    2.35
   1   8   3   86.58    2.36
  -1   8  -3   85.57    2.35
   1   8   3   86.13    2.15
   1   8   3   88.44    2.39
   1   8   3   84.85    2.24
  -1   8  -3   87.39    2.30
   2  -8   3   47.65    1.55
   2  -8   3   47.74    1.36
   2  -8   3   48.69    1.53
   2  -8   3   49.15    1.50
  -2  -8  -3   49.52    1.58
   2  -8   3   47.11    1.62
  -2  -8  -3   47.70    1.33
  -2  -8  -3   52.33    1.36
   2   8   3   47.09    1.51
  -2   8  -3   50.86    1.38
   2   8   3   50.55    1.36
  -2   8  -3   49.54    1.57
  -2   8  -3   48.38    1.53
   2   8   3   48.86    1.38
   2   8   3   51.45    1.54
   2   8   3   50.89    1.60
   3  -8   3   19.11    0.58
  -3  -8  -3   19.50    0.59
   3  -8   3   17.69    0.94
  -3  -8  -3   19.08    0.67
   3   8   3   18.98    0.84
  -3   8  -3   18.24    0.67
   3   8   3   19.62    0.62
   3   8   3   19.17    0.72
  -3   8  -3   16.97    0.95
  -4  -8  -3    8.83    0.55
   4  -8   3    8.54    0.82
   4   8   3    9.35    0.69
  -4   8  -3    8.83    0.67
   4   8   3    8.60    0.58
  -4   8  -3    8.27    0.68
  -5  -8  -3   13.00    1.02
   5  -8   3   14.02    1.12
  -5   8  -3   10.95    0.87
  -5   8  -3   12.26    0.87
   5   8   3   13.55    0.91
   5   8   3   13.68    0.81
   7  -9  -3   11.56    1.15
  -7  -9   3   11.11    1.04
  -7  -9   3   10.15    0.91
   7   9  -3   11.74    0.97
  -7   9   3   11.86    0.87
  -7   9   3   10.66    0.82
   6  -9  -3   28.07    1.36
  -6  -9   3   26.59    1.26
   6   9  -3   26.76    1.22
   6   9  -3   27.59    1.26
   5  -9  -3   55.45    2.05
  -5  -9   3   59.04    1.92
   5  -9  -3   58.61    1.99
  -5   9   3   59.73    1.82
   5   9  -3   58.98    1.88
   4  -9  -3   27.06    1.05
   4  -9  -3   28.31    1.12
  -4  -9   3   29.83    1.13
   4  -9  -3   28.15    1.01
  -4   9   3   28.19    1.11
   4   9  -3   28.78    1.07
  -4   9   3   27.52    1.00
   4   9  -3   26.40    1.11
  -4   9   3   29.09    1.05
   4   9  -3   29.22    1.07
  -3  -9   3   52.39    1.61
  -3  -9   3   54.43    1.70
  -3  -9   3   52.73    1.68
   3  -9  -3   53.39    1.57
   3  -9  -3   52.97    1.62
   3  -9  -3   54.39    1.62
  -3   9   3   51.40    1.57
   3   9  -3   50.78    1.67
  -3   9   3   54.76    1.61
   3   9  -3   52.40    1.59
   3   9  -3   53.68    1.60
  -3   9   3   52.63    1.60
  -2  -9   3   32.69    1.07
   2  -9  -3   32.14    1.03
   2  -9  -3   31.75    0.80
  -2  -9   3   31.34    1.11
  -2  -9   3   31.77    0.85
  -2  -9   3   30.74    1.10
   2  -9  -3   31.62    1.06
   2  -9  -3   31.86    1.00
   2   9  -3   32.54    1.04
  -2   9   3   31.63    0.99
  -2   9   3   31.18    1.02
  -2   9   3   31.44    1.04
   2   9  -3   30.34    1.02
   2   9  -3   31.64    1.11
   2   9  -3   31.56    0.84
  -2   9   3   32.23    0.81
   1  -9  -3    1.18    0.17
  -1  -9   3    0.85    0.21
  -1  -9   3    0.83    0.25
  -1  -9   3    1.33    0.23
  -1  -9   3    1.00    0.14
  -1  -9   3    1.15    0.23
   1  -9  -3    1.25    0.23
   1  -9  -3    1.03    0.19
  -1   9   3    1.07    0.21
  -1   9   3    0.76    0.15
  -1   9   3    0.89    0.19
  -1   9   3    0.78    0.14
   1   9  -3    0.89    0.21
   1   9  -3    0.97    0.19
   1   9  -3    0.95    0.14
   0  -9  -3    1.37    0.21
   0  -9   3    2.50    0.35
   0  -9   3    1.54    0.21
   0  -9  -3    1.71    0.24
   0  -9   3    1.64    0.26
   0  -9   3    1.02    0.25
   0  -9   3    1.51    0.20
   0  -9  -3    2.07    0.28
   0   9   3    1.39    0.10
   0   9   3    1.58    0.23
   0   9   3    1.79    0.25
   0   9  -3    1.71    0.22
   0   9   3    1.50    0.20
   0   9   3    1.47    0.09
   0   9  -3    1.17    0.22
   1  -9   3    8.44    0.51
   1  -9   3    8.16    0.47
  -1  -9  -3    8.15    0.50
  -1  -9  -3    8.38    0.40
   1  -9   3    9.23    0.42
   1  -9   3    8.07    0.47
   1  -9   3    7.48    0.54
   1   9   3    8.80    0.24
  -1   9  -3    8.86    0.45
   1   9   3    8.59    0.25
   1   9   3    8.27    0.40
   1   9   3    8.91    0.49
   1   9   3    9.22    0.52
   1   9   3    8.68    0.49
  -1   9  -3    9.11    0.49
  -1   9  -3    8.90    0.54
   2  -9   3    0.00    0.20
   2  -9   3    0.14    0.26
   2  -9   3    0.18    0.25
  -2  -9  -3    0.26    0.13
   2  -9   3    0.01    0.23
   2  -9   3    0.10    0.27
  -2  -9  -3    0.43    0.27
   2   9   3   -0.16    0.26
   2   9   3    0.15    0.23
   2   9   3    0.24    0.18
  -2   9  -3    0.21    0.16
  -2   9  -3    0.10    0.18
   2   9   3    0.10    0.20
  -2   9  -3    0.28    0.27
   3  -9   3    1.98    0.48
   3  -9   3    2.32    0.57
  -3  -9  -3    3.68    0.51
  -3  -9  -3    3.01    0.30
   3  -9   3    2.54    0.26
  -3  -9  -3    3.01    0.27
  -3   9  -3    2.43    0.43
  -3   9  -3    2.57    0.28
   3   9   3    2.58    0.30
   3   9   3    2.88    0.32
   3   9   3    2.62    0.37
   4  -9   3    7.41    0.83
  -4  -9  -3    7.70    0.51
   4   9   3    7.46    0.28
   4   9   3    7.45    0.53
  -4   9  -3    6.75    0.67
   4   9   3    7.04    0.63
   5  -9   3    8.20    1.03
  -5  -9  -3    6.91    0.91
   5   9   3    7.10    0.74
   5   9   3    6.76    0.66
  -5   9  -3    7.34    0.79
  -7 -10   3    0.64    0.58
   7 -10  -3    0.63    0.64
  -7  10   3   -0.02    0.41
   7  10  -3    0.91    0.51
  -7  10   3    1.01    0.42
   6 -10  -3    1.40    0.49
  -6 -10   3    0.92    0.47
  -6  10   3    0.87    0.40
   6  10  -3    0.53    0.39
  -6  10   3    0.83    0.37
   6  10  -3    0.88    0.41
   5 -10  -3    9.83    0.80
  -5 -10   3   11.45    0.81
  -5  10   3   10.92    0.68
   5  10  -3   11.05    0.71
  -5  10   3   10.46    0.66
   5  10  -3    9.86    0.77
  -4 -10   3    0.61    0.29
   4 -10  -3    0.50    0.27
   4 -10  -3    0.61    0.29
   4 -10  -3    0.72    0.30
  -4  10   3    0.81    0.25
  -4  10   3    0.51    0.24
   4  10  -3    0.47    0.28
  -4  10   3    0.88    0.33
   4  10  -3    0.22    0.29
   4  10  -3    0.84    0.28
   3 -10  -3    0.56    0.22
  -3 -10   3    0.36    0.24
  -3 -10   3    0.44    0.28
  -3 -10   3    0.56    0.25
   3 -10  -3    0.64    0.21
   3 -10  -3    0.34    0.22
   3  10  -3    0.60    0.21
   3  10  -3    0.51    0.22
   3  10  -3    0.97    0.27
  -3  10   3    0.51    0.21
  -3  10   3    0.75    0.23
  -3  10   3    0.69    0.24
   2 -10  -3   13.63    0.39
   2 -10  -3   13.86    0.62
   2 -10  -3   13.93    0.63
  -2 -10   3   13.56    0.68
  -2 -10   3   14.25    0.44
  -2 -10   3   13.57    0.70
  -2 -10   3   14.08    0.64
   2 -10  -3   13.84    0.57
  -2  10   3   13.91    0.40
   2  10  -3   16.63    0.65
  -2  10   3   13.73    0.61
  -2  10   3   13.78    0.55
   2  10  -3   13.66    0.43
   2  10  -3   13.65    0.60
  -2  10   3   13.26    0.59
   2  10  -3   13.67    0.66
   1 -10  -3   98.50    2.53
   1 -10  -3   93.90    2.50
  -1 -10   3   98.77    2.52
  -1 -10   3   96.28    2.67
   1 -10  -3  103.50    2.65
  -1 -10   3   93.11    2.63
  -1 -10   3   90.12    2.69
   1 -10  -3   97.18    2.64
  -1 -10   3  102.03    2.64
   1  10  -3   96.50    2.68
  -1  10   3   99.01    2.49
  -1  10   3  100.79    2.53
   1  10  -3   97.80    2.53
   1  10  -3   99.36    2.64
  -1  10   3   98.97    2.64
  -1  10   3   95.80    2.59
   0 -10   3  115.96    2.99
   0 -10   3  111.89    3.05
   0 -10   3  108.72    3.08
   0 -10  -3  113.12    3.06
   0 -10  -3  115.14    3.02
   0 -10  -3  116.79    3.01
   0 -10   3  118.87    3.11
   0 -10   3  117.30    3.01
   0  10   3  111.38    2.97
   0  10  -3  111.70    2.99
   0  10   3  117.09    3.01
   0  10   3  114.43    3.04
   0  10  -3  113.71    3.05
   1 -10   3   16.07    0.71
   1 -10   3   16.26    0.61
   1 -10   3   16.15    0.67
  -1 -10  -3   16.65    0.62
  -1 -10  -3   16.84    0.72
   1 -10   3   16.22    0.69
   1 -10   3   15.06    0.76
  -1  10  -3   16.03    0.65
   1  10   3   16.97    0.69
   1  10   3   16.31    0.60
  -1  10  -3   16.30    0.68
   1  10   3   15.85    0.68
  -1  10  -3   16.49    0.76
   1  10   3   18.01    0.73
   2 -10   3   80.65    2.35
  -2 -10  -3   78.80    2.37
  -2 -10  -3   83.95    2.16
  -2 -10  -3   80.36    2.05
   2 -10   3   70.52    2.41
   2 -10   3   80.61    2.17
   2 -10   3   84.26    2.30
   2 -10   3   79.51    2.31
  -2  10  -3   81.81    2.19
   2  10   3   81.69    2.06
   2  10   3   83.71    2.32
  -2  10  -3   82.34    2.34
   2  10   3   84.29    2.39
   2  10   3   77.71    2.30
   2  10   3   83.62    2.21
  -3 -10  -3   27.88    0.91
  -3 -10  -3   29.40    0.88
   3 -10   3   24.77    1.17
   3 -10   3   29.95    0.88
  -3 -10  -3   29.40    1.22
   3 -10   3   28.13    1.27
  -3  10  -3   28.63    0.90
  -3  10  -3   28.88    1.13
   3  10   3   29.78    0.92
   3  10   3   28.86    0.92
   3  10   3   27.70    1.08
   4 -10   3    9.95    0.85
   4 -10   3   12.32    0.96
  -4 -10  -3   10.50    0.57
  -4  10  -3   11.31    0.78
   4  10   3   10.49    0.58
   4  10   3   10.45    0.72
  -4  10  -3   10.81    0.45
  -5 -10  -3    2.15    0.54
   5 -10   3    0.54    0.46
   5 -10   3    3.11    0.72
   5  10   3    2.33    0.46
  -5  10  -3    2.24    0.53
   5  10   3    1.76    0.45
   7 -11  -3    9.24    1.30
  -7 -11   3    9.24    1.05
  -7  11   3   10.71    0.91
   7  11  -3    8.46    0.91
  -7  11   3    8.97    0.87
   6 -11  -3    9.77    0.97
  -6 -11   3   10.97    0.92
  -6  11   3   10.63    0.75
   6  11  -3   11.26    0.92
  -6  11   3   11.56    0.80
   6  11  -3   10.66    0.81
   5 -11  -3    7.88    0.75
  -5 -11   3    6.00    0.72
   5  11  -3    6.78    0.71
   5  11  -3    7.58    0.62
  -5  11   3    7.69    0.63
  -5  11   3    6.67    0.59
  -4 -11   3   70.73    2.21
   4 -11  -3   68.82    2.09
   4 -11  -3   73.60    2.21
  -4  11   3   73.00    2.14
   4  11  -3   70.57    2.14
  -4  11   3   72.22    2.08
  -4  11   3   67.93    2.13
   4  11  -3   72.08    2.21
   4  11  -3   72.51    2.11
   3 -11  -3   34.91    1.18
  -3 -11   3   35.69    1.30
  -3 -11   3   36.81    1.30
   3 -11  -3   36.39    1.21
  -3 -11   3   35.64    1.22
  -3  11   3   36.17    1.17
   3  11  -3   35.02    1.27
  -3  11   3   34.89    1.16
   3  11  -3   34.70    1.20
  -3  11   3   34.36    1.20
   3  11  -3   33.45    1.15
   2 -11  -3    2.77    0.34
   2 -11  -3    2.12    0.30
   2 -11  -3    2.24    0.15
  -2 -11   3    2.06    0.33
   2 -11  -3    2.43    0.27
  -2 -11   3    2.35    0.20
  -2 -11   3    2.69    0.39
  -2  11   3    2.16    0.29
  -2  11   3    2.42    0.16
   2  11  -3    1.94    0.18
  -2  11   3    2.10    0.27
  -2  11   3    1.70    0.24
   2  11  -3    2.30    0.30
   2  11  -3    2.24    0.34
   2  11  -3    2.00    0.29
   1 -11  -3   83.36    2.17
  -1 -11   3   80.78    2.28
  -1 -11   3   71.46    2.32
  -1 -11   3   81.69    2.32
  -1 -11   3   86.56    2.29
   1 -11  -3   80.31    2.28
   1 -11  -3   86.21    2.29
   1 -11  -3   81.41    2.11
  -1  11   3   80.93    2.27
   1  11  -3   83.82    2.16
  -1  11   3   84.27    2.11
   1  11  -3   79.09    2.32
  -1  11   3   82.53    2.24
   1  11  -3   82.13    2.28
  -1  11   3   85.41    2.16
   0 -11   3    0.83    0.23
   0 -11  -3    0.59    0.21
   0 -11   3    0.46    0.18
   0 -11  -3    0.79    0.20
   0 -11   3    0.98    0.29
   0 -11  -3    0.83    0.21
   0 -11   3    0.33    0.19
   0 -11   3    0.83    0.19
   0  11   3    0.60    0.19
   0  11  -3    0.47    0.17
   0  11  -3    0.54    0.20
   0  11  -3    1.07    0.26
   0  11   3    0.67    0.19
   0  11   3    0.51    0.16
   1 -11   3    2.98    0.37
   1 -11   3    2.41    0.30
   1 -11   3    2.87    0.32
  -1 -11  -3    3.10    0.29
   1 -11   3    2.69    0.33
   1 -11   3    2.65    0.39
  -1 -11  -3    3.17    0.38
  -1  11  -3    2.83    0.35
   1  11   3    2.91    0.37
  -1  11  -3    2.27    0.34
   1  11   3    2.72    0.30
  -1  11  -3    2.72    0.34
   1  11   3    2.72    0.37
   1  11   3    2.87    0.34
   2 -11   3    7.03    0.52
   2 -11   3    5.02    0.54
   2 -11   3    7.27    0.43
   2 -11   3    5.90    0.61
  -2 -11  -3    7.23    0.40
  -2 -11  -3    8.12    0.59
   2  11   3    6.61    0.58
  -2  11  -3    6.80    0.51
   2  11   3    7.50    0.26
   2  11   3    7.11    0.51
  -2  11  -3    7.60    0.45
   2  11   3    7.14    0.46
   3 -11   3   26.34    1.26
  -3 -11  -3   28.16    0.89
  -3 -11  -3   27.42    0.85
   3 -11   3   28.26    0.90
  -3 -11  -3   28.09    1.23
   3 -11   3   28.68    1.09
   3  11   3   30.24    1.45
  -3  11  -3   29.73    1.15
   3  11   3   27.82    0.95
  -3  11  -3   28.85    0.92
   3  11   3   28.29    0.88
   4 -11   3    1.27    0.53
   4 -11   3    0.50    0.33
   4  11   3    0.58    0.24
  -4  11  -3    0.86    0.22
   4  11   3    1.07    0.35
   4  11   3    1.39    0.22
  -4  11  -3    0.84    0.37
   5 -11   3   19.94    1.00
  -5 -11  -3   17.55    1.20
   5 -11   3   16.26    1.28
   5  11   3   18.88    1.01
  -5  11  -3   17.04    1.07
   6 -12  -3    4.01    0.69
  -6 -12   3    4.26    0.63
   6  12  -3    3.14    0.53
  -6  12   3    3.00    0.48
  -6  12   3    3.36    0.49
   6  12  -3    2.97    0.57
  -5 -12   3    0.83    0.38
   5 -12  -3   -0.57    0.36
   5  12  -3    0.33    0.32
   5  12  -3   -0.46    0.25
  -4 -12   3    3.72    0.50
   4 -12  -3    3.51    0.47
  -4  12   3    2.58    0.38
   4  12  -3    2.73    0.44
  -4  12   3    2.89    0.46
   4  12  -3    2.62    0.36
  -4  12   3    3.01    0.37
   3 -12  -3   33.42    1.14
   3 -12  -3   33.24    1.15
  -3 -12   3   30.41    1.24
  -3 -12   3   32.58    1.24
  -3 -12   3   32.39    1.16
  -3  12   3   33.39    1.11
  -3  12   3   32.71    1.11
  -3  12   3   33.36    1.17
   3  12  -3   33.28    1.11
   3  12  -3   32.13    1.23
   3  12  -3   32.32    1.16
   2 -12  -3   55.85    1.43
   2 -12  -3   54.84    1.58
  -2 -12   3   52.92    1.74
   2 -12  -3   54.63    1.65
  -2 -12   3   55.30    1.75
  -2 -12   3   56.51    1.47
   2 -12  -3   55.43    1.68
  -2  12   3   53.63    1.62
  -2  12   3   56.26    1.43
  -2  12   3   53.30    1.66
   2  12  -3   55.94    1.68
  -2  12   3   57.23    1.56
   2  12  -3   55.11    1.64
   2  12  -3   55.41    1.74
  -1 -12   3    6.26    0.42
   1 -12  -3    4.98    0.43
  -1 -12   3    4.97    0.46
  -1 -12   3    5.13    0.51
  -1 -12   3    5.14    0.43
   1 -12  -3    5.42    0.28
   1 -12  -3    5.59    0.33
  -1 -12   3    5.56    0.32
   1 -12  -3    5.07    0.41
   1  12  -3    5.53    0.32
  -1  12   3    5.74    0.26
  -1  12   3    5.79    0.33
  -1  12   3    5.51    0.40
   1  12  -3    4.96    0.46
   1  12  -3    5.72    0.43
  -1  12   3    5.71    0.39
   0 -12   3   72.89    2.06
   0 -12  -3   70.78    1.98
   0 -12  -3   72.46    1.98
   0 -12   3   70.35    2.06
   0 -12   3   68.85    1.94
   0 -12  -3   68.98    2.02
   0 -12   3   67.70    2.02
   0 -12   3   70.82    1.96
   0  12   3   71.62    1.97
   0  12  -3   71.16    2.04
   0  12  -3   70.77    2.01
   0  12  -3   69.24    1.95
   0  12   3   69.21    2.00
   0  12   3   66.78    1.93
   1 -12   3    6.62    0.40
  -1 -12  -3    6.23    0.40
   1 -12   3    5.63    0.46
  -1 -12  -3    5.74    0.46
   1 -12   3    6.45    0.52
   1 -12   3    5.77    0.44
   1 -12   3    6.09    0.55
   1  12   3    5.80    0.44
  -1  12  -3    5.59    0.43
  -1  12  -3    6.12    0.45
   1  12   3    6.15    0.48
  -1  12  -3    6.24    0.52
   1  12   3    5.88    0.39
   2 -12   3   31.58    1.13
   2 -12   3   27.76    1.25
  -2 -12  -3   32.83    1.01
   2 -12   3   32.13    1.03
  -2 -12  -3   30.32    1.20
   2  12   3   32.80    1.07
  -2  12  -3   32.51    1.17
   2  12   3   31.75    1.22
  -2  12  -3   32.73    1.06
   2  12   3   32.42    1.13
   3 -12   3    4.28    0.40
   3 -12   3    4.20    0.51
   3 -12   3    3.40    0.56
  -3 -12  -3    4.28    0.36
  -3 -12  -3    4.51    0.30
  -3  12  -3    4.71    0.41
  -3  12  -3    4.60    0.55
   3  12   3    4.15    0.50
   3  12   3    3.74    0.45
   3  12   3    4.60    0.30
   4 -12   3   24.31    1.08
   4 -12   3   24.96    1.39
  -4 -12  -3   24.01    1.24
  -4  12  -3   24.83    1.15
   4  12   3   24.34    0.88
  -4  12  -3   24.89    0.93
   4  12   3   25.13    1.08
   4  12   3   25.72    0.85
  -5 -12  -3    9.14    1.06
   5 -12   3    8.66    0.83
   5 -12   3    7.87    0.98
  -5  12  -3    7.84    0.88
   5  12   3    7.91    0.79
   6 -13  -3    2.32    0.63
  -6 -13   3    1.99    0.56
   6  13  -3    2.80    0.54
  -6  13   3    2.79    0.49
  -6  13   3    2.14    0.45
   6  13  -3    2.89    0.48
   5 -13  -3   29.78    1.33
  -5 -13   3   30.92    1.34
   5  13  -3   28.01    1.30
  -5  13   3   30.64    1.24
   5  13  -3   29.10    1.17
   4 -13  -3    1.00    0.34
  -4 -13   3    0.90    0.38
  -4  13   3    0.86    0.31
   4  13  -3    1.06    0.30
   4  13  -3    1.02    0.39
  -4  13   3    0.60    0.27
  -3 -13   3   92.96    2.76
   3 -13  -3   94.51    2.63
  -3 -13   3   92.05    2.74
   3 -13  -3   90.96    2.62
  -3  13   3   93.56    2.65
   3  13  -3   95.48    2.73
  -3  13   3   92.60    2.56
   3  13  -3   91.69    2.64
   3  13  -3   92.80    2.58
  -3  13   3   93.25    2.58
  -2 -13   3    5.29    0.52
   2 -13  -3    3.81    0.43
  -2 -13   3    3.84    0.49
  -2 -13   3    4.29    0.44
   2 -13  -3    4.56    0.25
  -2 -13   3    4.66    0.28
   2 -13  -3    3.88    0.33
   2 -13  -3    3.54    0.43
   2  13  -3    4.12    0.43
  -2  13   3    4.24    0.42
  -2  13   3    4.15    0.40
   2  13  -3    4.23    0.26
   2  13  -3    4.18    0.46
  -2  13   3    4.35    0.24
  -2  13   3    4.68    0.33
   1 -13  -3   28.24    0.81
  -1 -13   3   27.66    1.01
   1 -13  -3   28.82    0.99
  -1 -13   3   28.58    1.05
   1 -13  -3   27.66    0.89
  -1 -13   3   23.82    1.05
  -1 -13   3   27.64    0.88
  -1 -13   3   28.40    0.99
   1 -13  -3   28.12    1.01
  -1  13   3   28.35    1.00
   1  13  -3   27.58    1.04
  -1  13   3   28.14    0.95
   1  13  -3   27.84    0.89
   1  13  -3   28.70    1.01
  -1  13   3   28.93    0.79
  -1  13   3   27.81    0.89
   0 -13   3    7.92    0.53
   0 -13  -3    8.41    0.49
   0 -13   3    7.03    0.44
   0 -13  -3    8.29    0.47
   0 -13   3    8.79    0.58
   0 -13   3    8.90    0.54
   0 -13   3    8.47    0.47
   0 -13  -3    9.02    0.54
   0  13   3    8.26    0.46
   0  13  -3    7.94    0.52
   0  13  -3    7.71    0.52
   0  13   3    7.27    0.49
   0  13   3    9.04    0.49
   0  13  -3    8.80    0.47
   1 -13   3   11.13    0.66
   1 -13   3   11.20    0.60
   1 -13   3   10.60    0.60
   1 -13   3   11.78    0.70
  -1 -13  -3   11.66    0.55
  -1 -13  -3   10.94    0.64
   1  13   3   11.91    0.63
   1  13   3   11.20    0.55
  -1  13  -3   11.27    0.60
  -1  13  -3   11.84    0.61
  -1  13  -3   11.53    0.69
   1  13   3   11.13    0.58
   2 -13   3   -0.14    0.30
   2 -13   3    0.15    0.30
  -2 -13  -3    0.38    0.19
  -2 -13  -3    0.07    0.27
  -2  13  -3    0.34    0.26
   2  13   3    0.32    0.22
   2  13   3   -0.18    0.21
  -2  13  -3    0.31    0.23
  -3 -13  -3   36.80    1.04
   3 -13   3   35.89    1.57
  -3 -13  -3   38.45    1.16
  -3  13  -3   38.99    1.41
   3  13   3   34.60    1.24
   3  13   3   37.64    1.21
   3  13   3   40.74    1.36
  -3  13  -3   37.73    1.20
   4 -13   3    7.82    0.99
  -4 -13  -3    7.66    0.86
   4 -13   3    8.29    0.70
   4  13   3    8.20    0.48
  -4  13  -3    8.51    0.76
   4  13   3    8.02    0.53
  -4  13  -3    8.43    0.77
   4  13   3    7.68    0.68
   5 -13   3   30.82    1.75
   5 -13   3   35.73    1.41
  -5 -13  -3   32.59    1.62
   5  13   3   37.73    1.56
  -5  13  -3   36.74    1.58
   6 -14  -3    1.31    0.61
  -6 -14   3    0.32    0.54
   6  14  -3   -0.11    0.46
  -6  14   3   -0.60    0.37
  -6  14   3    0.83    0.38
   6  14  -3    0.80    0.43
   5 -14  -3    0.83    0.41
  -5 -14   3    0.90    0.47
   5  14  -3    0.72    0.44
  -5  14   3    0.71    0.34
   5  14  -3    0.82    0.32
  -4 -14   3   39.48    1.55
   4 -14  -3   40.95    1.48
   4  14  -3   41.42    1.52
  -4  14   3   40.69    1.37
  -4  14   3   38.09    1.44
  -3 -14   3    2.53    0.62
  -3 -14   3    2.26    0.44
   3 -14  -3    2.03    0.34
  -3  14   3    2.32    0.31
   3  14  -3    1.61    0.39
   3  14  -3    1.92    0.13
   3  14  -3    1.59    0.29
  -3  14   3    2.33    0.35
  -3  14   3    2.42    0.35
  -2 -14   3   77.50    2.31
   2 -14  -3   75.46    1.97
  -2 -14   3   76.14    2.19
   2 -14  -3   75.86    2.20
   2 -14  -3   71.90    2.18
  -2 -14   3   75.70    1.98
   2 -14  -3   75.93    2.09
  -2 -14   3   72.47    2.13
  -2 -14   3   70.07    2.25
  -2  14   3   75.84    2.14
   2  14  -3   74.05    2.20
  -2  14   3   77.08    2.04
   2  14  -3   76.49    1.98
   2  14  -3   75.85    2.27
  -2  14   3   78.53    1.96
  -2  14   3   74.96    2.20
   1 -14  -3    0.85    0.26
  -1 -14   3    0.68    0.23
   1 -14  -3    0.54    0.22
   1 -14  -3    0.69    0.21
   1 -14  -3    0.73    0.15
  -1 -14   3    0.43    0.17
  -1 -14   3    0.20    0.29
  -1 -14   3    0.71    0.26
  -1 -14   3    0.47    0.24
  -1  14   3    0.51    0.21
   1  14  -3    0.74    0.25
  -1  14   3    0.63    0.12
  -1  14   3    0.57    0.19
   1  14  -3    0.44    0.25
   1  14  -3    0.79    0.19
  -1  14   3    0.49    0.22
   0 -14   3  152.67    3.95
   0 -14  -3  144.73    3.94
   0 -14  -3  147.04    3.88
   0 -14   3  147.06    3.84
   0 -14   3  152.29    3.97
   0 -14   3  140.90    3.93
   0 -14  -3  148.94    3.88
   0  14   3  142.96    3.84
   0  14  -3  150.26    3.93
   0  14   3  153.88    3.88
   0  14  -3  145.11    3.94
   0  14   3  146.48    3.91
   0  14  -3  147.31    3.86
   1 -14   3   10.50    0.59
   1 -14   3   12.41    0.72
   1 -14   3    9.96    0.63
  -1 -14  -3   10.81    0.65
  -1 -14  -3   11.64    0.57
   1 -14   3   11.23    0.64
   1  14   3   11.25    0.61
   1  14   3   11.92    0.58
  -1  14  -3   11.37    0.63
   1  14   3   10.55    0.62
  -1  14  -3   12.03    0.62
  -2 -14  -3   75.90    2.32
   2 -14   3   78.62    2.16
   2 -14   3   66.24    2.35
  -2  14  -3   74.35    2.16
  -2  14  -3   77.44    2.28
   2  14   3   79.64    2.24
   2  14   3   78.14    2.18
  -3 -14  -3    2.56    0.31
   3 -14   3    2.11    0.56
  -3 -14  -3    2.09    0.22
   3  14   3    2.09    0.37
   3  14   3    2.18    0.20
   3  14   3    2.38    0.39
  -3  14  -3    3.06    0.37
  -3  14  -3    2.22    0.42
   4 -14   3    1.47    0.43
   4 -14   3    1.78    0.65
  -4 -14  -3    0.98    0.47
   4  14   3    0.37    0.35
   4  14   3    0.81    0.32
  -4  14  -3    0.28    0.38
   5 -14   3    0.11    0.46
   5 -14   3    0.32    0.73
  -5  14  -3    0.50    0.58
  -6 -15   3    1.31    0.55
   6 -15  -3    1.74    0.63
  -6  15   3    0.41    0.41
   6  15  -3    0.81    0.42
  -6  15   3    0.81    0.44
   6  15  -3    0.48    0.53
  -5 -15   3   50.43    1.95
   5 -15  -3   52.63    1.91
   5  15  -3   51.76    1.72
   5  15  -3   51.00    1.88
  -5  15   3   52.02    1.81
  -5  15   3   50.80    1.69
  -4 -15   3    0.42    0.40
   4 -15  -3    0.22    0.32
   4  15  -3    0.93    0.30
  -4  15   3    0.06    0.27
   4  15  -3    0.31    0.36
   3 -15  -3   23.43    0.96
  -3 -15   3   23.80    1.12
  -3 -15   3   24.76    0.68
   3  15  -3   23.50    0.93
   3  15  -3   23.83    0.66
  -3  15   3   24.24    0.90
  -3  15   3   23.90    1.00
  -2 -15   3    1.27    0.37
  -2 -15   3    0.88    0.26
   2 -15  -3    1.17    0.48
   2 -15  -3    1.16    0.18
  -2 -15   3    1.21    0.20
  -2 -15   3    0.58    0.33
   2 -15  -3    1.04    0.24
  -2 -15   3    0.82    0.33
   2  15  -3    0.88    0.28
   2  15  -3    0.95    0.18
  -2  15   3    0.42    0.21
   2  15  -3    0.80    0.28
  -2  15   3    1.39    0.19
  -2  15   3    1.00    0.21
  -2  15   3    1.00    0.25
  -1 -15   3   22.87    0.92
   1 -15  -3   24.20    0.82
  -1 -15   3   23.76    0.80
   1 -15  -3   23.40    0.70
   1 -15  -3   23.96    0.92
  -1 -15   3   22.92    0.99
  -1 -15   3   19.86    0.98
  -1 -15   3   22.72    0.89
  -1  15   3   24.64    0.80
  -1  15   3   22.97    0.66
   1  15  -3   22.97    0.98
  -1  15   3   23.34    0.87
   1  15  -3   22.75    0.80
   1  15  -3   22.49    0.92
  -1  15   3   22.80    0.91
   0 -15  -3    7.16    0.54
   0 -15   3    6.43    0.54
   0 -15   3    8.10    0.66
   0 -15   3    7.25    0.54
   0 -15   3    8.05    0.47
   0 -15  -3    7.11    0.51
   0 -15  -3    7.77    0.51
   0  15   3    6.95    0.48
   0  15  -3    7.40    0.57
   0  15  -3    6.68    0.54
   0  15   3    6.68    0.49
   0  15  -3    7.76    0.49
   0  15   3    6.95    0.47
   1 -15   3    0.87    0.33
   1 -15   3    0.75    0.27
   1 -15   3    0.68    0.25
  -1 -15  -3    0.35    0.20
  -1 -15  -3    0.77    0.28
  -1  15  -3    0.70    0.26
  -1  15  -3    0.68    0.27
   1  15   3    0.83    0.24
   1  15   3    0.61    0.30
   1  15   3    0.71    0.25
   2 -15   3    0.57    0.30
   2 -15   3    0.90    0.40
   2 -15   3    0.98    0.49
  -2  15  -3    0.75    0.42
   2  15   3    0.75    0.34
   2  15   3    1.03    0.29
  -2  15  -3    0.92    0.27
  -3 -15  -3   42.30    1.30
   3 -15   3   37.28    1.68
  -3 -15  -3   42.66    1.68
  -3  15  -3   42.48    1.54
   3  15   3   35.22    1.37
  -3  15  -3   43.94    1.36
   3  15   3   43.79    1.46
  -4 -15  -3    1.04    0.50
   4 -15   3    2.00    0.46
   4 -15   3    1.30    0.61
  -4  15  -3    1.80    0.49
   4  15   3    2.00    0.41
   4  15   3    2.37    0.40
   5 -15   3   20.19    1.11
   6 -16  -3    2.14    0.64
  -6 -16   3    1.47    0.63
  -6  16   3    1.64    0.54
   6  16  -3    1.40    0.43
   6  16  -3    2.25    0.63
  -6  16   3    2.20    0.45
   5 -16  -3    0.85    0.49
  -5 -16   3    0.31    0.50
   5  16  -3    0.41    0.33
   5  16  -3    0.68    0.46
  -5  16   3    0.17    0.36
  -5  16   3    0.93    0.37
  -4 -16   3    1.01    0.44
   4 -16  -3    0.44    0.34
   4  16  -3    0.57    0.29
  -4  16   3    0.45    0.32
   4  16  -3    0.34    0.38
   3 -16  -3    0.07    0.27
  -3 -16   3    0.32    0.14
  -3 -16   3    0.22    0.38
  -3  16   3    0.13    0.29
   3  16  -3    0.47    0.32
   3  16  -3    0.26    0.13
   3  16  -3    0.57    0.27
  -3  16   3    0.37    0.24
  -3  16   3    0.36    0.24
  -2 -16   3   34.38    1.04
   2 -16  -3   34.29    1.01
  -2 -16   3   34.10    1.33
  -2 -16   3   30.70    1.50
   2 -16  -3   34.22    1.11
  -2 -16   3   33.98    1.19
   2  16  -3   33.93    1.31
   2  16  -3   33.33    1.02
  -2  16   3   35.01    1.24
  -2  16   3   34.85    1.18
  -2  16   3   34.78    1.00
  -2  16   3   35.21    1.04
  -1 -16   3    0.79    0.27
  -1 -16   3    1.08    0.24
   1 -16  -3    1.22    0.17
  -1 -16   3    1.08    0.32
   1 -16  -3    1.20    0.31
  -1 -16   3    0.96    0.34
  -1 -16   3    0.80    0.36
   1 -16  -3    0.71    0.22
  -1  16   3    0.84    0.24
   1  16  -3    0.97    0.33
  -1  16   3    0.89    0.26
  -1  16   3    1.14    0.14
  -1  16   3    1.38    0.24
   1  16  -3    0.78    0.21
   0 -16  -3   92.04    2.59
   0 -16   3   94.33    2.67
   0 -16   3   89.22    2.53
   0 -16   3   94.41    2.63
   0  16  -3   89.75    2.65
   0  16  -3   93.25    2.56
   0  16   3   94.93    2.57
   0  16   3   91.54    2.61
   0  16   3   90.89    2.55
   1 -16   3    0.59    0.31
   1 -16   3    0.70    0.32
  -1 -16  -3    0.54    0.30
   1  16   3    1.21    0.43
   1  16   3    0.87    0.27
  -1  16  -3    0.42    0.25
   1  16   3    0.21    0.22
  -1  16  -3    0.36    0.24
  -2 -16  -3   78.44    2.44
   2 -16   3   76.15    2.51
   2 -16   3   79.04    2.35
   2  16   3   83.09    2.31
   2  16   3   79.49    2.33
  -2  16  -3   77.17    2.28
  -2  16  -3   78.18    2.37
  -3 -16  -3   -0.27    0.38
   3 -16   3    0.87    0.46
   3 -16   3    0.83    0.51
   3  16   3    0.50    0.32
   3  16   3    0.22    0.35
  -3  16  -3    0.82    0.30
  -3  16  -3    0.60    0.35
   4 -16   3   31.95    1.74
   4 -16   3   35.65    1.43
  -4 -16  -3   35.77    1.61
  -4  16  -3   39.10    1.56
   4  16   3   38.64    1.41
  -6 -17   3    2.69    0.73
   6 -17  -3    2.80    0.69
  -6  17   3    3.13    0.63
   6  17  -3    2.15    0.63
   6  17  -3    2.27    0.51
  -6  17   3    1.17    0.44
  -5 -17   3   52.94    2.12
   5 -17  -3   56.57    2.04
   5  17  -3   55.23    1.80
   5  17  -3   53.98    2.06
  -5  17   3   54.92    1.95
  -5  17   3   55.98    1.80
   4 -17  -3   11.89    0.81
  -4 -17   3   10.68    0.93
   4  17  -3   11.17    0.88
  -4  17   3   11.54    0.80
   4  17  -3   11.71    0.70
  -3 -17   3   45.62    1.25
   3 -17  -3   46.52    1.16
  -3 -17   3   44.42    1.68
   3 -17  -3   45.20    1.51
   3 -17  -3   45.96    1.17
   3  17  -3   44.21    1.47
   3  17  -3   44.54    1.66
  -3  17   3   45.62    1.41
  -3  17   3   44.38    1.57
   2 -17  -3    0.35    0.19
   2 -17  -3    0.23    0.22
  -2 -17   3    0.67    0.27
  -2 -17   3    0.96    0.51
  -2 -17   3    0.35    0.20
  -2  17   3   -0.06    0.18
  -2  17   3    0.60    0.26
   2  17  -3    0.49    0.18
  -2  17   3    0.99    0.20
   1 -17  -3    4.82    0.31
   1 -17  -3    4.61    0.43
  -1 -17   3    5.36    0.52
  -1 -17   3    5.29    0.69
  -1 -17   3    5.73    0.41
  -1  17   3    4.83    0.48
  -1  17   3    4.86    0.48
  -1  17   3    4.94    0.39
  -1  17   3    4.49    0.25
   1  17  -3    4.75    0.39
   1  17  -3    4.93    0.56
   0 -17   3    2.48    0.42
   0 -17   3    2.26    0.30
   0 -17  -3    2.37    0.35
   0 -17   3    2.08    0.38
   0 -17  -3    2.18    0.37
   0  17   3    2.44    0.33
   0  17   3    2.19    0.34
   0  17   3    2.17    0.34
   0  17  -3    2.25    0.39
   0  17  -3    2.31    0.33
  -1 -17  -3   -0.03    0.29
   1 -17   3   -0.12    0.38
   1 -17   3   -0.24    0.28
   1  17   3    0.01    0.52
   1  17   3    0.00    0.25
  -1  17  -3    0.15    0.26
  -1  17  -3    0.40    0.27
  -2 -17  -3    2.29    0.51
   2 -17   3    1.01    0.42
  -2  17  -3    1.22    0.35
   2  17   3    1.38    0.34
   2  17   3    1.87    0.36
  -2  17  -3    1.96    0.41
  -3 -17  -3    2.04    0.50
   3 -17   3    2.26    0.48
   3 -17   3    2.21    0.61
   3  17   3    1.30    0.42
   3  17   3    2.30    0.42
  -3  17  -3    2.21    0.39
  -3  17  -3    2.05    0.47
   4 -17   3    0.81    0.41
   4 -17   3    0.69    0.60
  -4 -17  -3    1.25    0.55
   4  17   3    0.81    0.38
  -6 -18   3    3.64    0.85
   6 -18  -3    5.23    0.82
   6  18  -3    5.02    0.81
  -6  18   3    4.25    0.67
   6  18  -3    4.76    0.60
  -6  18   3    4.28    0.61
  -5 -18   3    1.76    0.68
   5 -18  -3    1.93    0.56
   5  18  -3    1.91    0.60
  -5  18   3    1.94    0.44
   5  18  -3    2.24    0.44
   4 -18  -3    3.18    0.52
  -4 -18   3    3.46    0.65
   4  18  -3    3.59    0.46
   4  18  -3    2.77    0.49
  -4  18   3    3.27    0.46
  -4  18   3    2.43    0.46
  -3 -18   3    2.58    0.32
   3 -18  -3    3.06    0.44
  -3 -18   3    2.53    0.49
   3 -18  -3    2.81    0.24
   3 -18  -3    2.59    0.25
  -3  18   3    3.33    0.49
   3  18  -3    2.89    0.28
  -3  18   3    2.68    0.36
   3  18  -3    2.76    0.49
   2 -18  -3   30.54    1.05
  -2 -18   3   32.51    1.01
  -2 -18   3   30.12    1.15
   2 -18  -3   31.16    0.99
  -2  18   3   31.10    1.19
  -2  18   3   31.39    0.97
   2  18  -3   30.88    0.99
   1 -18  -3    0.94    0.24
   1 -18  -3    1.34    0.30
  -1 -18   3    1.49    0.32
  -1 -18   3    0.69    0.26
  -1  18   3    1.54    0.26
   1  18  -3    1.43    0.27
  -1  18   3    1.43    0.21
   0 -18   3   58.72    1.92
   0 -18  -3   61.50    1.85
   0 -18   3   57.06    1.77
   0 -18   3   62.11    1.87
   0  18  -3   59.47    1.81
   0  18   3   58.31    1.81
   0  18  -3   59.55    1.92
   1 -18   3    4.50    0.57
  -1 -18  -3    5.32    0.61
   1 -18   3    4.80    0.57
   1  18   3    4.54    0.50
  -1  18  -3    5.39    0.57
  -1  18  -3    5.27    0.55
   1  18   3    5.34    0.53
   2 -18   3   61.69    2.12
  -2  18  -3   56.69    1.89
   2  18   3   62.51    1.91
  -2  18  -3   60.45    1.98
   2  18   3   61.04    1.91
  -3 -18  -3    3.18    0.54
   3 -18   3    2.53    0.60
   3 -18   3    4.05    0.53
  -3  18  -3    2.91    0.45
   3  18   3    2.75    0.45
  -3  18  -3    3.41    0.52
   3  18   3    1.87    0.46
   4 -18   3   13.56    0.96
  -4 -18  -3   13.90    1.20
   4 -18   3   14.57    1.33
  -4  18  -3   12.41    0.99
   4  18   3   14.58    0.92
  -5 -19   3   30.97    1.63
   5 -19  -3   31.55    1.50
  -5  19   3   29.52    1.40
  -5  19   3   31.58    1.27
   5  19  -3   30.92    1.24
   5  19  -3   30.33    1.56
  -4 -19   3    0.76    0.50
   4  19  -3    0.29    0.31
   4  19  -3    0.20    0.40
  -4  19   3    0.44    0.34
  -4  19   3    0.30    0.32
  -3 -19   3   36.43    1.26
  -3 -19   3   33.74    1.49
   3 -19  -3   33.53    1.26
  -3 -19   3   30.99    1.03
   3 -19  -3   34.30    0.96
   3  19  -3   32.14    1.43
   3  19  -3   34.10    0.99
  -3  19   3   32.91    1.14
  -3  19   3   33.90    1.34
  -2 -19   3    4.58    0.42
   2 -19  -3    5.11    0.41
  -2 -19   3    3.98    0.55
   2 -19  -3    4.07    0.42
  -2  19   3    5.38    0.39
  -2  19   3    4.44    0.35
  -2  19   3    4.65    0.56
   2  19  -3    4.45    0.39
  -1 -19   3   13.99    0.66
   1 -19  -3   14.25    0.69
  -1 -19   3   14.31    0.76
  -1  19   3   14.49    0.48
  -1  19   3   14.30    0.67
   1  19  -3   14.71    0.68
  -1  19   3   13.72    0.74
   1  19  -3   13.84    0.84
  -1  19   3   12.54    0.75
   0 -19   3    6.40    0.72
   0 -19  -3    6.95    0.60
   0 -19   3    8.17    0.68
   0 -19   3    6.46    0.63
   0  19  -3    6.42    0.53
   0  19  -3    5.62    0.73
   0  19   3    6.02    0.59
   0  19   3    7.21    0.58
   1 -19   3    4.34    0.56
  -1 -19  -3    2.98    0.48
  -1  19  -3    3.76    0.50
   1  19   3    3.54    0.56
   1  19   3    3.83    0.53
   2 -19   3    5.20    0.67
   2 -19   3    4.43    0.63
   2  19   3    5.97    0.62
  -2  19  -3    4.75    0.65
   2  19   3    5.58    0.60
  -2  19  -3    4.75    0.62
  -3 -19  -3    2.20    0.59
   3 -19   3    2.13    0.51
   3 -19   3    0.85    0.60
  -3  19  -3    1.89    0.47
   3  19   3    1.65    0.50
   3  19   3    2.40    0.44
  -3  19  -3    1.92    0.46
  -4 -19  -3    4.10    0.77
   4 -19   3    6.57    0.79
   4 -19   3    3.85    0.85
  -4  19  -3    4.18    0.65
   4  19   3    5.37    0.82
   5 -20  -3   -0.08    0.55
  -5 -20   3   -0.19    0.64
  -5  20   3   -0.11    0.38
   5  20  -3    0.91    0.56
   5  20  -3    0.15    0.37
  -4 -20   3   13.02    1.09
   4 -20  -3   12.53    0.90
   4  20  -3   12.22    0.76
  -4  20   3   11.19    0.81
   4  20  -3   11.35    1.01
  -4  20   3   14.79    0.96
  -3 -20   3    5.17    0.59
   3 -20  -3    4.82    0.37
   3 -20  -3    5.51    0.59
  -3 -20   3    4.61    0.59
  -3 -20   3    6.74    0.79
   3  20  -3    5.77    0.39
   3  20  -3    6.36    0.76
  -3  20   3    5.36    0.63
  -3  20   3    5.03    0.62
   2 -20  -3   15.87    0.67
  -2 -20   3   14.82    0.84
  -2 -20   3   14.64    0.68
   2 -20  -3   16.07    0.71
  -2  20   3   15.83    0.65
  -2  20   3   15.41    0.60
  -2  20   3   15.13    0.85
   2  20  -3   15.59    0.66
   1 -20  -3   14.54    0.73
  -1 -20   3   14.01    0.83
  -1 -20   3   13.18    0.70
  -1  20   3   15.21    0.69
  -1  20   3   14.00    0.77
   1  20  -3   14.95    0.71
  -1  20   3   14.62    0.81
  -1  20   3   15.99    0.50
   0 -20  -3   30.87    1.21
   0 -20   3   31.80    1.22
   0  20   3   32.26    1.23
   0  20   3   30.39    1.17
   0  20  -3   31.26    1.31
   0  20  -3   32.02    1.17
  -1 -20  -3    0.84    0.39
   1 -20   3    1.92    0.45
  -1  20  -3    1.11    0.39
   1  20   3    0.89    0.33
   1  20   3    1.42    0.35
  -1  20  -3    0.57    0.35
   2 -20   3   45.37    1.75
   2 -20   3   41.82    1.59
  -2 -20  -3   42.34    1.67
   2  20   3   43.51    1.55
   2  20   3   46.11    1.56
  -2  20  -3   42.91    1.61
  -2  20  -3   41.14    1.54
   3 -20   3    8.15    0.80
  -3 -20  -3    6.95    0.93
   3 -20   3    7.21    0.92
  -3  20  -3    6.74    0.81
   3  20   3    6.15    0.84
   3  20   3    6.30    0.69
  -3  20  -3    6.54    0.75
   4 -20   3   17.39    1.13
  -5 -21   3   23.54    1.61
   5 -21  -3   26.95    1.44
  -5  21   3   23.29    1.32
   5  21  -3   24.41    1.12
  -5  21   3   24.85    1.20
   5  21  -3   23.88    1.47
  -4 -21   3   12.28    1.11
   4 -21  -3   13.19    0.93
  -4  21   3   12.23    0.95
   4  21  -3   10.50    1.08
  -4  21   3   12.94    0.88
   3 -21  -3   26.49    1.12
   3 -21  -3   25.46    0.87
  -3 -21   3   24.51    1.38
  -3 -21   3   27.41    1.13
  -3  21   3   27.07    1.21
  -3  21   3   26.51    1.14
   3  21  -3   26.53    0.88
   3  21  -3   27.68    1.36
   2 -21  -3    0.82    0.29
  -2 -21   3    0.32    0.34
  -2 -21   3    0.45    0.27
   2 -21  -3    0.82    0.30
  -2  21   3    0.72    0.26
  -2  21   3    0.89    0.34
   2  21  -3    0.50    0.23
  -2  21   3    0.37    0.22
  -1 -21   3    6.86    0.62
  -1 -21   3    7.53    0.58
   1 -21  -3    7.65    0.58
  -1  21   3    6.92    0.60
   1  21  -3    6.76    0.55
  -1  21   3    8.37    0.84
  -1  21   3    8.85    0.67
   0 -21   3   19.68    0.93
   0 -21  -3   17.45    0.93
   0  21   3   18.98    0.94
   0  21  -3   18.97    0.88
   0  21   3   18.97    0.91
   1 -21   3    1.18    0.41
  -1 -21  -3    1.98    0.46
   1 -21   3    1.56    0.45
   1  21   3    1.30    0.40
  -1  21  -3    1.74    0.41
   1  21   3    0.95    0.35
  -2 -21  -3   13.97    0.99
   2 -21   3   13.88    0.94
   2 -21   3   13.94    1.04
   2  21   3   12.42    0.82
  -2  21  -3   12.57    0.88
   2  21   3   12.96    0.86
   3 -21   3   23.18    1.21
   3 -21   3   21.98    1.43
  -3 -21  -3   21.18    1.33
   3  21   3   21.89    1.22
  -3  21  -3   22.95    1.24
   3  21   3   23.18    1.10
   5 -22  -3    0.26    0.61
   5  22  -3    1.32    0.48
  -5  22   3    0.01    0.53
   5  22  -3    0.58    0.69
  -5  22   3    0.91    0.48
  -4 -22   3   18.01    1.32
   4 -22  -3   18.40    1.09
  -4 -22   3   19.47    1.01
   4  22  -3   14.61    1.24
  -4  22   3   19.18    1.13
  -4  22   3   16.56    0.98
  -3 -22   3    2.65    0.48
  -3 -22   3    3.00    0.68
   3 -22  -3    3.24    0.49
  -3  22   3    2.56    0.47
   3  22  -3    3.10    0.40
  -3  22   3    3.48    0.52
   3  22  -3    3.07    0.66
   2 -22  -3   89.75    2.51
  -2 -22   3   86.90    2.64
  -2 -22   3   88.94    2.50
   2 -22  -3   87.85    2.50
   2  22  -3   87.79    2.48
  -2  22   3   88.90    2.72
  -2  22   3  100.79    2.87
  -2  22   3   90.23    2.54
  -1 -22   3    3.95    0.48
   1 -22  -3    3.90    0.53
  -1 -22   3    3.31    0.47
  -1 -22   3    3.58    0.58
  -1  22   3    4.00    0.50
   1  22  -3    3.96    0.50
  -1  22   3    4.05    0.52
   1  22  -3    4.53    0.65
   0 -22   3   37.30    1.48
   0 -22   3   37.46    1.39
   0 -22  -3   35.17    1.38
   0  22  -3   36.05    1.36
   0  22   3   37.65    1.41
   0  22  -3   36.22    1.63
   0  22   3   36.39    1.38
   1 -22   3   12.72    0.89
   1 -22   3   11.81    0.91
   1  22   3   12.90    0.82
  -1  22  -3   13.91    0.86
   1  22   3   12.60    0.80
   2 -22   3    9.97    0.98
  -2 -22  -3   10.05    0.96
   2 -22   3    9.11    0.92
   2  22   3    9.95    0.77
   2  22   3    9.90    0.83
  -2  22  -3    8.66    0.81
   3 -22   3    8.23    1.12
  -3 -22  -3   10.67    1.12
   3 -22   3   11.35    0.98
  -3  22  -3   10.21    0.96
   3  22   3   11.01    1.01
   3  22   3    9.45    0.82
  -4 -23   3   17.34    1.38
  -4 -23   3   16.62    0.98
   4 -23  -3   17.17    1.10
  -4  23   3   15.52    1.01
   4  23  -3   15.90    1.29
  -4  23   3   18.38    1.14
  -3 -23   3   16.31    0.94
  -3 -23   3   15.52    1.22
   3 -23  -3   16.59    0.91
  -3  23   3   14.76    0.94
  -3  23   3   15.23    0.98
   3  23  -3   14.83    1.17
  -2 -23   3   14.40    1.07
  -2 -23   3   15.26    0.87
   2 -23  -3   13.90    0.74
   2 -23  -3   13.89    0.77
  -2  23   3   15.26    0.94
   2  23  -3   15.59    0.72
   2  23  -3   13.11    1.11
  -2  23   3   14.66    0.91
  -1 -23   3    0.48    0.47
  -1 -23   3    1.21    0.37
   1 -23  -3    1.56    0.39
   1  23  -3    1.37    0.34
  -1  23   3    0.68    0.35
  -1  23   3    1.63    0.42
   1  23  -3    0.92    0.48
   0 -23  -3    1.10    0.51
   0 -23   3    0.98    0.41
   0 -23   3    1.47    0.49
   0  23  -3    0.99    0.36
   0  23   3    1.40    0.40
   0  23  -3    1.08    0.42
   0  23   3    0.55    0.32
   1 -23   3    2.95    0.51
   1 -23   3    2.67    0.53
  -1 -23  -3    3.01    0.88
  -1  23  -3    2.58    0.56
   1  23   3    2.28    0.45
  -1  23  -3    2.81    0.50
   1  23   3    1.72    0.41
   2 -23   3    2.12    0.59
  -2 -23  -3    1.31    0.60
   2 -23   3    2.08    0.52
   2  23   3    1.36    0.41
   2  23   3    0.87    0.44
  -2  23  -3    1.06    0.48
  -2  23  -3    1.02    0.48
   3 -23   3    6.30    0.92
  -3 -23  -3    8.70    1.02
   3 -23   3    6.95    0.81
   3  23   3    8.82    0.85
  -3  23  -3    8.45    0.94
   3  23   3    8.52    0.99
  -3  23  -3    8.16    0.98
   4 -24  -3    0.65    0.56
  -4 -24   3    0.29    0.48
  -4 -24   3    0.64    0.72
  -4  24   3    0.15    0.48
   4  24  -3    0.47    0.66
  -4  24   3    0.25    0.49
  -3 -24   3    6.06    0.83
   3 -24  -3    5.35    0.63
  -3 -24   3    5.87    0.66
  -3  24   3    4.89    0.63
   3  24  -3    4.37    0.72
  -3  24   3    5.63    0.73
  -2 -24   3    7.38    0.70
   2 -24  -3    8.12    0.62
   2 -24  -3    7.96    0.68
  -2 -24   3    7.56    0.87
   2  24  -3    7.17    0.85
  -2  24   3    6.66    0.74
   2  24  -3    7.97    0.58
  -2  24   3    8.04    0.76
  -1 -24   3   19.32    0.96
  -1 -24   3   19.88    1.15
   1 -24  -3   20.68    0.98
  -1  24   3   20.36    1.02
   1  24  -3   19.67    0.92
   1  24  -3   17.85    1.17
  -1  24   3   19.98    1.03
   0 -24   3   30.74    1.28
   0 -24   3   28.20    1.38
   0 -24  -3   30.90    1.34
   0  24  -3   30.09    1.38
   0  24   3   30.44    1.31
   0  24  -3   30.00    1.24
   0  24   3   28.30    1.26
  -1 -24  -3   33.08    1.46
   1 -24   3   34.73    1.43
   1 -24   3   32.39    1.50
   1  24   3   33.40    1.39
  -1  24  -3   33.48    1.40
   1  24   3   32.86    1.39
  -1  24  -3   34.19    1.47
   2 -24   3   24.39    1.31
  -2 -24  -3   24.39    1.41
   2 -24   3   25.05    1.38
   2  24   3   26.34    1.22
  -2  24  -3   24.47    1.31
   2  24   3   27.02    1.24
  -2  24  -3   24.61    1.28
  -4 -25   3   11.74    0.96
   4 -25  -3   12.45    1.10
  -3 -25   3    9.29    0.86
   3 -25  -3    9.62    0.99
  -3 -25   3   11.20    1.19
   3  25  -3    8.64    0.98
  -3  25   3   11.91    0.96
  -3  25   3    9.51    0.88
  -2 -25   3   16.43    1.25
  -2 -25   3   15.27    0.90
   2 -25  -3   15.02    0.99
  -2  25   3   14.55    0.97
   2  25  -3   15.55    1.18
   2  25  -3   15.29    0.79
  -2  25   3   14.99    0.97
  -1 -25   3    2.42    0.47
  -1 -25   3    1.83    0.59
   1 -25  -3    1.76    0.45
  -1  25   3    2.75    0.52
   1  25  -3    1.68    0.56
  -1  25   3    1.93    0.47
   0 -25   3    0.80    0.42
   0 -25   3    0.99    0.49
   0  25   3    0.87    0.41
   0  25  -3   -0.03    0.36
   0  25  -3    1.95    0.50
   0  25   3    0.34    0.40
   1 -25   3    0.67    0.54
  -1 -25  -3    0.42    0.52
   1 -25   3    0.43    0.47
   1  25   3   -0.36    0.40
  -1  25  -3    0.24    0.41
  -1  25  -3    0.81    0.49
   1  25   3   -0.16    0.38
   2 -25   3    3.70    0.75
  -2 -25  -3    5.04    0.81
   2 -25   3    5.86    0.75
   2  25   3    3.58    0.59
  -2  25  -3    5.19    0.73
   2  25   3    4.88    0.66
  -3 -26   3    4.80    0.66
  -3 -26   3    4.62    0.86
  -3  26   3    4.65    0.68
   3  26  -3    3.45    0.80
  -3  26   3    3.50    0.60
  -2 -26   3    6.60    0.82
  -2 -26   3    5.31    0.69
  -2  26   3    5.83    0.67
   2  26  -3    7.24    0.64
  -2  26   3    5.85    0.81
  -1 -26   3   31.70    1.58
   1 -26  -3   32.56    1.37
  -1 -26   3   33.65    1.32
   1  26  -3   31.34    1.57
  -1  26   3   33.64    1.44
  -1  26   3   32.32    1.43
   1  26  -3   34.13    1.30
   0 -26   3    9.69    0.81
   0  26   3   10.47    0.90
   0  26  -3    9.85    1.00
   0  26  -3   10.45    0.85
   0  26   3    9.90    0.84
   1 -26   3   53.75    1.96
   1 -26   3   52.38    1.99
  -1 -26  -3   53.83    2.00
  -1  26  -3   48.83    1.94
   1  26   3   51.44    1.85
  -1  26  -3   51.20    1.88
   1  26   3   46.75    1.80
   2 -26   3    7.14    0.86
   2 -26   3    6.62    0.87
  -2 -26  -3    7.64    0.97
  -2  26  -3    7.96    1.00
   2  26   3    8.30    0.98
   2  26   3    6.71    0.72
  -2  26  -3    7.56    1.00
  -2 -27   3   14.19    1.21
  -2 -27   3   14.39    0.95
  -2  27   3   14.25    1.06
  -2  27   3   17.24    1.10
   2  27  -3   12.58    1.20
  -1 -27   3    2.46    0.50
   1 -27  -3    3.96    0.58
  -1 -27   3    2.47    0.70
   1  27  -3    3.11    0.51
  -1  27   3    3.08    0.56
  -1  27   3    3.45    0.56
   1  27  -3    2.42    0.67
   0 -27  -3   -0.34    0.51
   0 -27   3    0.08    0.46
   0 -27   3    0.08    0.56
   0  27   3    0.72    0.46
   0  27  -3    0.66    0.53
   0  27   3    0.52    0.43
   0  27  -3    0.06    0.44
   1 -27   3   -0.03    0.52
   1 -27   3    0.87    0.62
  -1 -27  -3    0.56    0.59
  -1  27  -3   -0.68    0.49
   1  27   3    0.06    0.46
   1  27   3    0.03    0.46
  -2 -28   3    2.92    0.57
  -1 -28   3   21.66    1.13
  -1 -28   3   22.41    1.36
  -1  28   3   20.10    1.21
   1  28  -3   22.35    1.13
  -1  28   3   19.81    1.51
   0 -28   3    9.07    0.90
   0 -28  -3    7.74    0.85
   0 -28   3    6.10    0.82
   0  28   3    8.50    0.93
   0  28  -3    7.97    1.06
   0  28   3    7.74    0.89
   0  28  -3    7.61    0.89
  -7   0   4    1.02    0.43
   7   0  -4    0.12    0.51
  -6   0   4    0.28    0.19
   6   0  -4    0.53    0.38
  -6   0   4    0.30    0.25
   5   0  -4    0.53    0.20
   5   0  -4    0.10    0.15
  -5   0   4   -0.02    0.15
  -5   0   4    0.38    0.19
   5   0  -4    0.09    0.28
  -5   0   4    0.28    0.27
  -4   0   4    2.16    0.23
   4   0  -4    3.27    0.44
  -4   0   4    1.26    0.37
   4   0  -4    2.24    0.22
  -4   0   4    2.11    0.27
   4   0  -4    2.49    0.25
  -4   0   4    2.25    0.36
  -3   0   4   -0.02    0.22
  -3   0   4    0.11    0.15
  -3   0   4    0.16    0.13
   3   0  -4   -0.02    0.12
  -3   0   4    0.04    0.18
   3   0  -4    0.04    0.17
  -3   0   4   -0.32    0.21
  -2   0   4   79.32    2.29
  -2   0   4   84.71    2.18
  -2   0   4   86.35    2.35
  -2   0   4   84.83    2.21
  -2   0   4   83.73    2.31
  -2   0   4   79.03    2.23
  -2   0   4   83.41    2.18
   2   0  -4   81.72    2.26
  -1   0   4   -0.21    0.16
  -1   0   4   -0.13    0.13
   1   0  -4    0.14    0.16
  -1   0   4    0.15    0.13
  -1   0   4    0.03    0.15
  -1   0   4    0.17    0.12
  -1   0   4    0.23    0.15
  -1   0   4   -0.11    0.13
   0   0   4    8.11    0.43
   0   0   4    8.33    0.45
   0   0   4    9.44    0.50
   0   0   4   10.74    0.46
   0   0   4    9.31    0.50
   0   0  -4    8.86    0.46
   0   0   4    8.45    0.46
   1   0   4   -0.03    0.12
   1   0   4   -0.02    0.13
   1   0   4   -0.12    0.17
  -1   0  -4    0.00    0.18
  -1   0  -4    0.02    0.16
   1   0   4   -0.11    0.17
   1   0   4   -0.09    0.20
  -2   0  -4   67.83    2.01
  -2   0  -4   68.98    2.07
  -2   0  -4   71.23    2.06
   2   0   4   68.52    2.22
   2   0   4   68.45    1.74
   2   0   4   70.57    2.01
   2   0   4   70.51    1.76
   3   0   4    0.03    0.28
  -3   0  -4    0.18    0.32
  -3   0  -4    0.15    0.23
  -4   0  -4   27.16    1.23
   4   0   4   26.64    1.19
  -4   0  -4   27.42    1.19
  -5   0  -4    0.96    0.53
  -5   0  -4    1.05    0.45
   5   0   4   -1.07    0.45
  -7  -1   4   24.18    1.21
   7  -1  -4   26.58    1.40
   7   1  -4   25.72    1.35
  -7   1   4   23.96    1.20
  -6  -1   4   12.31    0.47
  -6  -1   4   12.44    0.64
   6  -1  -4   12.88    0.92
  -6   1   4   11.87    0.54
   6   1  -4   12.04    0.87
  -6   1   4   12.16    0.57
  -5  -1   4   55.24    1.82
   5  -1  -4   57.69    1.89
   5  -1  -4   57.22    1.55
   5  -1  -4   56.35    1.55
  -5  -1   4   56.70    1.50
  -5  -1   4   56.52    1.64
  -5   1   4   56.57    1.82
   5   1  -4   56.33    1.87
   5   1  -4   55.68    1.49
  -5   1   4   57.60    1.56
  -5   1   4   57.86    1.59
   5   1  -4   57.32    1.61
   4  -1  -4   12.96    0.45
   4  -1  -4   13.01    0.70
   4  -1  -4   11.47    0.53
  -4  -1   4   12.28    0.45
  -4  -1   4   11.70    0.67
  -4  -1   4   12.50    0.54
  -4  -1   4   11.37    0.71
   4   1  -4   11.89    0.67
  -4   1   4   12.72    0.67
  -4   1   4   12.76    0.49
   4   1  -4   12.28    0.43
  -4   1   4   11.54    0.74
  -4   1   4   13.14    0.93
  -4   1   4   13.03    0.50
   4   1  -4   12.28    0.50
  -3  -1   4   85.04    2.41
  -3  -1   4   81.51    2.43
  -3  -1   4   86.48    2.45
  -3  -1   4   87.25    2.19
   3  -1  -4   84.71    2.38
  -3  -1   4   82.49    2.21
  -3  -1   4   84.30    2.30
  -3   1   4   84.83    2.44
   3   1  -4   84.58    2.22
  -3   1   4   87.02    2.46
   3   1  -4   86.08    2.39
  -3   1   4   83.80    2.39
  -3   1   4   84.86    2.24
  -3   1   4   85.48    2.26
  -3   1   4   88.36    2.19
  -2  -1   4    1.54    0.25
  -2  -1   4    1.55    0.19
  -2  -1   4    1.73    0.29
  -2  -1   4    1.51    0.24
  -2  -1   4    1.95    0.22
  -2  -1   4    1.65    0.23
  -2  -1   4    2.33    0.22
  -2   1   4    1.86    0.25
  -2   1   4    1.59    0.25
  -2   1   4    2.05    0.24
  -2   1   4    1.99    0.21
  -2   1   4    1.53    0.26
  -2   1   4    1.73    0.22
  -2   1   4    1.69    0.27
   1  -1  -4   55.30    1.55
  -1  -1   4   52.88    1.51
  -1  -1   4   53.19    1.56
  -1  -1   4   54.58    1.57
  -1  -1   4   56.35    1.60
  -1  -1   4   52.27    1.51
  -1  -1   4   55.07    1.52
  -1  -1   4   54.47    1.54
  -1   1   4   52.67    1.49
  -1   1   4   53.06    1.53
  -1   1   4   55.34    1.53
  -1   1   4   57.28    1.54
  -1   1   4   54.17    1.55
  -1   1   4   55.03    1.60
  -1   1   4   53.56    1.56
   0  -1   4   77.93    2.12
   0  -1   4   82.41    2.15
   0  -1   4   75.11    2.19
   0  -1   4   78.87    2.19
   0  -1   4   80.06    2.15
   0  -1  -4   77.08    2.15
   0  -1   4   80.11    2.16
   0   1   4   77.42    2.11
   0   1   4   80.63    2.12
   0   1  -4   80.03    2.16
   0   1   4   80.21    2.15
   0   1   4   71.81    2.15
   0   1   4   82.10    2.20
   0   1   4   81.05    2.17
   0   1  -4   76.06    2.15
   0   1   4   79.23    2.18
   1  -1   4    3.16    0.38
   1  -1   4    3.45    0.27
   1  -1   4    3.41    0.42
   1  -1   4    4.72    0.40
  -1  -1  -4    3.42    0.37
  -1  -1  -4    3.88    0.39
   1  -1   4    3.43    0.26
  -1   1  -4    3.67    0.38
   1   1   4    4.06    0.43
   1   1   4    3.55    0.38
   1   1   4    3.54    0.25
   1   1   4    3.76    0.34
  -1   1  -4    3.50    0.37
   1   1   4    3.66    0.29
   2  -1   4    0.31    0.10
  -2  -1  -4    0.31    0.26
   2  -1   4    0.17    0.10
   2  -1   4    0.16    0.41
  -2  -1  -4    0.39    0.24
   2  -1   4    0.73    0.25
  -2  -1  -4    0.78    0.27
   2   1   4   -0.08    0.29
   2   1   4    0.13    0.10
   2   1   4    0.16    0.10
   2   1   4    0.19    0.20
  -2   1  -4    0.27    0.23
  -2   1  -4    0.81    0.28
  -2   1  -4    0.53    0.24
  -3  -1  -4   23.77    1.00
   3  -1   4   24.87    1.02
  -3  -1  -4   25.21    1.05
  -3   1  -4   26.73    1.06
   3   1   4   25.25    1.01
  -4  -1  -4    6.59    0.69
  -4  -1  -4    6.15    0.72
   4  -1   4    6.94    0.69
   4   1   4    6.89    1.05
  -4   1  -4    6.64    0.73
  -4   1  -4    7.67    0.70
   5  -1   4   14.10    1.05
  -5  -1  -4   14.62    1.09
  -5  -1  -4   13.08    0.97
  -5   1  -4   13.52    1.07
  -5   1  -4   14.04    0.97
   5   1   4   14.56    1.04
  -7  -2   4   -0.23    0.40
   7  -2  -4   -0.42    0.47
   7   2  -4    0.43    0.49
  -7   2   4   -0.51    0.42
   6  -2  -4    1.90    0.46
  -6  -2   4    2.24    0.56
  -6  -2   4    1.80    0.36
  -6   2   4    1.57    0.26
  -6   2   4    1.92    0.27
  -6   2   4    1.49    0.52
   6   2  -4    1.74    0.44
  -5  -2   4    3.23    0.40
   5  -2  -4    3.38    0.48
  -5  -2   4    3.73    0.22
   5  -2  -4    3.89    0.28
   5  -2  -4    3.89    0.36
  -5  -2   4    3.11    0.41
  -5   2   4    3.72    0.31
   5   2  -4    4.53    0.57
  -5   2   4    3.99    0.51
   5   2  -4    3.58    0.40
  -5   2   4    3.52    0.33
   5   2  -4    3.46    0.21
  -4  -2   4    3.88    0.48
   4  -2  -4    3.99    0.31
  -4  -2   4    3.67    0.21
  -4  -2   4    2.94    0.34
   4  -2  -4    4.06    0.45
  -4  -2   4    3.49    0.44
   4  -2  -4    4.10    0.23
  -4   2   4    3.86    0.26
  -4   2   4    2.72    0.37
  -4   2   4    3.87    0.51
  -4   2   4    4.59    0.57
  -4   2   4    4.33    0.32
   4   2  -4    4.55    0.34
   4   2  -4    4.71    0.48
   3  -2  -4    4.57    0.41
   3  -2  -4    4.31    0.30
  -3  -2   4    3.73    0.36
  -3  -2   4    3.83    0.32
  -3  -2   4    4.24    0.45
  -3  -2   4    4.17    0.43
  -3  -2   4    4.32    0.24
  -3   2   4    4.41    0.24
  -3   2   4    4.27    0.31
  -3   2   4    3.94    0.40
   3   2  -4    5.18    0.42
  -3   2   4    3.96    0.42
   3   2  -4    4.28    0.30
  -3   2   4    4.52    0.48
  -3   2   4    4.80    0.28
  -2  -2   4   41.86    1.26
   2  -2  -4   45.00    1.28
  -2  -2   4   42.46    1.34
  -2  -2   4   41.87    1.35
  -2  -2   4   42.65    1.22
  -2  -2   4   41.21    1.18
  -2  -2   4   42.04    1.18
  -2   2   4   40.72    1.31
  -2   2   4   41.55    1.31
  -2   2   4   43.18    1.20
   2   2  -4   39.99    1.35
  -2   2   4   42.28    1.23
  -2   2   4   42.78    1.18
   2   2  -4   45.82    1.31
  -2   2   4   43.10    1.37
  -1  -2   4   48.65    1.41
  -1  -2   4   51.72    1.48
  -1  -2   4   49.37    1.39
  -1  -2   4   49.19    1.40
  -1  -2   4   49.24    1.42
  -1  -2   4   49.54    1.48
   1  -2  -4   51.01    1.43
  -1   2   4   51.23    1.42
   1   2  -4   49.28    1.49
  -1   2   4   51.05    1.43
  -1   2   4   47.96    1.37
  -1   2   4   47.98    1.42
  -1   2   4   48.06    1.41
  -1   2   4   48.50    1.44
  -1   2   4   50.92    1.50
   0  -2   4  264.78    7.02
   0  -2  -4  270.41    6.96
   0  -2   4  280.48    6.98
   0  -2   4  293.55    6.97
   0  -2   4  283.17    7.01
   0  -2   4  276.11    6.96
   0  -2   4  279.81    6.97
   0   2   4  274.58    7.00
   0   2   4  293.60    6.98
   0   2  -4  274.33    6.97
   0   2   4  284.02    7.00
   0   2   4  290.37    7.01
   0   2   4  277.75    6.93
   0   2   4  276.88    6.91
   0   2   4  257.44    6.95
   1  -2   4   45.44    1.26
  -1  -2  -4   43.47    1.40
   1  -2   4   44.47    1.41
   1  -2   4   44.44    1.25
   1  -2   4   44.82    1.39
   1  -2   4   45.13    1.44
  -1   2  -4   46.57    1.40
  -1   2  -4   45.03    1.40
   1   2   4   46.72    1.45
   1   2   4   46.72    1.28
  -1   2  -4   43.73    1.40
   1   2   4   45.16    1.32
   1   2   4   44.27    1.23
   1   2   4   43.80    1.40
   1   2   4   43.58    1.30
  -2  -2  -4   77.51    2.32
  -2  -2  -4   80.37    2.30
   2  -2   4   80.70    2.31
   2  -2   4   78.82    1.99
   2  -2   4   80.36    2.01
  -2  -2  -4   78.25    2.21
  -2   2  -4   77.95    2.30
   2   2   4   80.03    2.00
   2   2   4   81.73    2.68
  -2   2  -4   79.25    2.31
  -2   2  -4   74.87    2.27
   2   2   4   80.61    2.02
   2   2   4   81.23    2.22
  -3  -2  -4    3.85    0.46
   3  -2   4    4.00    0.51
  -3  -2  -4    3.28    0.44
   3   2   4    3.47    0.44
  -3   2  -4    3.26    0.43
   4  -2   4    6.13    0.71
  -4  -2  -4    5.95    0.63
  -4  -2  -4    5.38    0.70
   4   2   4    6.94    0.65
  -4   2  -4    6.10    0.72
  -4   2  -4    7.31    0.70
  -5  -2  -4   -0.14    0.54
  -5  -2  -4    0.18    0.44
   5  -2   4    0.16    0.51
   5   2   4   -0.26    0.46
  -5   2  -4    0.51    0.48
  -5   2  -4    0.08    0.41
   7  -3  -4   12.56    1.09
  -7  -3   4   12.66    0.97
   7   3  -4   14.63    1.09
  -7   3   4   14.13    0.93
   6  -3  -4    0.41    0.43
  -6  -3   4    0.93    0.39
  -6  -3   4    0.60    0.32
  -6   3   4    1.11    0.22
   6   3  -4    0.36    0.39
  -6   3   4    0.58    0.25
  -6   3   4    0.22    0.34
  -5  -3   4   51.13    1.56
   5  -3  -4   50.99    1.33
  -5  -3   4   49.22    1.69
   5  -3  -4   49.41    1.46
   5  -3  -4   50.78    1.74
  -5   3   4   52.77    1.48
   5   3  -4   51.84    1.73
   5   3  -4   50.29    1.53
  -5   3   4   51.26    1.67
  -4  -3   4    1.72    0.37
  -4  -3   4    2.57    0.14
  -4  -3   4    2.83    0.37
  -4  -3   4    2.45    0.14
   4  -3  -4    3.14    0.45
   4  -3  -4    2.69    0.29
  -4   3   4    2.29    0.35
   4   3  -4    2.43    0.31
  -4   3   4    2.58    0.20
  -4   3   4    2.67    0.46
  -4   3   4    2.95    0.32
   4   3  -4    3.09    0.41
   3  -3  -4   80.07    2.29
  -3  -3   4   84.10    2.06
  -3  -3   4   78.20    2.26
   3  -3  -4   81.31    2.16
  -3  -3   4   82.27    2.35
  -3  -3   4   81.22    2.08
  -3  -3   4   80.15    2.37
  -3   3   4   84.09    2.38
  -3   3   4   80.43    2.20
  -3   3   4   84.06    2.07
  -3   3   4   80.98    2.34
   3   3  -4   80.27    2.29
   3   3  -4   77.93    2.36
  -3   3   4   83.69    2.09
  -3   3   4   80.55    2.30
   3   3  -4   82.23    2.17
  -2  -3   4    3.77    0.24
   2  -3  -4    3.95    0.32
  -2  -3   4    4.05    0.37
  -2  -3   4    3.73    0.25
   2  -3  -4    4.21    0.30
  -2  -3   4    3.11    0.38
  -2  -3   4    4.00    0.34
   2   3  -4    3.19    0.34
  -2   3   4    3.49    0.26
  -2   3   4    3.70    0.33
  -2   3   4    3.65    0.42
  -2   3   4    3.56    0.29
  -2   3   4    3.61    0.35
  -2   3   4    3.44    0.24
   2   3  -4    3.69    0.40
  -1  -3   4   47.63    1.36
  -1  -3   4   48.64    1.45
  -1  -3   4   47.70    1.40
  -1  -3   4   48.26    1.45
   1  -3  -4   49.74    1.39
  -1  -3   4   48.76    1.43
  -1  -3   4   48.17    1.41
   1   3  -4   47.13    1.47
  -1   3   4   47.21    1.38
  -1   3   4   49.82    1.39
  -1   3   4   47.71    1.41
  -1   3   4   50.28    1.42
  -1   3   4   47.91    1.42
  -1   3   4   50.49    1.48
   0  -3  -4    4.30    0.35
   0  -3   4    3.86    0.34
   0  -3   4    3.79    0.35
   0  -3   4    4.48    0.39
   0  -3   4    4.94    0.42
   0  -3   4    4.14    0.35
   0  -3   4    4.38    0.37
   0   3   4    4.07    0.37
   0   3   4    4.55    0.37
   0   3   4    3.68    0.35
   0   3  -4    3.81    0.35
   0   3   4    3.51    0.35
   0   3   4    4.30    0.29
   0   3   4    3.72    0.32
   0   3  -4    3.47    0.33
   0   3   4    4.09    0.34
   1  -3   4    0.57    0.24
   1  -3   4    0.52    0.15
  -1  -3  -4    0.36    0.21
   1  -3   4    0.22    0.13
   1  -3   4    0.36    0.22
   1  -3   4    0.74    0.26
  -1   3  -4    0.52    0.20
   1   3   4    0.68    0.17
   1   3   4    0.64    0.21
   1   3   4    0.41    0.13
  -1   3  -4    0.52    0.19
   1   3   4    0.47    0.22
   1   3   4    0.50    0.17
   1   3   4    0.32    0.19
   2  -3   4    2.12    0.35
  -2  -3  -4    2.83    0.36
   2  -3   4    1.90    0.20
  -2  -3  -4    1.87    0.34
   2  -3   4    2.40    0.21
  -2   3  -4    2.95    0.40
  -2   3  -4    2.02    0.35
  -2   3  -4    2.33    0.36
   2   3   4    1.78    0.55
   2   3   4    2.02    0.21
   2   3   4    1.93    0.25
   2   3   4    2.32    0.31
  -3  -3  -4   26.45    1.08
  -3  -3  -4   25.82    1.00
   3  -3   4   26.28    1.11
   3   3   4   26.75    1.01
  -3   3  -4   27.08    1.09
   4  -3   4    1.19    0.45
  -4  -3  -4    0.46    0.33
  -4  -3  -4    0.84    0.44
  -4   3  -4    1.15    0.40
   4   3   4    0.36    0.35
  -4   3  -4    0.30    0.32
  -5  -3  -4   24.79    1.22
   5  -3   4   24.32    1.33
  -5  -3  -4   24.07    1.32
   5   3   4   24.16    1.21
  -5   3  -4   24.73    1.26
  -5   3  -4   25.33    1.30
  -7  -4   4    1.36    0.50
  -7  -4   4    1.53    0.59
   7  -4  -4    1.04    0.57
   7   4  -4    1.01    0.53
  -7   4   4    1.63    0.50
  -6  -4   4    7.01    0.63
   6  -4  -4    6.34    0.78
  -6  -4   4    7.15    0.66
   6   4  -4    6.71    0.72
  -6   4   4    5.42    0.64
  -6   4   4    7.07    0.51
  -5  -4   4    0.66    0.29
  -5  -4   4    1.78    0.39
   5  -4  -4    1.29    0.25
   5  -4  -4    1.27    0.39
   5   4  -4    0.90    0.29
  -5   4   4    1.00    0.32
  -5   4   4    1.24    0.16
  -5   4   4    1.59    0.26
   5   4  -4    1.19    0.36
   4  -4  -4   21.92    0.95
  -4  -4   4   22.51    0.87
   4  -4  -4   22.43    0.78
   4   4  -4   21.94    0.99
  -4   4   4   22.73    0.81
  -4   4   4   22.47    0.93
  -4   4   4   23.07    0.59
  -4   4   4   22.37    0.59
   4   4  -4   22.83    0.81
   4   4  -4   23.78    0.95
   3  -4  -4    2.59    0.29
  -3  -4   4    2.77    0.17
  -3  -4   4    3.16    0.42
  -3  -4   4    3.31    0.44
   3  -4  -4    2.95    0.36
  -3  -4   4    2.96    0.35
  -3  -4   4    2.96    0.19
  -3   4   4    2.83    0.38
  -3   4   4    2.15    0.34
   3   4  -4    2.82    0.39
  -3   4   4    3.45    0.41
  -3   4   4    2.78    0.17
   3   4  -4    2.76    0.36
  -3   4   4    2.70    0.17
   3   4  -4    3.10    0.30
  -3   4   4    2.94    0.31
  -2  -4   4   41.50    1.14
   2  -4  -4   42.26    1.25
  -2  -4   4   42.10    1.15
   2  -4  -4   42.68    1.25
  -2  -4   4   40.65    1.33
  -2  -4   4   41.99    1.29
  -2  -4   4   42.29    1.35
  -2   4   4   41.38    1.29
  -2   4   4   42.01    1.24
   2   4  -4   42.18    1.22
  -2   4   4   42.05    1.15
   2   4  -4   40.96    1.36
  -2   4   4   41.11    1.36
   2   4  -4   42.36    1.29
  -2   4   4   42.86    1.15
  -2   4   4   40.38    1.30
  -1  -4   4   25.03    0.85
  -1  -4   4   25.52    0.80
  -1  -4   4   25.11    0.87
   1  -4  -4   26.07    0.81
   1  -4  -4   24.47    0.78
  -1  -4   4   25.38    0.90
  -1  -4   4   25.20    0.85
  -1  -4   4   26.04    0.89
  -1   4   4   24.92    0.86
  -1   4   4   25.78    0.91
  -1   4   4   24.88    0.82
   1   4  -4   23.97    0.79
  -1   4   4   24.75    0.84
  -1   4   4   25.95    0.85
   1   4  -4   24.94    0.91
  -1   4   4   22.78    0.87
   0  -4  -4   75.78    2.08
   0  -4   4   74.00    2.07
   0  -4   4   74.93    2.11
   0  -4   4   72.95    2.07
   0  -4   4   76.07    2.12
   0  -4   4   80.30    2.07
   0  -4   4   74.44    2.15
   0   4   4   75.63    2.03
   0   4  -4   74.23    2.08
   0   4  -4   74.99    2.07
   0   4   4   70.98    2.02
   0   4   4   77.62    2.09
   0   4   4   73.28    2.02
   0   4   4   75.23    2.11
   0   4   4   78.34    2.11
   0   4   4   75.71    2.10
  -1  -4  -4    9.97    0.57
   1  -4   4   10.62    0.44
   1  -4   4    9.51    0.59
   1  -4   4   10.52    0.56
   1  -4   4   10.63    0.59
   1   4   4   10.53    0.44
  -1   4  -4   10.55    0.59
  -1   4  -4   10.63    0.48
  -1   4  -4   11.03    0.55
   1   4   4   10.96    0.59
   1   4   4   10.70    0.42
   1   4   4   10.59    0.45
   1   4   4   10.76    0.60
   1   4   4   10.10    0.57
   1   4   4   10.64    0.55
   2  -4   4   72.95    1.86
  -2  -4  -4   71.38    2.00
   2  -4   4   73.60    2.18
  -2  -4  -4   71.43    2.16
  -2   4  -4   72.16    2.13
  -2   4  -4   69.84    2.12
   2   4   4   71.40    1.99
  -2   4  -4   68.22    2.12
   2   4   4   73.56    2.16
   2   4   4   73.13    1.88
   2   4   4   73.14    1.86
  -3  -4  -4    3.22    0.40
   3  -4   4    4.29    0.57
   3   4   4    3.56    0.44
  -3   4  -4    3.76    0.47
   4  -4   4   26.24    1.22
  -4  -4  -4   23.24    1.21
  -4   4  -4   24.88    1.14
   4   4   4   24.80    1.07
  -4   4  -4   23.90    1.14
   5  -4   4    3.39    0.66
  -5  -4  -4    3.17    0.62
  -5   4  -4    2.52    0.61
   5   4   4    4.61    0.65
  -5   4  -4    3.01    0.54
  -7  -5   4   16.47    0.92
  -7  -5   4   14.68    1.01
   7  -5  -4   15.47    1.18
  -7   5   4   14.87    0.92
   7   5  -4   13.65    1.07
  -6  -5   4    2.56    0.44
   6  -5  -4    3.77    0.62
  -6  -5   4    2.85    0.49
  -6   5   4    2.77    0.36
   6   5  -4    3.06    0.54
  -6   5   4    2.49    0.43
  -5  -5   4   24.31    0.98
   5  -5  -4   24.76    1.12
   5  -5  -4   24.08    0.89
   5   5  -4   25.19    1.08
  -5   5   4   23.83    1.03
   5   5  -4   23.90    0.94
  -5   5   4   24.37    0.90
   4  -5  -4   28.12    0.91
   4  -5  -4   26.89    1.07
  -4  -5   4   28.06    1.01
   4   5  -4   26.57    1.11
  -4   5   4   25.94    1.02
   4   5  -4   26.36    1.04
   4   5  -4   27.33    0.94
  -4   5   4   26.90    0.94
  -3  -5   4   27.01    0.72
  -3  -5   4   26.94    1.02
  -3  -5   4   26.71    1.00
  -3  -5   4   25.68    1.04
   3  -5  -4   27.17    0.89
   3  -5  -4   26.98    0.98
  -3  -5   4   27.65    0.71
  -3   5   4   27.45    0.70
  -3   5   4   27.01    0.98
   3   5  -4   27.21    0.98
  -3   5   4   27.73    0.70
  -3   5   4   27.17    1.02
  -3   5   4   28.44    0.94
  -3   5   4   27.23    1.07
   3   5  -4   27.06    1.07
   3   5  -4   28.35    0.91
  -2  -5   4   32.41    1.07
  -2  -5   4   32.64    1.11
  -2  -5   4   31.46    0.90
   2  -5  -4   32.35    1.02
  -2  -5   4   31.36    0.91
   2  -5  -4   32.56    1.01
  -2  -5   4   31.41    1.12
  -2   5   4   30.71    1.06
   2   5  -4   30.46    1.12
   2   5  -4   32.99    1.01
  -2   5   4   31.77    0.90
  -2   5   4   32.16    1.05
  -2   5   4   33.29    1.15
  -2   5   4   32.23    0.90
   2   5  -4   31.15    1.05
  -2   5   4   31.91    1.02
   1  -5  -4    6.85    0.36
   1  -5  -4    6.16    0.33
  -1  -5   4    6.38    0.42
  -1  -5   4    6.21    0.41
  -1  -5   4    6.46    0.39
  -1  -5   4    6.64    0.35
  -1  -5   4    6.59    0.46
  -1  -5   4    6.07    0.41
  -1   5   4    6.75    0.39
  -1   5   4    5.81    0.40
   1   5  -4    6.38    0.35
  -1   5   4    6.97    0.40
   1   5  -4    6.53    0.45
   0  -5   4    8.75    0.45
   0  -5   4    8.25    0.51
   0  -5   4    8.29    0.45
   0  -5  -4    8.41    0.46
   0  -5   4    8.16    0.46
   0  -5   4    8.74    0.53
   0  -5   4    8.18    0.49
   0   5   4    8.70    0.40
   0   5   4    8.09    0.47
   0   5   4    8.42    0.37
   0   5  -4    8.43    0.45
   0   5   4    8.42    0.48
   0   5   4    8.77    0.48
   0   5   4    9.06    0.43
   0   5  -4    8.01    0.46
   1  -5   4    3.03    0.37
   1  -5   4    3.34    0.38
   1  -5   4    2.33    0.31
   1  -5   4    2.78    0.35
   1  -5   4    3.12    0.41
  -1  -5  -4    3.56    0.39
   1   5   4    3.48    0.32
   1   5   4    3.52    0.39
  -1   5  -4    3.50    0.43
  -1   5  -4    2.58    0.36
   1   5   4    3.35    0.30
  -1   5  -4    2.95    0.31
   1   5   4    3.44    0.25
   1   5   4    3.55    0.43
   1   5   4    3.36    0.38
   1   5   4    3.62    0.28
   2  -5   4    2.48    0.25
   2  -5   4    2.22    0.39
  -2  -5  -4    2.72    0.35
  -2  -5  -4    2.34    0.36
   2   5   4    2.26    0.35
   2   5   4    2.46    0.31
   2   5   4    2.06    0.25
   2   5   4    2.49    0.27
  -2   5  -4    1.88    0.32
  -2   5  -4    2.34    0.35
  -2   5  -4    2.66    0.42
  -3  -5  -4    3.00    0.39
  -3   5  -4    2.96    0.43
   3   5   4    3.10    0.43
   3   5   4    3.16    0.46
   4  -5   4   -0.22    0.39
  -4  -5  -4    0.15    0.40
  -4   5  -4    1.13    0.41
   4   5   4    0.76    0.37
  -4   5  -4    0.11    0.33
   4   5   4    0.06    0.38
   5  -5   4   23.89    1.38
  -5  -5  -4   21.58    1.27
   5   5   4   21.04    1.19
  -5   5  -4   19.53    1.14
  -5   5  -4   22.02    1.20
   5   5   4   22.55    1.15
  -7  -6   4    4.04    0.62
   7  -6  -4    3.89    0.74
  -7  -6   4    3.61    0.62
   7   6  -4    3.81    0.65
  -7   6   4    2.75    0.54
  -6  -6   4    0.22    0.37
  -6  -6   4    0.21    0.38
   6  -6  -4    0.98    0.47
  -6   6   4    0.80    0.35
  -6   6   4    0.76    0.30
   6   6  -4    0.88    0.41
  -5  -6   4    0.77    0.31
   5  -6  -4    1.13    0.38
   5  -6  -4    0.65    0.28
   5   6  -4    1.28    0.41
  -5   6   4    0.72    0.27
   5   6  -4    0.59    0.33
   5   6  -4    0.99    0.31
   4  -6  -4    1.01    0.24
  -4  -6   4    0.55    0.26
   4  -6  -4    0.93    0.31
  -4   6   4    0.75    0.27
  -4   6   4    0.91    0.24
   4   6  -4    0.82    0.33
   4   6  -4    1.28    0.30
   4   6  -4    1.22    0.27
   3  -6  -4   13.97    0.59
  -3  -6   4   12.81    0.70
  -3  -6   4   13.49    0.69
  -3  -6   4   12.60    0.71
   3  -6  -4   12.61    0.62
   3   6  -4   13.17    0.64
  -3   6   4   13.92    0.67
   3   6  -4   12.33    0.70
  -3   6   4   12.94    0.65
  -3   6   4   13.42    0.75
  -3   6   4   12.93    0.61
   3   6  -4   13.38    0.58
  -2  -6   4   48.09    1.53
  -2  -6   4   47.34    1.30
  -2  -6   4   48.25    1.50
   2  -6  -4   48.34    1.40
  -2  -6   4   47.98    1.48
  -2  -6   4   46.85    1.29
   2  -6  -4   48.27    1.42
   2   6  -4   50.64    1.42
   2   6  -4   48.25    1.54
  -2   6   4   48.25    1.43
   2   6  -4   48.36    1.46
  -2   6   4   46.82    1.45
  -2   6   4   48.26    1.44
  -2   6   4   49.18    1.29
   1  -6  -4   18.41    0.62
  -1  -6   4   18.48    0.77
  -1  -6   4   17.88    0.72
  -1  -6   4   18.08    0.70
   1  -6  -4   17.65    0.70
  -1  -6   4   17.68    0.72
  -1  -6   4   18.75    0.63
  -1  -6   4   17.75    0.70
   1  -6  -4   17.35    0.70
   1  -6  -4   17.66    0.62
  -1   6   4   18.05    0.69
  -1   6   4   18.04    0.65
  -1   6   4   18.34    0.70
   1   6  -4   18.60    0.63
   1   6  -4   17.70    0.75
   0  -6   4   77.67    2.17
   0  -6   4   75.42    2.05
   0  -6   4   71.27    2.07
   0  -6  -4   77.47    2.05
   0  -6   4   76.59    2.05
   0  -6  -4   75.40    2.07
   0  -6   4   72.37    2.12
   0  -6   4   71.25    2.10
   0   6  -4   73.44    2.08
   0   6   4   74.73    1.96
   0   6   4   76.41    2.10
   0   6  -4   73.53    2.06
   0   6   4   72.83    1.94
   0   6   4   73.44    2.09
   0   6   4   75.50    2.10
   0   6   4   73.69    2.01
   1  -6   4    2.35    0.31
   1  -6   4    1.78    0.34
  -1  -6  -4    3.05    0.40
   1  -6   4    2.58    0.34
   1  -6   4    2.09    0.35
   1  -6   4    2.66    0.27
   1   6   4    2.78    0.23
   1   6   4    2.30    0.31
  -1   6  -4    2.29    0.31
  -1   6  -4    3.16    0.40
   1   6   4    2.44    0.31
   1   6   4    2.63    0.38
   1   6   4    2.58    0.23
   1   6   4    2.28    0.24
  -1   6  -4    2.80    0.36
  -2  -6  -4   59.25    1.89
  -2  -6  -4   59.71    1.66
   2  -6   4   60.92    1.62
   2  -6   4   58.95    1.94
   2   6   4   62.11    1.64
  -2   6  -4   58.28    1.62
   2   6   4   61.23    1.62
  -2   6  -4   60.65    1.86
   2   6   4   61.71    1.88
   2   6   4   58.97    1.68
   3  -6   4    9.01    0.73
  -3  -6  -4    7.53    0.55
   3   6   4    9.30    0.56
  -3   6  -4    8.69    0.65
   3   6   4    8.43    0.69
  -3   6  -4    8.05    0.65
   4  -6   4   31.79    1.46
  -4  -6  -4   30.91    1.38
  -4   6  -4   32.25    1.33
  -4   6  -4   29.81    1.31
   4   6   4   32.20    1.21
   4   6   4   32.52    1.35
   5  -6   4    4.10    0.77
  -5  -6  -4    2.69    0.69
   5   6   4    3.91    0.60
   5   6   4    4.22    0.62
  -5   6  -4    2.92    0.60
  -5   6  -4    3.01    0.62
  -7  -7   4   12.71    1.01
  -7  -7   4   13.28    0.97
   7  -7  -4   13.51    1.12
   7   7  -4   12.62    1.07
  -7   7   4   11.41    0.90
  -6  -7   4    8.18    0.69
   6  -7  -4    6.83    0.79
  -6   7   4    8.65    0.63
  -6   7   4    5.39    0.63
   6   7  -4    7.78    0.76
  -5  -7   4   36.80    1.36
   5  -7  -4   37.36    1.43
   5  -7  -4   35.64    1.23
  -5   7   4   38.11    1.26
   5   7  -4   35.90    1.44
   5   7  -4   34.98    1.26
   5   7  -4   39.67    1.41
  -4  -7   4   56.28    1.80
   4  -7  -4   54.93    1.66
   4  -7  -4   57.29    1.81
   4   7  -4   56.41    1.70
   4   7  -4   58.02    1.79
   4   7  -4   57.22    1.88
  -4   7   4   57.52    1.73
  -4   7   4   55.51    1.75
  -4   7   4   59.43    2.33
  -3  -7   4   15.92    0.78
   3  -7  -4   17.31    0.68
   3  -7  -4   15.97    0.71
  -3  -7   4   15.38    0.81
   3   7  -4   16.69    0.73
   3   7  -4   15.74    0.81
  -3   7   4   16.73    0.71
  -3   7   4   16.54    0.72
  -3   7   4   16.08    0.74
   3   7  -4   15.74    0.67
  -2  -7   4   41.05    1.15
  -2  -7   4   42.81    1.37
   2  -7  -4   42.57    1.26
  -2  -7   4   42.13    1.15
   2  -7  -4   42.33    1.35
  -2  -7   4   43.40    1.41
  -2  -7   4   43.19    1.37
   2  -7  -4   43.15    1.30
   2   7  -4   40.05    1.31
  -2   7   4   42.39    1.29
   2   7  -4   41.69    1.40
  -2   7   4   41.82    1.30
  -2   7   4   40.11    1.14
  -2   7   4   41.94    1.32
  -2   7   4   42.74    1.14
   2   7  -4   43.41    1.29
   1  -7  -4    0.78    0.16
  -1  -7   4    0.56    0.21
   1  -7  -4    1.20    0.18
  -1  -7   4    0.90    0.24
  -1  -7   4    1.15    0.24
   1  -7  -4    0.89    0.21
   1  -7  -4    0.82    0.21
  -1  -7   4    1.03    0.25
  -1  -7   4    0.91    0.27
  -1  -7   4    0.98    0.17
  -1   7   4    0.81    0.20
   1   7  -4    0.91    0.25
   1   7  -4    0.80    0.17
  -1   7   4    0.78    0.20
  -1   7   4    1.01    0.18
   0  -7   4   15.33    0.72
   0  -7   4   14.11    0.69
   0  -7   4   14.45    0.66
   0  -7   4   13.64    0.59
   0  -7  -4   14.26    0.59
   0  -7   4   15.22    0.61
   0  -7  -4   14.04    0.61
   0  -7   4   14.20    0.63
   0   7  -4   14.15    0.64
   0   7  -4   14.30    0.61
   0   7   4   13.63    0.64
   0   7   4   15.10    0.50
   0   7   4   14.35    0.63
   0   7   4   13.97    0.57
   0   7   4   14.77    0.50
   0   7   4   15.15    0.66
  -1  -7  -4    0.23    0.16
   1  -7   4    0.12    0.22
  -1  -7  -4    0.13    0.22
   1  -7   4    0.12    0.23
   1  -7   4    0.04    0.15
   1  -7   4    0.50    0.25
   1  -7   4    0.20    0.21
  -1   7  -4    0.63    0.27
   1   7   4    0.24    0.23
   1   7   4    0.22    0.14
   1   7   4    0.13    0.12
   1   7   4    0.13    0.20
   1   7   4    0.11    0.12
  -1   7  -4    0.02    0.17
   1   7   4    0.34    0.26
  -1   7  -4    0.24    0.19
  -2  -7  -4    0.28    0.18
  -2  -7  -4    0.15    0.26
   2  -7   4    0.26    0.28
   2  -7   4    0.79    0.18
  -2   7  -4    0.06    0.23
   2   7   4    0.29    0.18
   2   7   4    0.13    0.16
   2   7   4    0.24    0.25
  -2   7  -4    0.41    0.17
  -3  -7  -4    5.76    0.46
   3  -7   4    4.84    0.67
  -3   7  -4    4.60    0.56
   3   7   4    4.80    0.23
   3   7   4    4.99    0.46
   3   7   4    5.16    0.24
   3   7   4    4.26    0.58
   4  -7   4    7.90    0.89
  -4  -7  -4    7.30    0.83
   4   7   4    9.26    0.80
   4   7   4    8.56    0.65
  -4   7  -4    8.33    0.75
  -4   7  -4    7.99    0.76
   5  -7   4   11.20    1.17
   5   7   4    9.99    1.14
  -5   7  -4    9.73    0.97
  -5   7  -4    8.95    0.93
  -7  -8   4    3.33    0.61
  -7  -8   4    4.53    0.64
   7  -8  -4    2.83    0.66
   7   8  -4    3.03    0.64
  -7   8   4    5.52    0.94
  -7   8   4    3.50    0.58
  -6  -8   4   -0.16    0.38
   6  -8  -4    0.25    0.42
   6   8  -4    0.00    0.36
  -6   8   4   -0.43    0.29
  -6   8   4    0.43    0.36
  -5  -8   4    1.18    0.38
   5  -8  -4    0.96    0.37
   5  -8  -4    1.01    0.32
   5   8  -4    1.19    0.36
   5   8  -4    1.44    0.39
   5   8  -4    1.16    0.36
  -5   8   4    1.02    0.33
  -4  -8   4    3.58    0.46
   4  -8  -4    3.80    0.43
   4  -8  -4    3.84    0.50
   4   8  -4    3.10    0.56
   4   8  -4    5.05    0.49
  -4   8   4    4.02    0.51
   4   8  -4    4.50    0.45
  -4   8   4    2.86    0.44
  -4   8   4    4.20    0.44
  -3  -8   4    7.63    0.57
   3  -8  -4    8.84    0.54
  -3  -8   4    7.39    0.58
   3  -8  -4    9.21    0.51
   3   8  -4    9.10    0.52
  -3   8   4    8.99    0.53
   3   8  -4    8.93    0.52
  -3   8   4    8.78    0.55
   3   8  -4    8.51    0.60
  -3   8   4    8.98    0.53
   2  -8  -4   28.29    0.92
  -2  -8   4   27.69    1.04
  -2  -8   4   29.43    1.03
   2  -8  -4   27.83    0.97
  -2  -8   4   29.44    1.10
   2  -8  -4   29.15    1.02
  -2  -8   4   27.60    0.81
   2   8  -4   29.63    0.97
  -2   8   4   27.51    0.79
   2   8  -4   27.13    0.98
  -2   8   4   27.13    0.96
  -2   8   4   27.56    0.78
   2   8  -4   26.75    1.06
  -2   8   4   27.41    0.98
  -2   8   4   27.80    0.94
   1  -8  -4   43.39    1.39
   1  -8  -4   45.79    1.25
   1  -8  -4   44.43    1.28
  -1  -8   4   45.86    1.39
  -1  -8   4   44.02    1.39
  -1  -8   4   45.61    1.29
  -1  -8   4   45.07    1.46
  -1  -8   4   45.12    1.42
   1  -8  -4   46.65    1.40
  -1   8   4   43.95    1.37
   1   8  -4   44.41    1.29
  -1   8   4   44.85    1.27
   1   8  -4   44.22    1.43
  -1   8   4   45.38    1.36
   0  -8   4   30.71    1.00
   0  -8   4   32.46    1.13
   0  -8   4   31.01    1.00
   0  -8  -4   31.60    1.01
   0  -8  -4   30.04    1.02
   0  -8   4   30.94    1.06
   0  -8   4   30.53    1.06
   0  -8   4   29.40    1.10
   0   8   4   30.31    0.97
   0   8   4   29.84    1.02
   0   8  -4   30.44    1.06
   0   8   4   29.90    0.92
   0   8   4   30.34    1.05
   0   8   4   30.35    0.87
   0   8  -4   29.73    1.00
   0   8   4   30.45    1.05
   1  -8   4   36.89    1.22
   1  -8   4   32.67    1.30
   1  -8   4   37.63    1.12
  -1  -8  -4   39.43    1.15
   1  -8   4   37.34    1.24
  -1  -8  -4   38.03    1.27
   1  -8   4   35.68    1.26
   1   8   4   38.42    1.66
  -1   8  -4   39.85    1.26
   1   8   4   37.95    1.26
   1   8   4   36.51    1.01
  -1   8  -4   37.17    1.31
   1   8   4   38.44    1.29
  -1   8  -4   37.17    1.17
   1   8   4   37.06    1.10
   2  -8   4   44.09    1.68
  -2  -8  -4   50.83    1.65
  -2   8  -4   49.92    1.41
   2   8   4   48.27    1.64
   2   8   4   50.04    1.40
   2   8   4   50.85    1.39
  -2   8  -4   49.09    1.60
  -3  -8  -4   26.11    0.93
   3  -8   4   27.35    0.75
   3  -8   4   27.04    1.27
   3   8   4   27.77    0.95
  -3   8  -4   25.25    1.12
   3   8   4   28.00    0.81
   3   8   4   28.90    1.17
   4  -8   4    7.89    0.94
  -4  -8  -4    7.54    0.84
  -4   8  -4    8.33    0.78
   4   8   4    8.25    0.64
   4   8   4    9.00    0.78
   5  -8   4    2.99    0.74
   5   8   4    2.79    0.59
  -7  -9   4   10.21    0.97
  -7  -9   4    8.68    1.02
   7  -9  -4   11.01    1.16
  -7   9   4    9.63    0.84
  -7   9   4   11.31    0.93
   7   9  -4   11.40    1.07
   6  -9  -4   44.57    1.77
  -6  -9   4   42.72    1.64
  -6   9   4   43.30    1.54
  -6   9   4   43.37    1.67
   6   9  -4   44.05    1.65
   6   9  -4   42.65    1.73
   5  -9  -4   59.42    2.01
  -5  -9   4   59.70    1.96
  -5   9   4   60.77    1.87
   5   9  -4   59.51    1.92
   5   9  -4   57.36    2.03
   4  -9  -4   21.40    0.96
  -4  -9   4   21.62    1.02
   4  -9  -4   22.24    0.88
  -4   9   4   25.43    1.41
  -4   9   4   22.58    0.92
   4   9  -4   21.29    0.89
   4   9  -4   22.32    1.09
  -4   9   4   21.62    0.98
  -3  -9   4   32.99    1.24
  -3  -9   4   32.31    1.19
   3  -9  -4   32.60    1.19
   3  -9  -4   31.95    1.13
   3  -9  -4   32.71    1.12
   3   9  -4   33.49    1.14
  -3   9   4   33.78    1.16
   3   9  -4   32.84    1.15
   3   9  -4   33.29    1.26
  -3   9   4   35.09    1.16
  -3   9   4   35.64    1.17
  -2  -9   4   61.00    1.61
   2  -9  -4   60.76    1.83
   2  -9  -4   61.45    1.72
  -2  -9   4   61.26    1.86
   2  -9  -4   62.59    1.80
  -2  -9   4   61.50    1.91
  -2  -9   4   60.23    1.83
  -2   9   4   62.74    1.80
  -2   9   4   62.71    1.74
   2   9  -4   62.60    1.79
   2   9  -4   61.04    1.81
  -2   9   4   61.91    1.59
  -2   9   4   60.08    1.78
   2   9  -4   59.94    1.61
   2   9  -4   58.74    1.88
  -1  -9   4    5.78    0.44
  -1  -9   4    6.21    0.52
   1  -9  -4    6.24    0.32
  -1  -9   4    6.27    0.47
  -1  -9   4    5.99    0.47
   1  -9  -4    6.45    0.48
  -1  -9   4    6.36    0.36
   1  -9  -4    6.09    0.36
   1  -9  -4    6.76    0.46
   1   9  -4    6.86    0.47
  -1   9   4    5.43    0.41
  -1   9   4    5.67    0.41
  -1   9   4    6.32    0.33
   1   9  -4    6.50    0.36
   1   9  -4    5.78    0.48
  -1   9   4    6.27    0.43
   0  -9  -4    0.48    0.20
   0  -9   4    0.53    0.20
   0  -9   4    0.64    0.22
   0  -9  -4    0.14    0.18
   0  -9   4    0.47    0.25
   0  -9   4    1.37    0.31
   0  -9   4    0.36    0.18
   0  -9   4    1.22    0.30
   0   9   4    0.32    0.16
   0   9  -4    0.39    0.18
   0   9  -4    0.50    0.20
   0   9   4    0.48    0.21
   0   9   4    0.49    0.11
   0   9   4    0.19    0.20
   0   9   4    0.26    0.17
   0   9   4    0.28    0.11
  -1  -9  -4    2.48    0.36
   1  -9   4    2.99    0.32
   1  -9   4    2.43    0.32
   1  -9   4    2.13    0.35
   1  -9   4    2.84    0.43
  -1  -9  -4    2.93    0.33
   1  -9   4    3.31    0.43
   1   9   4    3.35    0.42
  -1   9  -4    2.53    0.31
   1   9   4    2.53    0.37
   1   9   4    2.78    0.19
   1   9   4    2.77    0.30
  -1   9  -4    2.68    0.35
  -1   9  -4    2.54    0.39
   1   9   4    2.77    0.20
  -2  -9  -4    4.62    0.55
   2  -9   4    4.04    0.59
   2  -9   4    4.50    0.37
  -2  -9  -4    4.60    0.37
  -2   9  -4    4.72    0.37
   2   9   4    3.99    0.37
   2   9   4    4.46    0.31
   2   9   4    4.21    0.27
  -2   9  -4    4.63    0.55
   3  -9   4    4.05    0.61
  -3  -9  -4    4.01    0.42
   3  -9   4    4.32    0.30
   3   9   4    4.05    0.34
  -3   9  -4    4.22    0.32
  -3   9  -4    4.36    0.58
   3   9   4    4.59    0.41
   3   9   4    4.45    0.57
   4  -9   4   28.79    1.29
  -4  -9  -4   26.15    1.31
   4  -9   4   28.28    1.47
   4   9   4   31.34    1.31
  -4   9  -4   29.02    1.28
   4   9   4   28.14    1.08
   5  -9   4   16.57    1.20
   6 -10  -4    5.10    0.72
  -6 -10   4    4.50    0.63
   6  10  -4    4.53    0.60
  -6  10   4    4.23    0.52
   6  10  -4    3.03    0.59
  -6  10   4    3.65    0.52
  -5 -10   4   -0.06    0.37
   5 -10  -4    0.33    0.36
   5  10  -4    0.66    0.35
  -5  10   4   -0.08    0.29
   5  10  -4    0.91    0.41
  -4 -10   4   32.04    1.30
   4 -10  -4   31.95    1.16
   4 -10  -4   34.79    1.25
   4  10  -4   32.34    1.17
  -4  10   4   33.11    1.18
  -4  10   4   32.23    1.20
   4  10  -4   32.83    1.32
   4  10  -4   33.26    1.21
   3 -10  -4   33.36    1.15
   3 -10  -4   34.68    1.16
  -3 -10   4   33.57    1.27
  -3  10   4   32.88    1.15
   3  10  -4   35.01    1.18
  -3  10   4   33.50    1.17
  -3  10   4   33.64    1.17
   3  10  -4   35.40    1.18
   3  10  -4   32.27    1.28
  -2 -10   4   28.39    1.17
  -2 -10   4   29.50    0.86
   2 -10  -4   28.96    0.95
  -2 -10   4   30.01    1.14
   2 -10  -4   29.97    1.04
   2 -10  -4   30.54    1.09
   2 -10  -4   30.02    0.83
  -2 -10   4   31.60    1.14
  -2  10   4   29.61    1.05
   2  10  -4   30.66    1.05
  -2  10   4   30.60    0.98
  -2  10   4   30.58    0.84
  -2  10   4   29.56    1.04
   2  10  -4   29.47    1.14
   2  10  -4   29.68    0.86
   2  10  -4   28.11    1.04
   1 -10  -4   23.52    0.88
   1 -10  -4   23.52    0.90
  -1 -10   4   23.73    0.78
  -1 -10   4   23.99    0.95
  -1 -10   4   21.97    0.96
   1 -10  -4   23.59    0.78
   1 -10  -4   23.08    0.71
  -1 -10   4   23.68    0.92
  -1 -10   4   22.36    0.91
   1  10  -4   24.03    0.89
   1  10  -4   22.66    0.78
   1  10  -4   22.88    0.93
  -1  10   4   22.93    0.84
  -1  10   4   23.44    0.79
  -1  10   4   22.45    0.86
  -1  10   4   23.43    0.73
   0 -10  -4   10.15    0.55
   0 -10   4   10.67    0.59
   0 -10   4   10.50    0.61
   0 -10  -4   10.66    0.54
   0 -10   4   12.11    0.66
   0 -10   4   10.04    0.53
   0 -10   4    8.84    0.64
   0 -10   4    9.98    0.58
   0  10   4   10.07    0.33
   0  10  -4    9.32    0.58
   0  10   4    9.86    0.31
   0  10   4   10.65    0.50
   0  10   4   10.61    0.57
   0  10   4    9.98    0.54
   0  10  -4    9.77    0.52
   1 -10   4   82.95    2.25
   1 -10   4   80.50    2.36
  -1 -10  -4   85.01    2.27
   1 -10   4   79.88    2.34
   1 -10   4   77.49    2.46
  -1 -10  -4   83.41    2.39
   1  10   4   84.45    2.04
  -1  10  -4   82.71    2.31
  -1  10  -4   83.88    2.37
   1  10   4   81.01    2.04
   1  10   4   83.84    2.23
   1  10   4   82.72    2.40
   1  10   4   85.96    2.40
   2 -10   4    1.82    0.50
  -2 -10  -4    1.98    0.26
   2 -10   4    2.05    0.28
   2  10   4    1.69    0.29
   2  10   4    1.76    0.19
   2  10   4    1.14    0.30
  -2  10  -4    1.70    0.27
  -2  10  -4    1.11    0.48
  -3 -10  -4   32.65    1.09
   3 -10   4   29.38    1.42
  -3 -10  -4   28.88    1.31
   3 -10   4   29.71    1.21
   3 -10   4   29.84    0.92
  -3 -10  -4   29.88    0.95
   3  10   4   31.07    1.23
  -3  10  -4   30.35    0.93
   3  10   4   30.21    0.97
  -3  10  -4   30.96    1.26
   3  10   4   29.05    0.96
   4 -10   4   16.04    1.21
   4 -10   4   16.80    0.93
  -4 -10  -4   15.49    1.08
   4  10   4   15.08    0.94
  -4  10  -4   16.02    0.99
   6 -11  -4   30.03    1.45
  -6 -11   4   30.05    1.38
  -6  11   4   30.64    1.27
   6  11  -4   27.33    1.24
  -6  11   4   27.48    1.20
   6  11  -4   26.96    1.36
  -5 -11   4    2.60    0.50
   5 -11  -4    2.10    0.48
   5  11  -4    1.98    0.49
  -5  11   4    1.05    0.36
   5  11  -4    2.22    0.42
  -5  11   4    1.15    0.43
   4 -11  -4   49.80    1.67
  -4 -11   4   49.21    1.76
  -4  11   4   51.29    1.65
   4  11  -4   50.56    1.64
  -4  11   4   49.54    1.61
   4  11  -4   49.33    1.76
  -3 -11   4   36.30    1.37
   3 -11  -4   37.87    1.25
   3 -11  -4   36.88    1.26
   3  11  -4   36.84    1.26
  -3  11   4   35.73    1.26
  -3  11   4   36.64    1.24
  -3  11   4   38.23    1.29
   3  11  -4   38.43    1.28
   3  11  -4   38.16    1.40
  -2 -11   4    0.82    0.29
   2 -11  -4    0.79    0.17
  -2 -11   4    0.71    0.16
   2 -11  -4    1.10    0.22
   2 -11  -4    0.57    0.24
   2 -11  -4    0.51    0.24
  -2  11   4    1.08    0.22
  -2  11   4    1.09    0.25
  -2  11   4    1.19    0.15
   2  11  -4    1.01    0.16
   2  11  -4    1.07    0.30
  -2  11   4    0.70    0.25
   2  11  -4    0.91    0.25
   1 -11  -4   21.58    0.74
  -1 -11   4   18.60    0.95
   1 -11  -4   21.43    0.89
  -1 -11   4   21.99    0.75
   1 -11  -4   19.89    0.69
   1 -11  -4   22.95    0.87
  -1 -11   4   20.89    0.92
  -1 -11   4   22.33    0.91
  -1 -11   4   22.35    0.90
   1  11  -4   21.76    0.85
   1  11  -4   20.88    0.90
  -1  11   4   21.18    0.81
  -1  11   4   21.57    0.85
  -1  11   4   22.27    0.67
  -1  11   4   22.35    0.76
   1  11  -4   21.22    0.75
   0 -11   4    5.81    0.50
   0 -11   4    6.08    0.46
   0 -11   4    7.13    0.45
   0 -11   4    6.97    0.51
   0 -11  -4    6.65    0.47
   0 -11   4    6.92    0.54
   0 -11   4    6.08    0.57
   0 -11  -4    7.11    0.47
   0  11  -4    7.11    0.50
   0  11  -4    6.99    0.47
   0  11   4    7.27    0.48
   0  11   4    6.04    0.42
   0  11   4    7.34    0.49
  -1 -11  -4    4.85    0.40
   1 -11   4    4.99    0.58
  -1 -11  -4    4.07    0.49
   1 -11   4    3.70    0.49
   1 -11   4    3.23    0.42
   1  11   4    3.98    0.45
  -1  11  -4    4.06    0.42
   1  11   4    3.77    0.50
  -1  11  -4    4.09    0.46
   1  11   4    3.91    0.36
   2 -11   4    4.91    0.63
  -2 -11  -4    4.91    0.60
  -2 -11  -4    5.16    0.41
   2 -11   4    5.15    0.45
  -2  11  -4    4.60    0.45
   2  11   4    5.18    0.24
   2  11   4    6.05    0.56
   2  11   4    5.21    0.44
   2  11   4    5.27    0.21
  -2  11  -4    4.98    0.55
   3 -11   4    7.94    0.68
   3 -11   4    7.99    0.89
  -3 -11  -4    8.17    0.76
   3  11   4    8.07    0.42
  -3  11  -4    8.51    0.47
   3  11   4    7.25    0.49
   3  11   4    7.21    0.67
  -3  11  -4    7.43    0.68
  -4 -11  -4    7.94    0.96
   4 -11   4    7.73    0.81
   4 -11   4    8.93    1.05
   4  11   4   10.23    0.84
  -4  11  -4   10.22    0.86
   6 -12  -4   -0.06    0.48
  -6 -12   4    1.22    0.52
  -6  12   4    0.53    0.42
  -6  12   4   -0.90    0.36
   6  12  -4    0.04    0.39
   6  12  -4    0.01    0.52
   5 -12  -4    3.45    0.56
  -5 -12   4    3.34    0.59
  -5  12   4    2.41    0.40
  -5  12   4    2.25    0.41
   5  12  -4    3.05    0.48
   5  12  -4    2.67    0.54
  -4 -12   4    0.51    0.42
   4 -12  -4    0.83    0.33
   4  12  -4    0.65    0.38
   4  12  -4    1.04    0.33
  -4  12   4    0.29    0.28
  -3 -12   4    2.59    0.43
   3 -12  -4    2.57    0.35
  -3  12   4    2.20    0.33
   3  12  -4    2.68    0.39
  -3  12   4    2.46    0.36
  -2 -12   4    4.10    0.55
   2 -12  -4    4.56    0.35
  -2 -12   4    3.94    0.28
  -2 -12   4    4.08    0.48
  -2 -12   4    4.84    0.46
   2 -12  -4    4.15    0.51
   2 -12  -4    4.43    0.49
  -2  12   4    3.68    0.42
   2  12  -4    3.67    0.46
   2  12  -4    4.07    0.52
  -2  12   4    3.99    0.25
  -2  12   4    4.20    0.43
  -2  12   4    4.55    0.34
   2  12  -4    4.22    0.27
   1 -12  -4   82.33    2.33
  -1 -12   4   81.07    2.20
  -1 -12   4   83.88    2.38
   1 -12  -4   81.49    2.20
   1 -12  -4   72.60    2.13
  -1 -12   4   82.14    2.38
  -1 -12   4   83.49    2.33
  -1  12   4   84.26    2.21
  -1  12   4   83.77    2.10
   1  12  -4   81.71    2.34
   1  12  -4   77.55    2.37
  -1  12   4   82.15    2.28
   1  12  -4   82.91    2.21
  -1  12   4   81.62    2.33
   0 -12   4    9.58    0.54
   0 -12   4    9.45    0.62
   0 -12  -4    9.53    0.56
   0 -12  -4    9.05    0.55
   0 -12   4    9.53    0.61
   0  12   4    9.36    0.57
   0  12  -4    9.88    0.55
   0  12  -4    8.78    0.60
   0  12   4    9.11    0.50
   0  12   4    9.34    0.56
   1 -12   4   97.63    2.88
  -1 -12  -4   97.11    2.79
   1  12   4   96.41    2.80
  -1  12  -4  101.32    2.77
   1  12   4   99.62    2.78
   1  12   4   95.41    2.62
  -1  12  -4   98.30    2.72
  -2 -12  -4    7.10    0.48
   2 -12   4    5.78    0.73
   2 -12   4    8.07    0.52
  -2 -12  -4    7.26    0.68
   2  12   4    7.84    0.51
  -2  12  -4    7.36    0.64
   2  12   4    7.44    0.62
  -2  12  -4    8.06    0.51
   3 -12   4   32.51    1.58
   3 -12   4   37.27    1.39
  -3 -12  -4   36.69    1.49
   3  12   4   37.09    1.37
   3  12   4   31.10    1.14
  -3  12  -4   37.15    1.14
   3  12   4   36.94    1.03
  -3  12  -4   37.44    1.43
   4 -12   4   -0.89    0.54
   4 -12   4   -0.89    0.39
  -4 -12  -4   -0.65    0.48
   4  12   4   -0.01    0.39
  -4  12  -4    0.70    0.41
  -6 -13   4   18.72    1.23
   6 -13  -4   18.68    1.19
  -6  13   4   20.41    1.02
   6  13  -4   18.02    1.25
  -6  13   4   19.46    1.06
   6  13  -4   18.32    1.03
   5 -13  -4    1.21    0.44
  -5 -13   4    2.58    0.57
   5  13  -4    2.37    0.46
  -5  13   4    1.68    0.40
  -5  13   4    1.96    0.44
   5  13  -4    1.78    0.51
  -4 -13   4    9.40    0.86
   4 -13  -4    9.71    0.70
   4  13  -4    9.52    0.80
  -4  13   4   10.69    0.72
   4  13  -4    9.90    0.66
  -3 -13   4    6.01    0.65
   3 -13  -4    4.75    0.45
  -3  13   4    5.25    0.46
   3  13  -4    4.42    0.59
  -3  13   4    4.88    0.52
  -2 -13   4   33.78    1.29
   2 -13  -4   33.89    0.96
  -2 -13   4   33.91    1.20
  -2 -13   4   34.12    1.00
   2 -13  -4   33.97    1.07
   2  13  -4   34.54    1.01
  -2  13   4   34.68    0.97
  -2  13   4   35.46    1.22
   2  13  -4   33.82    1.31
  -2  13   4   35.77    1.07
  -2  13   4   34.50    1.19
   1 -13  -4    0.00    0.18
  -1 -13   4    0.40    0.27
  -1 -13   4    0.42    0.27
  -1 -13   4    0.06    0.23
   1 -13  -4   -0.26    0.24
  -1 -13   4   -0.07    0.18
   1 -13  -4    0.15    0.13
   1  13  -4    0.46    0.38
  -1  13   4    0.58    0.21
   1  13  -4    0.08    0.24
   1  13  -4    0.07    0.18
  -1  13   4    0.32    0.22
  -1  13   4    0.07    0.11
  -1  13   4    0.13    0.19
   0 -13  -4   19.87    0.82
   0 -13   4   20.40    0.90
   0 -13  -4   19.70    0.81
   0 -13   4   18.64    0.77
   0 -13   4   20.42    0.87
   0  13   4   19.21    0.84
   0  13  -4   19.22    0.79
   0  13  -4   19.16    0.87
   0  13   4   18.70    0.79
   0  13   4   19.15    0.77
   1 -13   4    0.33    0.41
  -1 -13  -4   -0.01    0.25
   1  13   4   -0.03    0.20
  -1  13  -4   -0.21    0.22
  -1  13  -4    0.01    0.24
   1  13   4    0.25    0.39
   2 -13   4    4.28    0.47
  -2 -13  -4    3.21    0.49
   2 -13   4    2.96    0.58
  -2 -13  -4    3.50    0.42
  -2  13  -4    3.15    0.45
  -2  13  -4    2.90    0.37
   2  13   4    2.46    0.38
   2  13   4    3.59    0.40
  -3 -13  -4    1.33    0.47
   3 -13   4    1.70    0.59
   3 -13   4    1.28    0.44
   3  13   4    1.81    0.44
  -3  13  -4    1.57    0.33
   3  13   4    1.37    0.32
  -3  13  -4    1.61    0.43
  -4 -13  -4   16.36    1.13
   4 -13   4   15.99    1.02
   4 -13   4   15.81    1.30
   4  13   4   17.62    1.03
  -4  13  -4   16.72    1.07
   6 -14  -4    0.30    0.54
  -6 -14   4    0.09    0.60
   6  14  -4    0.36    0.56
  -6  14   4   -0.58    0.40
  -6  14   4   -0.24    0.42
   6  14  -4    0.44    0.41
   5 -14  -4    0.21    0.44
  -5 -14   4    0.21    0.49
   5  14  -4    0.54    0.35
  -5  14   4   -0.48    0.33
   5  14  -4    0.13    0.41
  -5  14   4   -0.10    0.30
   4 -14  -4    3.94    0.56
  -4 -14   4    2.66    0.54
   4  14  -4    3.59    0.56
   4  14  -4    3.54    0.51
  -4  14   4    2.85    0.42
   3 -14  -4   19.90    0.85
   3  14  -4   21.46    0.92
  -3  14   4   20.12    0.83
  -3  14   4   21.06    0.93
  -2 -14   4    1.28    0.31
   2 -14  -4    1.54    0.24
  -2 -14   4    1.31    0.35
   2 -14  -4    1.60    0.20
  -2  14   4    1.47    0.24
  -2  14   4    1.95    0.34
  -2  14   4    1.48    0.32
   2  14  -4    1.42    0.35
  -2  14   4    1.16    0.18
   2  14  -4    1.13    0.20
   1 -14  -4   45.88    1.39
  -1 -14   4   46.91    1.58
  -1 -14   4   45.48    1.38
   1 -14  -4   46.43    1.22
  -1 -14   4   46.18    1.55
   1  14  -4   46.52    1.59
   1  14  -4   47.61    1.40
  -1  14   4   47.12    1.22
  -1  14   4   46.92    1.46
  -1  14   4   49.79    1.41
  -1  14   4   44.25    1.50
   0 -14   4    2.71    0.40
   0 -14  -4    2.64    0.39
   0 -14  -4    2.96    0.39
   0 -14   4    2.91    0.39
   0  14   4    2.48    0.31
   0  14  -4    2.67    0.35
   0  14  -4    3.92    0.48
   0  14   4    2.55    0.34
   0  14   4    3.02    0.36
  -1 -14  -4   54.87    1.79
   1 -14   4   57.83    1.89
  -1  14  -4   53.61    1.73
  -1  14  -4   54.40    1.75
   1  14   4   54.18    1.64
   1  14   4   56.70    1.77
  -2 -14  -4    2.90    0.38
   2 -14   4    1.81    0.49
   2  14   4    2.38    0.39
   2  14   4    3.05    0.39
  -2  14  -4    2.45    0.41
  -2  14  -4    2.70    0.37
   3 -14   4   47.45    1.64
  -3 -14  -4   47.17    1.76
   3 -14   4   38.98    1.85
  -3  14  -4   46.99    1.43
   3  14   4   38.92    1.44
  -3  14  -4   49.22    1.72
   3  14   4   48.65    1.64
   4 -14   4    4.58    0.67
  -4 -14  -4    4.61    0.73
   4 -14   4    4.66    0.86
  -4  14  -4    4.88    0.67
   6 -15  -4   27.75    1.47
  -6 -15   4   26.39    1.55
  -6  15   4   28.00    1.36
   6  15  -4   27.32    1.28
  -6  15   4   26.18    1.25
   6  15  -4   27.45    1.47
  -5 -15   4    0.05    0.53
   5 -15  -4    0.08    0.43
  -5  15   4   -0.11    0.37
   5  15  -4    0.06    0.34
  -5  15   4   -0.02    0.36
   5  15  -4    0.40    0.47
   4 -15  -4   69.84    2.19
  -4 -15   4   66.22    2.36
   4  15  -4   71.62    2.37
  -4  15   4   71.72    2.24
  -4  15   4   70.88    2.16
   4  15  -4   70.51    2.15
  -3 -15   4   10.12    0.82
   3 -15  -4   10.26    0.61
  -3 -15   4    9.69    0.30
   3  15  -4    9.77    0.63
  -3  15   4    9.68    0.68
  -3  15   4    9.36    0.59
   2 -15  -4   52.48    1.48
   2 -15  -4   51.60    1.39
  -2 -15   4   49.17    2.13
  -2 -15   4   44.01    1.89
  -2 -15   4   52.38    1.43
   2  15  -4   50.22    1.76
  -2  15   4   48.07    1.71
  -2  15   4   50.82    1.61
   2  15  -4   52.63    1.44
  -2  15   4   53.44    1.40
  -2  15   4   53.51    1.46
   1 -15  -4    1.48    0.27
   1 -15  -4    1.29    0.17
  -1 -15   4    1.73    0.26
  -1 -15   4    0.90    0.49
  -1 -15   4    1.34    0.36
   1  15  -4    1.64    0.27
  -1  15   4    1.50    0.30
  -1  15   4    1.31    0.15
  -1  15   4    1.77    0.28
   1  15  -4    1.53    0.36
  -1  15   4    1.77    0.35
   0 -15  -4    4.18    0.45
   0 -15  -4    3.89    0.45
   0 -15   4    3.58    0.46
   0 -15   4    5.40    0.65
   0  15  -4    4.55    0.56
   0  15  -4    3.96    0.45
   0  15   4    4.32    0.45
   0  15   4    4.90    0.50
   0  15   4    4.36    0.51
  -1 -15  -4    2.46    0.42
   1 -15   4    2.29    0.45
   1  15   4    1.64    0.34
  -1  15  -4    2.42    0.40
  -1  15  -4    2.31    0.38
   1  15   4    2.47    0.34
   2 -15   4    4.97    0.69
   2 -15   4    4.90    0.63
  -2 -15  -4    4.49    0.58
   2  15   4    3.73    0.47
  -2  15  -4    4.39    0.54
  -2  15  -4    3.99    0.55
   2  15   4    4.74    0.54
   3 -15   4    0.64    0.44
  -3 -15  -4    1.75    0.51
   3 -15   4    1.40    0.62
   3  15   4    0.65    0.36
   3  15   4    0.85    0.36
  -3  15  -4    0.91    0.39
  -3  15  -4    1.00    0.35
   4 -15   4   27.89    1.29
  -4 -15  -4   26.07    1.46
  -4  15  -4   25.17    1.36
  -6 -16   4   -1.16    0.65
   6 -16  -4    0.15    0.60
   6  16  -4   -0.29    0.39
  -6  16   4    0.48    0.54
   6  16  -4   -0.35    0.58
  -6  16   4   -0.35    0.43
  -5 -16   4    0.71    0.58
   5 -16  -4    0.12    0.46
  -5  16   4   -0.04    0.39
  -5  16   4    0.54    0.38
   5  16  -4    0.42    0.34
   5  16  -4    0.11    0.48
  -4 -16   4   -0.41    0.44
   4 -16  -4    0.37    0.36
   4  16  -4   -0.26    0.39
   4  16  -4    0.13    0.32
  -4  16   4    0.23    0.34
  -4  16   4    0.22    0.31
  -3 -16   4    7.63    0.32
  -3 -16   4    8.46    0.83
   3 -16  -4    8.89    0.59
  -3  16   4    8.64    0.66
  -3  16   4    8.45    0.56
   3  16  -4    8.67    0.31
   2 -16  -4    0.90    0.23
  -2 -16   4    1.28    0.34
  -2 -16   4    0.75    0.23
   2 -16  -4    0.93    0.20
  -2 -16   4    0.54    0.35
   2  16  -4    0.84    0.21
  -2  16   4    0.88    0.22
  -2  16   4    0.30    0.29
  -2  16   4    1.12    0.20
   2  16  -4    0.13    0.33
  -2  16   4    0.92    0.28
  -1 -16   4   63.12    1.99
  -1 -16   4   58.33    2.34
  -1 -16   4   60.05    1.78
   1 -16  -4   62.27    1.80
  -1  16   4   62.57    1.94
  -1  16   4   64.50    1.79
   1  16  -4   64.56    1.81
  -1  16   4   60.54    1.54
   0 -16  -4   19.36    0.85
   0 -16   4   19.88    0.93
   0 -16   4   18.09    0.82
   0  16  -4   20.68    0.96
   0  16  -4   19.41    0.83
   0  16   4   18.84    0.81
   0  16   4   17.76    0.87
   1 -16   4  107.26    3.04
  -1 -16  -4  101.33    2.94
   1  16   4  100.78    2.91
   1  16   4   98.36    2.80
  -1  16  -4   99.46    2.90
   2 -16   4    6.00    0.81
   2 -16   4    4.96    0.67
  -2  16  -4    5.07    0.54
  -2  16  -4    5.42    0.64
   2  16   4    5.52    0.56
   2  16   4    5.50    0.58
   3 -16   4   18.53    1.32
  -3 -16  -4   20.68    1.16
   3 -16   4   19.59    1.04
   3  16   4   20.22    1.02
   3  16   4   17.31    0.93
  -3  16  -4   18.98    1.07
  -3  16  -4   21.02    0.93
   4 -16   4    1.66    1.12
   4 -16   4    3.95    0.69
   4  16   4    3.14    0.56
  -5 -17   4    0.47    0.62
   5 -17  -4   -0.14    0.47
   5  17  -4   -0.31    0.31
   5  17  -4   -0.71    0.49
  -5  17   4   -0.44    0.41
  -5  17   4    0.19    0.41
   4 -17  -4   35.09    1.38
  -4 -17   4   35.68    1.61
  -4  17   4   35.57    1.35
  -4  17   4   37.27    1.43
   4  17  -4   35.68    1.34
   4  17  -4   35.75    1.58
   3 -17  -4    1.26    0.32
  -3 -17   4    0.47    0.46
  -3 -17   4    0.83    0.16
  -3 -17   4    1.11    0.36
  -3  17   4    0.71    0.28
  -3  17   4    0.46    0.33
   3  17  -4    0.97    0.16
   2 -17  -4   42.83    1.25
   2 -17  -4   42.44    1.29
  -2 -17   4   45.55    1.30
  -2 -17   4   42.43    1.51
  -2 -17   4   42.74    1.62
  -2  17   4   44.85    1.24
  -2  17   4   43.52    1.46
  -2  17   4   44.22    1.26
   2  17  -4   42.80    1.28
  -2  17   4   42.28    1.51
  -1 -17   4    0.15    0.30
   1 -17  -4    0.48    0.25
  -1 -17   4    0.09    0.23
  -1  17   4    0.40    0.25
   1  17  -4   -0.19    0.21
  -1  17   4    0.03    0.26
  -1  17   4    0.07    0.27
   1  17  -4    0.36    0.33
   0 -17   4    3.13    0.44
   0 -17  -4    2.93    0.43
   0  17  -4    2.99    0.39
   0  17  -4    3.11    0.56
   0  17   4    3.22    0.42
   1 -17   4    7.22    0.72
   1  17   4    6.57    0.60
  -1  17  -4    6.02    0.64
  -1  17  -4    6.63    0.60
   1  17   4    6.27    0.55
   2 -17   4    5.71    0.72
   2 -17   4    5.12    0.70
  -2 -17  -4    5.47    0.75
   2  17   4    5.78    0.62
  -2  17  -4    5.28    0.64
   2  17   4    4.75    0.61
  -2  17  -4    5.73    0.68
  -3 -17  -4    4.84    0.75
   3 -17   4    2.96    0.70
   3 -17   4    2.96    0.55
  -3  17  -4    3.20    0.56
  -3  17  -4    4.13    0.52
   3  17   4    4.02    0.51
   3  17   4    6.17    0.74
  -5 -18   4    0.41    0.65
   5 -18  -4    0.85    0.53
   5  18  -4   -0.03    0.51
   5  18  -4    0.52    0.38
  -5  18   4    0.16    0.39
  -5  18   4    0.52    0.43
  -4 -18   4    1.65    0.61
   4 -18  -4    2.14    0.48
   4  18  -4    2.60    0.46
  -4  18   4    2.01    0.44
   4  18  -4    2.35    0.54
  -4  18   4    1.81    0.42
   3 -18  -4   14.81    0.77
  -3 -18   4   16.27    1.03
  -3 -18   4   15.97    0.86
  -3  18   4   16.79    0.92
  -3  18   4   15.47    0.71
   3  18  -4   13.83    0.69
  -2 -18   4    4.61    0.63
   2 -18  -4    4.46    0.37
   2 -18  -4    3.73    0.38
  -2 -18   4    4.30    0.42
  -2 -18   4    3.53    0.52
  -2  18   4    3.30    0.33
  -2  18   4    2.91    0.42
   2  18  -4    3.63    0.39
  -2  18   4    4.27    0.56
  -2  18   4    4.36    0.57
  -1 -18   4   19.12    0.79
  -1 -18   4   18.68    0.93
   1 -18  -4   17.62    0.80
  -1  18   4   19.54    0.87
  -1  18   4   18.06    0.86
   1  18  -4   19.13    0.80
  -1  18   4   18.21    0.91
   0 -18  -4    5.10    0.59
   0 -18   4    5.09    0.60
   0  18   4    5.29    0.58
   0  18  -4    5.70    0.66
   0  18   4    4.94    0.54
   0  18  -4    4.87    0.54
   1 -18   4   39.26    1.52
  -1 -18  -4   38.50    1.49
   1 -18   4   41.65    1.55
  -1  18  -4   39.40    1.44
   1  18   4   38.87    1.45
   2 -18   4    8.64    0.94
  -2 -18  -4    8.12    0.80
   2 -18   4    7.56    0.82
  -2  18  -4    7.82    0.75
   2  18   4    7.47    0.70
  -2  18  -4    8.21    0.72
   2  18   4    9.19    0.75
   3 -18   4   14.36    1.25
   3 -18   4   13.87    0.97
  -3 -18  -4   11.69    1.11
  -3  18  -4   14.20    0.99
  -3  18  -4   14.46    1.01
   3  18   4   13.28    0.92
   3  18   4   13.86    0.90
   5 -19  -4   16.20    1.12
  -5 -19   4   10.40    1.31
   5  19  -4   15.17    1.20
  -5  19   4   13.36    0.91
   5  19  -4   12.27    0.88
  -5  19   4   12.03    0.97
   4 -19  -4   52.75    1.81
  -4 -19   4   50.33    2.04
  -4  19   4   51.38    1.86
  -4  19   4   51.00    1.76
   4  19  -4   51.91    2.03
   3 -19  -4    4.19    0.49
  -3 -19   4    4.55    0.65
  -3 -19   4    4.69    0.58
  -3  19   4    3.67    0.51
  -3  19   4    3.35    0.41
   3  19  -4    3.84    0.35
   2 -19  -4   31.79    1.03
  -2 -19   4   32.26    1.06
  -2 -19   4   31.45    1.42
   2 -19  -4   31.14    1.01
  -2 -19   4   30.70    1.27
   2  19  -4   31.34    1.04
  -2  19   4   30.90    1.27
  -2  19   4   33.27    1.01
   2  19  -4   30.96    1.43
  -2  19   4   32.16    0.96
  -2  19   4   31.85    1.21
  -1 -19   4    0.44    0.30
  -1 -19   4    0.89    0.36
   1 -19  -4    0.17    0.31
   1  19  -4    1.04    0.30
  -1  19   4    0.46    0.32
  -1  19   4    0.97    0.36
  -1  19   4    0.25    0.28
   0 -19   4    4.67    0.64
   0 -19  -4    4.08    0.50
   0  19   4    4.06    0.56
   0  19   4    4.84    0.53
   0  19  -4    3.64    0.46
   1 -19   4   12.53    0.88
   1 -19   4   13.87    0.89
   1  19   4   13.12    0.81
  -1  19  -4   12.38    0.80
   1  19   4   10.29    0.75
  -1  19  -4   11.87    0.95
   2 -19   4   13.10    0.89
   2 -19   4   11.95    1.03
  -2 -19  -4   13.16    0.97
  -2  19  -4   12.07    0.86
   2  19   4   11.34    0.83
   2  19   4   10.90    0.83
   3 -19   4    3.54    0.63
   3 -19   4    3.87    0.77
  -3 -19  -4    2.63    0.70
  -3  19  -4    3.28    0.59
  -5 -20   4    0.73    0.76
   5 -20  -4    1.20    0.58
   5  20  -4   -0.28    0.64
   5  20  -4    0.83    0.43
  -5  20   4    0.25    0.46
  -5  20   4   -0.73    0.44
  -4 -20   4    0.83    0.55
   4 -20  -4    1.42    0.87
   4  20  -4   -0.03    0.55
  -4  20   4   -0.13    0.38
  -4  20   4    1.14    0.43
  -3 -20   4   21.98    1.29
   3 -20  -4   21.66    0.95
  -3 -20   4   23.46    1.09
  -3  20   4   21.12    1.09
  -3  20   4   20.91    1.09
   3  20  -4   19.36    1.22
  -2 -20   4    8.12    0.87
  -2 -20   4    9.14    0.75
   2 -20  -4    8.26    0.49
   2 -20  -4    8.68    0.53
  -2 -20   4    7.86    0.55
  -2  20   4    8.00    0.70
   2  20  -4    9.38    0.85
  -2  20   4    8.53    0.69
   2  20  -4    8.45    0.54
  -1 -20   4  107.30    3.02
   1 -20  -4  105.54    2.90
  -1 -20   4  101.43    2.92
   1  20  -4  107.07    2.88
  -1  20   4  103.35    2.96
   1  20  -4   95.69    3.35
  -1  20   4  105.39    3.04
   0 -20  -4   32.44    1.26
   0 -20   4   30.25    1.37
   0 -20   4   32.81    1.29
   0  20   4   32.28    1.29
   0  20   4   29.33    1.20
   0  20  -4   32.33    1.22
   1 -20   4   17.73    1.06
   1 -20   4   17.92    1.09
   1  20   4   18.17    0.95
   1  20   4   16.89    0.90
  -1  20  -4   16.80    0.95
  -2 -20  -4    9.31    0.94
   2 -20   4    9.60    0.93
   2 -20   4    9.00    0.95
   2  20   4    9.99    0.80
   2  20   4   10.22    0.83
  -2  20  -4    9.27    0.84
  -3 -20  -4   26.72    1.49
   3 -20   4   26.45    1.70
   3 -20   4   25.63    1.39
  -3  20  -4   26.64    1.40
   3  20   4   29.69    1.88
   5 -21  -4    6.04    0.80
  -5 -21   4    5.45    0.99
  -5  21   4    4.07    0.66
   5  21  -4    4.79    0.64
  -4 -21   4   27.54    1.25
  -4 -21   4   29.65    1.58
   4 -21  -4   27.58    1.29
  -4  21   4   26.58    1.21
   4  21  -4   25.13    1.52
  -4  21   4   28.63    1.34
   3 -21  -4   10.30    0.72
  -3 -21   4    9.92    1.06
  -3 -21   4   10.53    0.84
  -3  21   4   10.55    0.81
   3  21  -4   10.29    1.02
  -3  21   4   12.37    0.87
   2 -21  -4   16.46    0.71
  -2 -21   4   14.69    1.07
  -2 -21   4   16.18    0.96
   2 -21  -4   15.29    0.65
  -2  21   4   14.60    0.91
   2  21  -4   16.62    0.72
   2  21  -4   15.17    1.05
  -2  21   4   14.57    0.89
  -1 -21   4    3.31    0.52
   1 -21  -4    3.13    0.44
  -1 -21   4    3.16    0.49
  -1  21   4    3.43    0.48
  -1  21   4    3.41    0.50
   1  21  -4    2.53    0.39
   1  21  -4    2.84    0.55
   0 -21   4    0.16    0.39
   0 -21  -4    0.85    0.37
   0 -21   4    0.39    0.42
   0  21  -4   -0.21    0.39
   0  21   4    0.71    0.35
   0  21  -4   -0.41    0.30
   0  21   4   -0.18    0.32
   1 -21   4    0.03    0.45
   1 -21   4    1.38    0.50
  -1  21  -4    0.02    0.45
   1  21   4    1.18    0.39
   1  21   4    1.04    0.39
  -1  21  -4    1.42    0.42
   2 -21   4    0.22    0.52
   2 -21   4    0.02    0.51
  -2 -21  -4    0.04    0.54
   2  21   4    0.23    0.40
   2  21   4    0.91    0.44
  -2  21  -4    0.49    0.46
  -4 -22   4    1.32    0.49
   4 -22  -4    0.82    0.50
  -4 -22   4    0.62    0.70
  -4  22   4    0.49    0.47
  -4  22   4    0.19    0.46
   4  22  -4    0.13    0.61
  -3 -22   4    6.90    0.86
  -3 -22   4    7.46    0.81
   3 -22  -4    6.34    0.65
  -3  22   4    5.55    0.63
  -3  22   4    6.14    0.72
   3  22  -4    4.61    0.74
  -2 -22   4   13.06    0.90
  -2 -22   4   14.19    1.02
   2 -22  -4   11.96    0.83
  -2  22   4   13.03    0.85
   2  22  -4   10.80    1.00
   2  22  -4   12.65    0.68
  -2  22   4   12.70    0.86
  -1 -22   4   18.31    0.98
  -1 -22   4   15.29    1.08
   1 -22  -4   18.44    0.90
   1  22  -4   17.21    0.85
  -1  22   4   17.99    0.94
  -1  22   4   17.60    0.99
   1  22  -4   17.60    1.11
   0 -22   4   11.38    0.97
   0 -22   4   12.79    0.87
   0 -22  -4   12.50    1.34
   0  22   4   11.66    0.86
   0  22  -4   12.91    0.80
   0  22  -4   12.84    0.99
   0  22   4   12.39    0.81
  -1 -22  -4   55.46    1.95
   1 -22   4   55.70    1.99
   1 -22   4   52.43    1.95
  -1  22  -4   51.69    1.95
   1  22   4   53.54    1.83
  -1  22  -4   53.59    1.87
   1  22   4   53.33    1.88
  -2 -22  -4    5.41    0.79
   2 -22   4    4.70    0.73
   2 -22   4    4.56    0.70
  -2  22  -4    4.54    0.68
   2  22   4    3.92    0.57
   2  22   4    7.20    0.82
  -4 -23   4   10.47    1.27
  -4 -23   4   10.87    0.96
   4  23  -4    9.54    1.21
  -4  23   4    8.78    0.95
  -4  23   4    9.05    0.99
  -3 -23   4   23.26    1.20
  -3 -23   4   24.30    1.47
  -3  23   4   25.11    1.26
   3  23  -4   23.04    1.42
  -3  23   4   22.94    1.16
  -2 -23   4    2.33    0.50
  -2 -23   4    2.52    0.61
   2  23  -4    3.07    0.66
   2  23  -4    3.35    0.41
  -2  23   4    3.44    0.55
  -2  23   4    4.27    0.58
   1 -23  -4   31.19    1.25
  -1 -23   4   32.13    1.31
  -1 -23   4   28.44    1.44
   1  23  -4   31.50    1.49
  -1  23   4   32.35    1.38
  -1  23   4   30.84    1.30
   1  23  -4   32.21    1.21
   0 -23   4   -0.25    0.42
   0 -23   4    0.02    0.52
   0  23   4    0.28    0.39
   0  23  -4    0.42    0.36
   0  23   4    0.53    0.42
   0  23  -4    0.60    0.49
  -1 -23  -4    1.29    0.52
   1 -23   4    1.63    0.58
   1 -23   4    0.20    0.50
  -1  23  -4    0.03    0.49
   1  23   4    0.99    0.44
   1  23   4    0.52    0.47
  -1  23  -4   -0.15    0.40
  -2 -23  -4   -0.18    0.60
   2 -23   4    0.07    0.61
   2 -23   4    0.14    0.63
  -2  23  -4    1.38    0.53
  -2  23  -4   -0.79    0.52
   2  23   4   -0.59    0.45
   2  23   4    0.69    0.49
  -3 -24   4    5.28    0.68
  -3 -24   4    5.84    0.91
   3  24  -4    4.36    0.84
  -3  24   4    6.42    0.83
  -3  24   4    6.25    0.86
  -2 -24   4    4.33    0.59
  -2 -24   4    2.85    0.67
  -2  24   4    3.13    0.52
  -2  24   4    2.75    0.54
   2  24  -4    3.04    0.70
  -1 -24   4   12.71    1.00
  -1 -24   4    9.95    0.83
   1 -24  -4    8.44    0.83
   1  24  -4   10.47    0.86
  -1  24   4    9.38    0.86
  -1  24   4    9.12    0.84
   1  24  -4   11.44    1.03
   0 -24   4   12.58    0.98
   0 -24   4   12.81    1.08
   0  24  -4   13.34    0.88
   0  24   4   10.78    0.92
   0  24   4   13.11    0.96
   0  24  -4   12.73    1.10
   1 -24   4   13.04    1.10
   1 -24   4   11.69    1.02
  -1 -24  -4   13.78    1.03
   1  24   4   11.85    0.95
  -1  24  -4   10.13    0.90
  -1  24  -4   11.47    1.08
   1  24   4   12.75    0.90
  -3 -25   4   12.37    1.03
  -3  25   4   14.94    1.20
  -2 -25   4    1.65    0.74
  -2 -25   4    1.73    0.50
  -2  25   4    2.42    0.54
  -2  25   4    2.05    0.51
   2  25  -4    1.66    0.66
   1 -25  -4    7.92    0.91
  -1 -25   4   11.28    0.87
  -1 -25   4   10.44    1.12
   1  25  -4   11.48    1.06
  -1  25   4    9.86    0.87
   1  25  -4   10.57    0.81
  -1  25   4   10.66    0.87
   0 -25   4    0.26    0.56
   0 -25   4   -0.16    0.48
   0  25   4    0.79    0.46
   0  25  -4    0.62    0.44
   0  25   4    0.29    0.43
   0  25  -4   -0.94    0.52
   1 -25   4    1.38    0.60
  -1 -25  -4    1.19    0.59
   1 -25   4    1.02    0.54
  -1  25  -4    0.38    0.57
   1  25   4    0.72    0.49
   1  25   4   -0.23    0.46
  -2 -26   4    6.25    0.71
  -2  26   4    8.69    1.16
  -1 -26   4    6.13    0.87
  -1 -26   4    7.37    0.84
  -1  26   4    7.78    0.88
   1  26  -4    5.70    0.78
   1  26  -4    6.09    0.84
  -1  26   4    6.27    0.73
   0 -26   4   20.89    1.20
   0 -26   4   22.20    1.53
   0 -26  -4   24.42    1.36
   0  26   4   22.06    1.25
   0  26  -4   23.53    1.18
   0  26   4   23.24    1.26
   0  26  -4   20.70    1.41
   7   0  -5    3.90    1.01
  -7   0   5    3.97    0.66
  -6   0   5    0.06    0.42
   6   0  -5   -0.72    0.35
  -5   0   5   11.03    0.46
   5   0  -5   10.82    0.49
  -5   0   5   10.67    0.53
   5   0  -5   10.51    0.76
  -4   0   5    0.13    0.18
  -4   0   5    0.44    0.19
   4   0  -5   -0.36    0.25
  -4   0   5    0.10    0.20
  -4   0   5    0.20    0.21
  -3   0   5    2.23    0.35
  -3   0   5    3.22    0.30
  -3   0   5    3.69    0.47
  -3   0   5    2.85    0.31
  -3   0   5    3.30    0.33
  -3   0   5    2.81    0.34
   3   0  -5    2.85    0.40
  -2   0   5   -0.36    0.20
  -2   0   5   -0.15    0.17
  -2   0   5   -0.01    0.27
  -2   0   5   -0.18    0.21
  -2   0   5   -0.06    0.16
  -2   0   5    0.13    0.15
   2   0  -5   -0.07    0.18
  -2   0   5   -0.23    0.16
  -1   0   5   30.16    1.09
  -1   0   5   29.90    1.04
  -1   0   5   30.92    1.02
  -1   0   5   29.34    0.98
  -1   0   5   29.47    1.01
  -1   0   5   30.42    1.05
  -1   0   5   31.24    1.04
  -1   0   5   30.62    1.04
   0   0   5    0.70    0.24
   0   0   5    0.88    0.24
   0   0   5    0.56    0.21
   0   0   5    0.21    0.23
   0   0   5    0.10    0.21
   0   0   5    0.75    0.25
   0   0   5    0.61    0.23
   1   0   5  165.91    4.33
   1   0   5  158.89    4.28
   1   0   5  165.64    4.18
   1   0   5  168.45    4.22
  -1   0  -5  166.47    4.39
  -2   0  -5   -0.50    0.29
  -2   0  -5   -0.18    0.23
   2   0   5   -0.14    0.12
   2   0   5    0.38    0.27
   2   0   5   -0.08    0.14
  -3   0  -5   21.44    1.07
   3   0   5   20.99    0.98
  -3   0  -5   20.16    1.01
  -4   0  -5   -0.08    0.41
  -4   0  -5    0.09    0.45
   4   0   5   -0.46    0.45
  -7  -1   5   -0.21    0.50
   7  -1  -5    1.04    0.74
  -7   1   5   -0.01    0.48
  -6  -1   5   42.96    1.65
  -6  -1   5   42.88    1.40
   6  -1  -5   43.44    1.68
  -6   1   5   42.90    1.64
   6   1  -5   42.89    1.68
  -5  -1   5    1.88    0.23
   5  -1  -5    2.75    0.49
  -5  -1   5    2.11    0.31
  -5  -1   5    2.37    0.25
   5  -1  -5    2.07    0.27
   5   1  -5    1.84    0.42
  -5   1   5    2.63    0.32
  -5   1   5    2.47    0.27
   5   1  -5    2.29    0.28
  -4  -1   5   33.97    0.99
  -4  -1   5   34.98    1.12
   4  -1  -5   32.99    1.25
  -4  -1   5   34.60    1.01
   4   1  -5   31.93    1.37
  -4   1   5   35.68    1.01
  -4   1   5   34.81    1.08
  -4   1   5   34.82    1.05
  -3  -1   5    0.95    0.21
  -3  -1   5    1.27    0.29
   3  -1  -5    0.95    0.27
  -3  -1   5    1.16    0.21
  -3  -1   5    0.98    0.19
  -3  -1   5    0.72    0.28
  -3   1   5    0.72    0.20
  -3   1   5    0.77    0.25
  -3   1   5    0.21    0.23
   3   1  -5    1.07    0.29
  -3   1   5    0.48    0.19
  -3   1   5    0.82    0.31
  -3   1   5    0.94    0.19
  -2  -1   5   27.48    1.06
  -2  -1   5   28.98    0.91
  -2  -1   5   26.07    0.89
  -2  -1   5   25.52    1.01
  -2  -1   5   28.76    0.96
   2  -1  -5   26.79    0.95
  -2  -1   5   28.58    0.93
  -2  -1   5   26.43    1.02
  -2   1   5   28.05    1.08
  -2   1   5   26.34    1.00
  -2   1   5   27.79    0.91
  -2   1   5   26.94    1.01
   2   1  -5   26.29    0.97
  -2   1   5   28.07    0.90
  -2   1   5   27.70    0.92
  -2   1   5   28.01    0.92
  -1  -1   5   10.02    0.53
  -1  -1   5    9.62    0.51
  -1  -1   5    8.75    0.49
  -1  -1   5    7.86    0.52
  -1  -1   5   10.39    0.59
  -1  -1   5    8.86    0.52
  -1  -1   5    8.86    0.51
  -1  -1   5    9.28    0.54
  -1   1   5    8.80    0.57
  -1   1   5   10.04    0.52
  -1   1   5    9.10    0.51
  -1   1   5    9.44    0.55
  -1   1   5    9.56    0.53
  -1   1   5    8.81    0.51
  -1   1   5    9.48    0.48
  -1   1   5    9.36    0.52
   0  -1   5   18.01    0.77
   0  -1   5   18.20    0.82
   0  -1   5   19.52    0.76
   0  -1   5   18.12    0.71
   0  -1  -5   17.97    0.76
   0  -1   5   18.56    0.76
   0  -1   5   18.64    0.77
   0  -1   5   17.99    0.79
   0  -1   5   17.89    0.77
   0   1   5   17.81    0.77
   0   1   5   18.24    0.71
   0   1   5   18.26    0.72
   0   1   5   17.26    0.75
   0   1   5   18.37    0.78
   0   1   5   18.50    0.81
   0   1   5   19.29    0.76
   1  -1   5   15.00    0.73
   1  -1   5   15.57    0.60
  -1  -1  -5   15.03    0.76
   1  -1   5   14.82    0.71
   1  -1   5   15.05    0.61
   1   1   5   15.58    0.64
  -1   1  -5   14.52    0.74
   1   1   5   15.78    0.78
   1   1   5   14.81    0.67
   1   1   5   14.20    0.58
   1   1   5   15.44    0.69
  -1   1  -5   15.51    0.75
   2  -1   5    0.08    0.14
  -2  -1  -5   -0.15    0.25
   2  -1   5   -0.04    0.13
   2  -1   5    0.35    0.29
   2   1   5   -0.06    0.23
  -2   1  -5    0.15    0.29
  -2   1  -5   -0.52    0.33
   2   1   5    0.21    0.15
   2   1   5    0.11    0.13
  -3  -1  -5    3.33    0.55
   3  -1   5    2.57    0.56
  -3  -1  -5    2.81    0.44
   3   1   5    2.97    0.46
  -3   1  -5    2.26    0.44
  -4  -1  -5   13.58    1.05
   4  -1   5   14.18    1.01
  -4  -1  -5   15.73    1.00
  -4   1  -5   13.72    1.01
  -4   1  -5   11.95    0.96
   4   1   5   14.81    0.97
   7  -2  -5   11.83    1.42
  -7  -2   5   13.00    1.00
  -7   2   5   11.42    1.02
  -6  -2   5    0.53    0.41
  -6  -2   5    0.29    0.31
   6  -2  -5    0.00    0.43
   6   2  -5    0.00    0.40
  -6   2   5    0.11    0.43
   5  -2  -5    6.06    0.63
   5  -2  -5    6.09    0.44
  -5  -2   5    5.78    0.24
  -5  -2   5    6.32    0.50
  -5  -2   5    6.14    0.25
  -5   2   5    5.96    0.32
   5   2  -5    6.64    0.45
  -5   2   5    5.96    0.35
   5   2  -5    6.67    0.64
  -5   2   5    5.94    0.43
   4  -2  -5    0.49    0.28
  -4  -2   5    0.31    0.16
   4  -2  -5    0.36    0.20
  -4  -2   5    0.37    0.13
  -4  -2   5   -0.04    0.23
  -4   2   5    0.10    0.17
   4   2  -5    0.13    0.19
  -4   2   5    0.07    0.21
  -4   2   5    0.22    0.14
   3  -2  -5   25.26    0.95
  -3  -2   5   25.59    0.85
  -3  -2   5   24.54    0.81
  -3  -2   5   24.03    1.00
  -3  -2   5   23.02    0.93
   3   2  -5   26.02    0.98
  -3   2   5   26.24    0.86
  -3   2   5   24.08    1.00
  -3   2   5   26.08    0.79
  -3   2   5   21.60    0.83
  -3   2   5   25.59    0.88
  -3   2   5   24.48    1.00
  -2  -2   5    0.43    0.24
  -2  -2   5    0.14    0.24
  -2  -2   5   -0.02    0.16
  -2  -2   5    0.37    0.19
  -2  -2   5    0.04    0.23
  -2  -2   5    0.00    0.15
  -2  -2   5    0.47    0.22
   2  -2  -5    0.22    0.20
  -2   2   5    0.11    0.18
  -2   2   5    0.02    0.19
  -2   2   5   -0.06    0.25
   2   2  -5    0.21    0.22
  -2   2   5    0.45    0.19
  -2   2   5    0.05    0.22
  -2   2   5   -0.07    0.23
  -2   2   5    0.29    0.17
  -1  -2   5   32.68    1.14
  -1  -2   5   33.38    1.14
  -1  -2   5   32.87    1.14
  -1  -2   5   33.24    1.08
  -1  -2   5   33.49    1.14
  -1  -2   5   33.73    1.09
  -1  -2   5   32.80    1.08
  -1  -2   5   34.48    1.13
  -1   2   5   34.59    1.11
  -1   2   5   32.72    1.11
  -1   2   5   32.56    1.08
  -1   2   5   33.21    1.11
  -1   2   5   33.77    1.10
  -1   2   5   33.59    1.05
  -1   2   5   33.83    1.10
  -1   2   5   34.05    1.18
   0  -2   5    0.98    0.24
   0  -2   5    0.61    0.25
   0  -2   5    0.47    0.22
   0  -2   5    0.58    0.26
   0  -2  -5    0.52    0.21
   0  -2   5    0.90    0.29
   0  -2   5    0.34    0.26
   0  -2   5    0.54    0.22
   0   2   5    0.91    0.23
   0   2   5    0.74    0.22
   0   2   5    0.79    0.25
   0   2   5    1.19    0.26
   0   2   5    0.70    0.24
   0   2   5    0.84    0.25
   0   2   5    0.76    0.27
   1  -2   5   31.63    1.15
   1  -2   5   32.87    1.03
   1  -2   5   33.64    1.04
  -1  -2  -5   33.99    1.20
   1  -2   5   32.35    1.20
  -1   2  -5   33.90    1.20
   1   2   5   35.07    1.08
   1   2   5   34.35    1.24
   1   2   5   34.30    1.08
  -1   2  -5   34.12    1.22
   1   2   5   34.47    1.12
   1   2   5   32.51    1.01
   2  -2   5   15.14    0.81
   2  -2   5   14.79    0.50
   2  -2   5   14.87    0.52
   2   2   5   15.04    0.52
   2   2   5   14.86    0.72
  -2   2  -5   15.59    0.83
   2   2   5   14.85    0.50
  -3  -2  -5   46.91    1.74
   3  -2   5   48.23    1.70
   3   2   5   47.87    1.62
  -3   2  -5   50.61    1.74
   4  -2   5   11.80    0.96
  -4  -2  -5   12.23    0.99
   4   2   5   11.71    0.87
  -4   2  -5   12.74    0.97
  -4   2  -5   11.59    0.96
   7  -3  -5    0.70    0.67
  -7  -3   5    0.45    0.56
  -7   3   5    1.01    0.52
  -6  -3   5   25.01    1.23
  -6  -3   5   25.16    1.04
   6  -3  -5   26.87    1.30
   6   3  -5   26.41    1.25
  -6   3   5   26.76    1.23
  -6   3   5   26.26    0.95
   5  -3  -5   13.71    0.61
   5  -3  -5   13.35    0.84
  -5  -3   5   13.88    0.71
  -5  -3   5   15.49    1.34
   5   3  -5   14.35    0.64
  -5   3   5   13.70    0.43
  -5   3   5   13.61    0.63
  -5   3   5   13.47    0.43
   5   3  -5   13.28    0.84
  -4  -3   5   57.00    1.45
  -4  -3   5   56.90    1.44
  -4  -3   5   55.82    1.70
   4  -3  -5   55.90    1.60
   4  -3  -5   53.45    1.77
   4   3  -5   56.36    1.59
  -4   3   5   56.86    1.46
   4   3  -5   54.52    1.86
  -4   3   5   53.67    1.63
  -3  -3   5   14.35    0.54
  -3  -3   5   14.41    0.51
   3  -3  -5   14.16    0.68
  -3  -3   5   13.25    0.70
  -3   3   5   14.16    0.73
  -3   3   5   14.36    0.63
  -3   3   5   14.57    0.52
  -3   3   5   13.05    0.57
   3   3  -5   14.24    0.70
  -3   3   5   13.09    0.73
  -2  -3   5   52.14    1.55
  -2  -3   5   49.64    1.43
  -2  -3   5   48.09    1.60
  -2  -3   5   50.94    1.61
  -2  -3   5   48.98    1.43
   2  -3  -5   50.35    1.50
  -2  -3   5   50.85    1.49
  -2   3   5   50.69    1.50
  -2   3   5   51.07    1.44
   2   3  -5   49.81    1.55
  -2   3   5   52.29    1.66
  -2   3   5   48.69    1.56
  -2   3   5   49.77    1.56
  -2   3   5   50.67    1.50
  -2   3   5   51.04    1.43
  -1  -3   5    0.63    0.25
  -1  -3   5    0.83    0.21
  -1  -3   5    0.73    0.24
  -1  -3   5    0.58    0.22
  -1  -3   5    0.78    0.26
  -1  -3   5    0.78    0.26
  -1  -3   5    0.98    0.26
  -1   3   5    0.77    0.22
  -1   3   5    0.49    0.22
  -1   3   5    0.89    0.28
  -1   3   5    0.85    0.23
  -1   3   5    1.16    0.24
  -1   3   5    0.20    0.21
  -1   3   5    0.70    0.21
  -1   3   5    0.96    0.23
   0  -3   5   12.68    0.68
   0  -3   5   12.85    0.68
   0  -3   5   12.42    0.61
   0  -3   5   11.56    0.58
   0  -3   5   11.42    0.62
   0  -3   5   11.71    0.61
   0  -3  -5   11.22    0.59
   0  -3   5   11.89    0.58
   0   3   5   11.40    0.60
   0   3   5   12.08    0.53
   0   3   5   11.79    0.57
   0   3   5   11.74    0.63
   0   3   5   11.07    0.64
   0   3   5   12.23    0.63
   0   3  -5   11.30    0.59
   0   3   5   11.91    0.55
   1  -3   5    2.55    0.40
   1  -3   5    3.64    0.46
   1  -3   5    2.57    0.28
   1  -3   5    2.41    0.27
  -1  -3  -5    1.86    0.35
   1   3   5    1.74    0.24
   1   3   5    1.85    0.29
  -1   3  -5    2.19    0.35
   1   3   5    2.64    0.35
   1   3   5    2.56    0.38
   1   3   5    2.78    0.38
   2  -3   5    4.22    0.29
   2  -3   5    3.91    0.53
   2  -3   5    5.41    0.32
   2   3   5    4.80    0.33
  -2   3  -5    5.20    0.54
   2   3   5    4.66    0.57
   2   3   5    4.68    0.46
   2   3   5    4.61    0.29
  -3  -3  -5    1.38    0.43
   3  -3   5    1.62    0.43
   3   3   5    1.75    0.44
  -3   3  -5    1.22    0.39
   3   3   5    2.23    0.41
  -4  -3  -5   22.38    1.23
   4  -3   5   22.87    1.26
   4   3   5   23.62    1.25
  -4   3  -5   21.90    1.18
  -4   3  -5   23.27    1.22
   4   3   5   23.81    1.15
  -7  -4   5    0.28    0.53
  -7   4   5   -0.12    0.50
  -6  -4   5    0.72    0.32
   6  -4  -5   -0.68    0.35
  -6  -4   5   -0.05    0.41
  -6   4   5   -0.24    0.39
   6   4  -5   -0.27    0.39
  -6   4   5    0.24    0.28
   5  -4  -5    0.16    0.26
  -5  -4   5    0.80    0.31
   5  -4  -5    0.75    0.37
  -5  -4   5   -0.04    0.39
   5   4  -5    0.24    0.33
  -5   4   5    0.75    0.26
  -5   4   5    0.04    0.35
   5   4  -5    0.72    0.29
   4  -4  -5    2.08    0.39
  -4  -4   5    2.19    0.37
  -4  -4   5    1.88    0.15
   4  -4  -5    1.84    0.29
  -4  -4   5    1.83    0.15
  -4   4   5    1.49    0.30
   4   4  -5    2.18    0.37
  -4   4   5    2.14    0.17
   4   4  -5    1.74    0.29
  -4   4   5    1.86    0.17
   3  -4  -5   32.07    1.13
  -3  -4   5   33.01    0.97
  -3  -4   5   32.61    1.17
   3  -4  -5   32.52    1.06
  -3  -4   5   32.38    0.94
  -3   4   5   32.30    1.19
   3   4  -5   33.58    1.16
   3   4  -5   33.36    1.27
  -3   4   5   34.98    1.12
  -3   4   5   33.77    0.95
  -3   4   5   31.61    1.18
  -3   4   5   31.19    0.98
  -2  -4   5    6.99    0.46
  -2  -4   5    6.77    0.56
  -2  -4   5    6.06    0.53
  -2  -4   5    6.04    0.49
  -2  -4   5    6.53    0.38
   2  -4  -5    6.52    0.44
  -2  -4   5    5.84    0.38
  -2   4   5    5.93    0.38
  -2   4   5    5.18    0.48
  -2   4   5    7.37    0.46
   2   4  -5    6.32    0.57
   2   4  -5    6.29    0.49
  -2   4   5    6.37    0.39
  -2   4   5    6.17    0.57
  -2   4   5    7.34    0.49
  -2   4   5    6.38    0.44
  -1  -4   5   97.22    2.67
  -1  -4   5   98.92    2.76
  -1  -4   5   99.24    2.71
  -1  -4   5   96.64    2.76
  -1  -4   5   99.40    2.75
  -1  -4   5  101.28    2.73
  -1  -4   5  100.56    2.66
  -1   4   5  102.18    2.79
  -1   4   5  100.54    2.72
   1   4  -5   96.44    2.78
  -1   4   5  101.97    2.73
  -1   4   5   97.13    2.65
  -1   4   5  101.58    2.69
  -1   4   5   97.47    2.71
  -1   4   5   99.19    2.67
   0  -4   5    3.19    0.46
   0  -4   5    3.83    0.47
   0  -4   5    3.14    0.43
   0  -4  -5    3.58    0.39
   0  -4   5    3.53    0.43
   0  -4   5    3.18    0.39
   0  -4   5    3.76    0.39
   0   4   5    3.88    0.45
   0   4   5    3.41    0.35
   0   4   5    3.90    0.42
   0   4   5    4.00    0.37
   0   4   5    4.09    0.46
   0   4   5    3.47    0.33
   0   4  -5    3.62    0.39
   1  -4   5   81.35    2.48
   1  -4   5   87.13    2.29
   1  -4   5   79.53    2.42
   1  -4   5   83.87    2.28
  -1  -4  -5   86.93    2.46
   1  -4   5   78.25    2.56
   1   4   5   87.12    2.31
   1   4   5   90.14    2.34
   1   4   5   85.40    2.25
   1   4   5   85.11    2.28
  -1   4  -5   89.53    2.47
   1   4   5   85.23    2.50
   2  -4   5    6.29    0.33
   2  -4   5    6.03    0.35
   2  -4   5    5.64    0.61
   2   4   5    6.45    0.66
   2   4   5    6.07    0.47
   2   4   5    6.55    0.40
   2   4   5    5.64    0.34
  -2   4  -5    5.74    0.59
   2   4   5    5.14    0.46
   3  -4   5   44.07    1.61
  -3  -4  -5   41.75    1.61
   3   4   5   42.29    1.59
  -3   4  -5   42.83    1.57
   3   4   5   42.15    1.42
  -3   4  -5   36.74    1.68
  -4  -4  -5    7.39    0.95
   4  -4   5    8.02    0.90
   4   4   5    7.36    0.78
   4   4   5    7.11    0.86
  -4   4  -5    6.73    0.83
  -4   4  -5    7.84    0.88
  -7  -5   5    7.71    0.96
  -7   5   5    5.37    0.74
  -6  -5   5   14.46    0.96
   6  -5  -5   12.00    0.96
  -6  -5   5   14.27    0.83
   6   5  -5   15.53    1.00
  -6   5   5   15.26    0.94
  -6   5   5   14.43    0.74
   5  -5  -5    1.42    0.42
  -5  -5   5    0.99    0.37
  -5  -5   5    1.71    0.42
   5  -5  -5    1.36    0.28
  -5   5   5    1.25    0.31
   5   5  -5    0.54    0.36
  -5   5   5    0.79    0.40
  -4  -5   5   45.28    1.52
   4  -5  -5   44.16    1.52
   4  -5  -5   44.66    1.37
  -4   5   5   43.60    1.43
   4   5  -5   45.80    1.39
   4   5  -5   45.94    1.53
  -3  -5   5    8.83    0.36
  -3  -5   5    8.52    0.40
   3  -5  -5    8.49    0.52
  -3  -5   5    8.76    0.59
   3  -5  -5    8.51    0.55
   3   5  -5    7.99    0.57
  -3   5   5    8.47    0.61
  -3   5   5    9.54    0.37
  -3   5   5   10.14    0.54
  -3   5   5    8.03    0.47
   3   5  -5    8.45    0.49
   3   5  -5    8.28    0.66
  -3   5   5    8.72    0.60
  -2  -5   5   47.86    1.34
  -2  -5   5   47.44    1.44
  -2  -5   5   46.28    1.54
  -2  -5   5   47.35    1.35
   2  -5  -5   46.73    1.41
  -2  -5   5   47.79    1.50
  -2  -5   5   45.38    1.56
  -2   5   5   44.94    1.43
   2   5  -5   47.58    1.58
   2   5  -5   46.09    1.50
  -2   5   5   46.96    1.50
  -2   5   5   49.08    1.60
  -2   5   5   48.03    1.34
  -2   5   5   48.34    1.45
  -2   5   5   49.52    1.49
  -2   5   5   47.60    1.45
  -1  -5   5   -0.06    0.23
  -1  -5   5    0.34    0.20
  -1  -5   5    0.35    0.22
   1  -5  -5    0.09    0.17
  -1  -5   5    0.23    0.23
  -1  -5   5    0.34    0.25
  -1  -5   5    0.67    0.25
  -1   5   5    0.27    0.21
  -1   5   5    0.50    0.20
  -1   5   5    0.35    0.27
  -1   5   5    0.39    0.22
  -1   5   5    0.15    0.19
  -1   5   5    0.17    0.19
   1   5  -5    0.15    0.24
  -1   5   5    0.68    0.22
   0  -5  -5    2.23    0.31
   0  -5   5    1.87    0.31
   0  -5   5    2.08    0.37
   0  -5   5    2.07    0.36
   0  -5   5    1.98    0.35
   0  -5   5    2.30    0.30
   0  -5   5    2.36    0.32
   0   5   5    2.34    0.34
   0   5   5    2.38    0.34
   0   5   5    2.21    0.27
   0   5   5    2.33    0.34
   0   5   5    2.02    0.29
   0   5  -5    1.93    0.30
   0   5   5    2.23    0.29
   0   5  -5    2.25    0.34
  -1  -5  -5    0.55    0.29
   1  -5   5    0.96    0.52
   1  -5   5    0.57    0.21
   1  -5   5    0.84    0.21
   1  -5   5    0.66    0.33
  -1   5  -5    0.86    0.28
   1   5   5    0.75    0.25
   1   5   5    0.98    0.22
   1   5   5    0.93    0.22
   1   5   5    0.84    0.19
   2  -5   5   10.38    0.45
  -2   5  -5   10.58    0.71
   2   5   5   10.91    0.56
   2   5   5   11.39    0.57
   2   5   5   11.63    0.47
   2   5   5   11.48    0.76
   3  -5   5   -0.12    0.38
  -3  -5  -5   -0.51    0.37
  -3   5  -5    0.21    0.33
  -3   5  -5   -0.65    0.35
   3   5   5    0.06    0.38
   3   5   5    0.25    0.31
  -4  -5  -5    9.75    1.01
   4  -5   5   12.34    1.06
   4   5   5   10.97    0.85
  -4   5  -5   12.02    0.95
  -4   5  -5   10.15    0.95
   4   5   5   13.25    1.03
  -6  -6   5    1.51    0.45
  -6  -6   5    0.67    0.45
   6  -6  -5    2.18    0.56
  -6   6   5    1.62    0.38
   6   6  -5    2.31    0.53
  -6   6   5    0.72    0.42
   5  -6  -5    3.21    0.40
   5  -6  -5    3.95    0.52
  -5  -6   5    4.43    0.52
   5   6  -5    4.35    0.60
  -5   6   5    4.51    0.52
  -5   6   5    4.78    0.59
  -4  -6   5    5.71    0.59
   4  -6  -5    5.44    0.48
   4  -6  -5    5.88    0.55
  -4   6   5    5.60    0.50
   4   6  -5    6.63    0.57
   4   6  -5    6.06    0.48
   3  -6  -5    8.91    0.56
  -3  -6   5    8.38    0.39
  -3  -6   5    9.03    0.36
  -3  -6   5    9.19    0.63
   3  -6  -5   10.07    0.54
  -3   6   5    8.71    0.36
   3   6  -5    9.27    0.59
  -3   6   5    8.91    0.34
  -3   6   5    8.26    0.59
  -3   6   5    8.76    0.62
   3   6  -5    9.20    0.69
   3   6  -5    8.90    0.53
  -3   6   5    8.65    0.54
  -2  -6   5   22.80    0.77
  -2  -6   5   23.60    0.94
   2  -6  -5   24.15    0.84
  -2  -6   5   25.22    0.90
  -2  -6   5   22.70    0.77
  -2  -6   5   22.71    0.95
   2   6  -5   24.29    1.02
  -2   6   5   24.72    0.91
  -2   6   5   22.51    1.02
  -2   6   5   23.28    0.76
  -2   6   5   24.37    0.89
  -2   6   5   23.45    0.91
  -2   6   5   21.10    0.83
   2   6  -5   23.21    0.92
  -1  -6   5   33.40    1.27
   1  -6  -5   35.33    1.11
  -1  -6   5   36.47    1.14
  -1  -6   5   36.47    1.22
  -1  -6   5   35.16    1.46
  -1  -6   5   37.10    1.23
  -1  -6   5   37.40    1.27
   1   6  -5   34.71    1.26
  -1   6   5   34.55    1.21
  -1   6   5   35.67    1.10
  -1   6   5   37.30    1.13
  -1   6   5   39.00    1.64
   1   6  -5   34.67    1.12
  -1   6   5   37.73    1.17
  -1   6   5   36.33    1.18
  -1   6   5   34.84    1.19
   0  -6   5   17.67    0.83
   0  -6   5   17.75    0.78
   0  -6   5   18.27    0.76
   0  -6  -5   17.24    0.75
   0  -6   5   18.42    0.86
   0  -6   5   17.71    0.73
   0   6   5   18.24    0.79
   0   6   5   18.84    0.66
   0   6   5   17.88    0.71
   0   6   5   17.80    0.78
   0   6  -5   18.33    0.77
   0   6  -5   17.68    0.77
   0   6   5   17.66    0.65
   0   6   5   18.18    0.80
  -1  -6  -5   38.34    1.35
   1  -6   5   36.13    1.39
   1  -6   5   39.68    1.18
   1  -6   5   37.67    1.32
   1   6   5   38.31    1.13
   1   6   5   39.81    1.28
   1   6   5   38.87    1.50
  -1   6  -5   38.89    1.22
  -1   6  -5   38.29    1.32
   1   6   5   36.65    1.13
   1   6   5   37.64    1.14
   2  -6   5    2.72    0.49
   2  -6   5    2.77    0.32
   2   6   5    2.69    0.43
   2   6   5    3.50    0.33
   2   6   5    2.63    0.37
   2   6   5    3.57    0.39
  -2   6  -5    2.90    0.41
  -3  -6  -5   11.53    0.87
   3  -6   5   11.06    0.90
   3   6   5   11.07    0.67
  -3   6  -5   11.66    0.81
   3   6   5   11.79    0.86
   4  -6   5    0.49    0.58
  -4  -6  -5    1.51    0.51
   4   6   5    0.77    0.51
  -4   6  -5    0.80    0.53
  -4   6  -5    1.37    0.51
  -6  -7   5   11.87    0.93
   6  -7  -5   11.39    0.97
  -6  -7   5   10.88    0.95
   6   7  -5   10.68    0.87
  -6   7   5   11.20    0.85
  -6   7   5   12.80    0.74
   5  -7  -5   18.10    0.91
   5  -7  -5   21.15    1.03
  -5  -7   5   19.83    0.99
  -5   7   5   20.44    1.00
   5   7  -5   20.10    1.01
  -5   7   5   21.77    0.92
   5   7  -5   20.98    1.15
   4  -7  -5   41.88    1.45
  -4  -7   5   41.61    1.51
   4  -7  -5   40.55    1.34
  -4   7   5   39.77    1.39
   4   7  -5   44.42    1.49
   4   7  -5   41.77    1.34
   3  -7  -5   28.32    1.05
   3  -7  -5   29.71    1.07
  -3  -7   5   27.78    0.91
  -3  -7   5   30.76    0.84
  -3  -7   5   30.34    1.18
  -3   7   5   30.50    1.08
  -3   7   5   30.40    0.80
  -3   7   5   30.94    0.81
   3   7  -5   29.98    1.11
  -3   7   5   29.40    1.12
   3   7  -5   30.29    1.05
  -2  -7   5   13.22    0.74
  -2  -7   5   14.32    0.74
  -2  -7   5   13.98    0.54
   2  -7  -5   13.65    0.60
  -2  -7   5   13.49    0.67
   2  -7  -5   14.00    0.66
  -2  -7   5   13.93    0.54
   2   7  -5   13.52    0.77
  -2   7   5   13.37    0.66
  -2   7   5   13.52    0.82
  -2   7   5   14.23    0.52
  -2   7   5   13.69    0.54
  -2   7   5   14.12    0.64
  -2   7   5   12.86    0.69
   1  -7  -5   10.36    0.51
  -1  -7   5   10.86    0.60
  -1  -7   5    9.20    0.59
  -1  -7   5   10.16    0.53
  -1  -7   5   10.51    0.67
  -1   7   5   11.17    0.55
   1   7  -5   10.24    0.63
  -1   7   5   10.64    0.59
  -1   7   5   10.68    0.62
  -1   7   5   10.16    0.48
  -1   7   5   11.11    0.51
  -1   7   5   10.14    0.57
   1   7  -5   10.38    0.52
   0  -7  -5    0.04    0.21
   0  -7   5   -0.03    0.26
   0  -7   5    0.29    0.24
   0  -7   5    0.53    0.30
   0  -7   5    0.28    0.24
   0   7   5    0.18    0.18
   0   7   5    0.75    0.36
   0   7   5    0.31    0.19
   0   7  -5   -0.07    0.24
   0   7  -5    0.16    0.23
   0   7   5   -0.02    0.15
   0   7   5    0.42    0.25
   0   7   5    0.04    0.26
   1  -7   5    1.37    0.40
   1  -7   5    0.78    0.31
  -1  -7  -5    0.69    0.30
  -1   7  -5    0.72    0.24
   1   7   5    0.87    0.20
  -1   7  -5    1.06    0.31
   1   7   5    0.68    0.28
   1   7   5    0.42    0.18
   1   7   5    0.62    0.17
   2  -7   5    1.18    0.22
   2  -7   5    0.36    0.39
   2   7   5    0.58    0.33
   2   7   5    0.82    0.25
  -2   7  -5    1.35    0.37
   2   7   5    0.60    0.23
   2   7   5    0.83    0.21
   3  -7   5    6.27    0.82
  -3  -7  -5    6.08    0.79
   3  -7   5    5.96    0.78
  -3   7  -5    5.98    0.72
   3   7   5    7.86    0.77
   3   7   5    7.56    0.58
   4  -7   5    3.17    0.72
  -4  -7  -5    2.38    0.59
  -4   7  -5    0.75    0.48
   4   7   5    1.99    0.52
  -6  -8   5    9.57    0.92
   6  -8  -5   11.88    0.99
   6   8  -5   10.85    0.88
  -6   8   5   11.74    0.78
  -6   8   5   11.08    0.88
   5  -8  -5   12.32    0.84
  -5  -8   5   11.80    0.83
   5   8  -5   11.67    0.95
  -5   8   5   11.99    0.78
  -5   8   5   11.51    0.71
   5   8  -5   12.83    0.83
   4  -8  -5    0.51    0.26
   4  -8  -5    0.40    0.30
  -4  -8   5    0.24    0.34
   4   8  -5    0.01    0.26
   4   8  -5    0.12    0.29
  -4   8   5    0.13    0.28
  -3  -8   5    5.97    0.62
   3  -8  -5    6.04    0.48
  -3  -8   5    6.79    0.29
  -3  -8   5    6.08    0.31
   3  -8  -5    6.46    0.52
   3   8  -5    6.60    0.75
   3   8  -5    6.06    0.50
  -3   8   5    5.81    0.55
  -3   8   5    7.69    0.53
  -3   8   5    5.77    0.53
   2  -8  -5   16.75    0.78
  -2  -8   5   16.38    0.61
  -2  -8   5   16.30    0.81
  -2  -8   5   16.92    0.61
   2  -8  -5   17.39    0.68
  -2   8   5   16.37    0.74
   2   8  -5   16.91    0.87
  -2   8   5   17.17    0.71
  -2   8   5   16.64    0.77
  -2   8   5   17.42    0.62
  -2   8   5   16.11    0.58
  -1  -8   5   20.03    0.92
  -1  -8   5   19.72    0.77
  -1  -8   5   19.73    0.87
   1  -8  -5   20.97    0.75
  -1  -8   5   20.78    0.88
  -1   8   5   22.40    0.76
  -1   8   5   21.40    0.80
   1   8  -5   20.65    0.92
  -1   8   5   20.58    0.82
   1   8  -5   20.04    0.76
  -1   8   5   20.35    0.84
  -1   8   5   20.58    0.89
  -1   8   5   20.38    0.71
   0  -8   5   48.02    1.51
   0  -8   5   50.06    1.63
   0  -8  -5   48.75    1.53
   0  -8   5   48.14    1.57
   0   8  -5   47.98    1.56
   0   8  -5   49.17    1.52
   0   8   5   49.93    1.57
   0   8   5   48.28    1.34
   0   8   5   49.75    1.38
   0   8   5   48.49    1.46
   1  -8   5   28.06    1.10
  -1  -8  -5   27.92    1.12
   1   8   5   29.27    0.93
   1   8   5   27.57    0.86
  -1   8  -5   27.36    1.01
   1   8   5   27.42    0.85
   1   8   5   28.63    1.12
  -1   8  -5   29.57    1.11
   2  -8   5   23.24    1.18
   2   8   5   24.73    0.83
  -2   8  -5   24.14    1.08
   2   8   5   22.82    1.06
   2   8   5   24.01    0.83
   2   8   5   23.34    0.78
  -3  -8  -5   18.02    1.10
   3  -8   5   19.95    1.01
   3  -8   5   18.87    1.19
   3   8   5   20.82    1.08
   3   8   5   20.79    0.84
  -3   8  -5   19.25    1.07
  -4  -8  -5    8.08    0.96
   4  -8   5    8.34    0.87
   4  -8   5    9.47    1.14
   4   8   5    8.66    0.96
  -4   8  -5    9.73    0.93
  -6  -9   5    7.98    0.89
   6  -9  -5    7.91    0.90
  -6   9   5    7.85    0.81
  -6   9   5    7.35    0.90
   6   9  -5    9.24    0.86
  -5  -9   5   61.09    2.28
   5  -9  -5   63.68    2.10
  -5   9   5   62.48    2.03
   5   9  -5   60.61    2.18
   5   9  -5   65.13    2.07
  -5   9   5   64.68    2.00
  -4  -9   5   26.40    1.23
   4  -9  -5   29.31    1.15
   4   9  -5   28.73    1.23
  -4   9   5   28.70    1.13
   4   9  -5   28.15    1.13
  -3  -9   5   16.76    0.90
   3  -9  -5   17.28    0.76
  -3  -9   5   17.05    0.51
   3  -9  -5   16.28    0.78
  -3  -9   5   17.30    0.53
   3   9  -5   16.33    0.77
  -3   9   5   17.14    0.79
  -3   9   5   16.75    0.81
  -3   9   5   17.77    0.80
   3   9  -5   17.13    0.82
  -2  -9   5   39.22    1.35
   2  -9  -5   37.58    1.17
  -2  -9   5   38.47    1.11
   2  -9  -5   35.80    1.35
  -2  -9   5   36.85    1.29
  -2   9   5   37.86    1.21
  -2   9   5   38.21    1.28
   2   9  -5   36.63    1.39
  -2   9   5   37.62    1.10
  -2   9   5   37.83    1.07
   2   9  -5   37.43    1.27
  -2   9   5   35.82    1.25
   1  -9  -5   24.75    0.87
  -1  -9   5   24.27    1.03
  -1  -9   5   24.97    0.99
   1  -9  -5   24.45    0.97
  -1  -9   5   25.11    0.88
  -1   9   5   24.90    0.80
  -1   9   5   25.25    0.94
  -1   9   5   25.38    0.97
   1   9  -5   24.77    1.03
   1   9  -5   24.00    0.88
  -1   9   5   26.09    0.92
  -1   9   5   25.14    0.85
   0  -9  -5    1.54    0.30
   0  -9   5    1.22    0.26
   0  -9  -5    0.65    0.27
   0  -9   5    1.49    0.37
   0   9   5    1.17    0.24
   0   9   5    1.30    0.21
   0   9   5    1.27    0.28
   0   9  -5    1.24    0.30
   0   9  -5    1.40    0.29
   0   9   5    1.50    0.19
   1  -9   5    0.83    0.43
  -1  -9  -5    0.84    0.32
   1  -9   5    0.67    0.37
   1   9   5    0.60    0.22
   1   9   5    0.43    0.30
  -1   9  -5    0.90    0.31
  -1   9  -5    0.50    0.27
   1   9   5    0.83    0.18
   1   9   5    0.69    0.17
   2  -9   5    0.64    0.43
   2  -9   5    0.39    0.25
   2   9   5    0.27    0.23
  -2   9  -5   -0.02    0.29
   2   9   5    0.03    0.21
   2   9   5   -0.47    0.27
  -2   9  -5    0.52    0.23
  -3  -9  -5    0.53    0.42
   3  -9   5    1.38    0.54
   3  -9   5    0.41    0.38
   3   9   5   -0.24    0.37
  -3   9  -5    0.55    0.39
  -4  -9  -5    3.34    0.88
   4  -9   5    3.80    0.80
   4  -9   5    1.91    0.62
  -4   9  -5    2.96    0.68
   4   9   5    2.18    0.55
  -6 -10   5    1.78    0.56
   6 -10  -5    0.74    0.49
  -6  10   5    1.61    0.47
   6  10  -5    0.84    0.49
   6  10  -5    0.76    0.55
  -6  10   5    1.52    0.46
   5 -10  -5    5.28    0.72
  -5 -10   5    5.95    0.69
   5  10  -5    4.88    0.66
  -5  10   5    4.42    0.61
  -5  10   5    4.90    0.66
   5  10  -5    5.07    0.67
  -4 -10   5    6.43    0.76
   4 -10  -5    8.20    0.62
   4  10  -5    7.62    0.64
  -4  10   5    7.94    0.66
   3 -10  -5    0.29    0.25
  -3 -10   5    0.27    0.36
  -3 -10   5    0.54    0.13
  -3 -10   5    0.56    0.11
   3  10  -5    0.63    0.32
  -3  10   5    0.28    0.26
  -3  10   5    1.03    0.31
  -3  10   5    0.27    0.29
  -2 -10   5   19.39    0.68
  -2 -10   5   19.59    0.92
  -2 -10   5   16.38    1.00
   2 -10  -5   18.58    0.72
   2  10  -5   18.53    0.67
  -2  10   5   19.68    0.67
   2  10  -5   20.35    0.96
  -2  10   5   18.85    0.84
   2  10  -5   20.78    1.21
  -2  10   5   18.25    0.75
  -2  10   5   19.72    0.84
  -1 -10   5   57.60    1.84
  -1 -10   5   58.21    1.87
   1 -10  -5   58.45    1.68
  -1 -10   5   60.34    1.70
   1 -10  -5   58.83    1.82
  -1  10   5   59.95    1.60
   1  10  -5   56.31    1.87
  -1  10   5   58.54    1.80
  -1  10   5   58.11    1.63
   1  10  -5   58.13    1.70
  -1  10   5   59.30    1.76
  -1  10   5   60.72    1.72
   0 -10  -5   43.97    1.40
   0 -10   5   42.61    1.46
   0 -10  -5   44.98    1.42
   0 -10   5   40.83    1.38
   0  10   5   43.35    1.18
   0  10  -5   43.29    1.40
   0  10   5   41.13    1.72
   0  10  -5   41.99    1.45
   0  10   5   43.40    1.34
  -1 -10  -5   17.63    0.77
   1 -10   5   16.82    0.97
  -1 -10  -5   17.08    0.87
   1  10   5   17.54    0.70
   1  10   5   18.67    0.90
  -1  10  -5   18.32    0.80
   1  10   5   17.97    0.56
   1  10   5   17.48    0.56
   2 -10   5   56.67    1.70
   2 -10   5   48.89    1.96
  -2 -10  -5   54.05    2.40
   2  10   5   56.63    1.85
   2  10   5   56.25    1.61
   2  10   5   55.53    1.51
  -2  10  -5   55.69    1.64
  -2  10  -5   56.18    1.86
   3 -10   5    4.64    0.59
  -3 -10  -5    4.48    0.64
   3 -10   5    4.91    0.78
   3  10   5    4.76    0.60
  -3  10  -5    5.00    0.69
   4 -10   5    5.15    0.87
   4  10   5    4.74    0.70
   6 -11  -5    8.53    0.93
  -6 -11   5   10.48    0.98
  -6  11   5    9.13    0.86
   6  11  -5    7.94    0.83
   6  11  -5    7.49    0.88
  -6  11   5    7.87    0.85
   5 -11  -5    5.02    0.72
  -5 -11   5    5.82    0.71
   5  11  -5    5.22    0.66
  -5  11   5    6.14    0.70
   5  11  -5    5.24    0.74
  -5  11   5    5.38    0.60
   4 -11  -5   19.37    0.90
  -4 -11   5   15.83    1.17
  -4  11   5   18.39    0.92
   4  11  -5   19.24    0.92
  -3 -11   5   66.43    2.13
  -3 -11   5   62.77    1.65
   3 -11  -5   65.29    1.92
  -3 -11   5   65.53    1.64
  -3  11   5   66.97    2.01
  -3  11   5   65.80    2.02
  -3  11   5   63.60    1.95
   3  11  -5   64.10    2.01
  -2 -11   5    2.70    0.28
  -2 -11   5    2.56    0.42
   2 -11  -5    2.42    0.33
  -2 -11   5    3.45    0.48
  -2  11   5    3.03    0.39
  -2  11   5    2.85    0.35
   2  11  -5    2.60    0.31
  -2  11   5    3.25    0.31
   1 -11  -5   12.47    0.59
  -1 -11   5   10.33    0.95
  -1 -11   5   12.10    0.60
   1  11  -5   11.82    0.59
  -1  11   5   11.73    0.49
   1  11  -5   12.65    0.75
  -1  11   5   12.34    0.60
  -1  11   5   11.48    0.63
  -1  11   5   11.93    0.47
  -1  11   5   11.38    0.66
   0 -11  -5    5.46    0.52
   0 -11   5    5.18    0.56
   0 -11  -5    5.49    0.50
   0 -11   5    5.98    0.62
   0 -11   5    4.77    0.63
   0  11  -5    5.89    0.56
   0  11  -5    5.35    0.49
   0  11   5    5.50    0.46
   0  11   5    6.10    0.57
   0  11   5    5.67    0.24
   0  11   5    5.59    0.27
  -1 -11  -5    0.54    0.28
   1 -11   5    0.48    0.38
   1  11   5    0.04    0.23
  -1  11  -5   -0.02    0.26
   1  11   5    0.32    0.27
  -1  11  -5    0.23    0.29
   2 -11   5   -0.16    0.44
  -2 -11  -5   -0.35    0.36
  -2  11  -5   -0.01    0.28
  -2  11  -5    0.06    0.34
   2  11   5    0.20    0.33
   2  11   5   -0.21    0.26
  -3 -11  -5   14.21    1.03
   3 -11   5   13.37    0.94
   3 -11   5   15.43    1.18
  -3  11  -5   13.81    0.96
   3  11   5   13.96    0.92
  -6 -12   5    1.31    0.60
   6 -12  -5   -0.10    0.51
   6  12  -5    0.71    0.46
  -6  12   5   -0.31    0.47
  -6  12   5    0.47    0.43
   6  12  -5    0.47    0.59
  -5 -12   5    3.71    0.66
   5 -12  -5    2.54    0.49
   5  12  -5    2.84    0.66
   5  12  -5    4.00    0.57
  -5  12   5    2.63    0.50
  -5  12   5    2.47    0.47
   4 -12  -5   18.76    0.91
  -4 -12   5   18.92    1.12
  -4  12   5   19.69    0.98
   4  12  -5   18.67    0.93
   3 -12  -5   22.46    0.91
  -3 -12   5   23.41    1.13
  -3 -12   5   23.49    0.64
  -3 -12   5   22.86    0.65
  -3  12   5   24.71    1.08
   3  12  -5   22.81    1.01
  -3  12   5   22.31    0.93
  -2 -12   5   14.70    0.80
   2 -12  -5   14.21    0.60
   2 -12  -5   15.56    0.55
  -2 -12   5   14.88    0.59
  -2 -12   5   12.38    1.21
  -2  12   5   15.36    0.76
  -2  12   5   15.17    0.64
   2  12  -5   15.02    0.87
  -2  12   5   15.58    0.57
  -2  12   5   13.26    0.74
   2  12  -5   14.61    0.59
  -1 -12   5    1.67    0.35
  -1 -12   5    2.18    0.43
   1 -12  -5    1.67    0.28
  -1 -12   5    1.89    0.31
  -1  12   5    2.17    0.27
   1  12  -5    1.74    0.37
   1  12  -5    1.52    0.28
  -1  12   5    2.11    0.32
  -1  12   5    1.84    0.31
  -1  12   5    1.45    0.35
  -1  12   5    1.61    0.22
   0 -12   5   37.52    1.39
   0 -12   5   39.28    1.43
   0 -12  -5   37.66    1.32
   0  12   5   39.43    1.38
   0  12   5   37.00    1.24
   0  12  -5   38.95    1.39
   0  12  -5   38.70    1.31
   1 -12   5    0.62    0.41
  -1 -12  -5    0.05    0.37
   1  12   5    0.70    0.30
  -1  12  -5    0.33    0.29
  -1  12  -5    1.11    0.31
   1  12   5    0.30    0.25
  -2 -12  -5   24.41    1.17
   2 -12   5   26.02    1.19
   2 -12   5   21.54    1.29
  -2  12  -5   26.63    0.99
   2  12   5   26.15    0.98
   2  12   5   26.24    1.16
  -2  12  -5   25.36    1.15
   3 -12   5    2.52    0.69
   3 -12   5    1.75    0.54
  -3 -12  -5    1.48    0.53
   3  12   5    2.02    0.53
  -3  12  -5    2.33    0.52
  -6 -13   5    3.56    0.77
   6 -13  -5    2.38    0.63
   6  13  -5    4.13    0.77
  -6  13   5    2.14    0.55
   6  13  -5    2.55    0.59
  -6  13   5    0.60    0.52
  -5 -13   5   27.68    1.47
   5 -13  -5   28.49    1.27
   5  13  -5   27.29    1.40
  -5  13   5   29.67    1.24
   5  13  -5   30.96    1.28
  -5  13   5   27.29    1.26
  -4 -13   5   -0.10    0.48
   4 -13  -5    0.89    0.36
  -4  13   5    0.98    0.38
   4  13  -5    0.50    0.33
  -3 -13   5   43.75    1.63
  -3 -13   5   39.77    1.08
  -3 -13   5   42.00    1.09
   3 -13  -5   42.79    1.36
  -3  13   5   40.41    1.36
  -3  13   5   42.87    1.50
   2 -13  -5    0.33    0.18
  -2 -13   5   -0.04    0.20
  -2 -13   5    0.16    0.30
   2 -13  -5    0.46    0.21
  -2 -13   5    0.49    0.34
  -2  13   5    0.40    0.27
  -2  13   5    0.35    0.22
  -2  13   5    0.45    0.27
   2  13  -5    0.97    0.40
  -2  13   5    0.43    0.19
   2  13  -5    0.22    0.20
  -1 -13   5   26.19    1.15
   1 -13  -5   27.97    0.98
  -1 -13   5   28.00    1.17
  -1 -13   5   27.09    0.98
   1  13  -5   25.66    1.34
  -1  13   5   28.20    0.81
  -1  13   5   27.21    1.22
   1  13  -5   28.64    0.99
  -1  13   5   28.45    0.99
  -1  13   5   27.13    1.09
   0 -13   5    0.50    0.35
   0 -13  -5    0.80    0.32
   0 -13   5    1.55    0.39
   0  13   5    0.84    0.32
   0  13  -5    0.12    0.32
   0  13   5    0.75    0.26
   0  13  -5    1.10    0.29
  -1 -13  -5    0.16    0.34
   1 -13   5    0.59    0.42
   1  13   5    1.10    0.27
  -1  13  -5    0.30    0.33
   1  13   5   -0.27    0.28
  -1  13  -5    0.31    0.32
   2 -13   5    2.24    0.50
   2 -13   5    2.38    0.57
  -2 -13  -5    1.50    0.47
   2  13   5    2.52    0.44
  -2  13  -5    2.56    0.47
  -2  13  -5    2.22    0.41
   2  13   5    3.07    0.40
   3 -13   5   14.81    0.97
  -3 -13  -5   12.97    1.03
   3 -13   5   14.01    1.22
   3  13   5   10.95    0.93
  -3  13  -5   13.20    0.97
   6 -14  -5    2.07    0.65
  -6 -14   5    0.84    0.71
   6  14  -5    0.53    0.63
   6  14  -5    1.49    0.49
  -6  14   5    1.67    0.52
  -6  14   5    1.75    0.56
  -5 -14   5    3.71    0.74
   5 -14  -5    3.95    0.63
  -5  14   5    2.42    0.50
  -5  14   5    2.26    0.50
   5  14  -5    3.72    0.57
   5  14  -5    3.03    0.67
   4 -14  -5    4.84    0.61
  -4 -14   5    3.53    0.66
   4  14  -5    4.52    0.56
   4  14  -5    5.56    0.92
  -4  14   5    4.96    0.58
  -3 -14   5    0.56    0.14
   3 -14  -5    0.82    0.28
  -3 -14   5    1.64    0.46
  -3 -14   5    0.64    0.13
  -3  14   5    0.84    0.33
  -3  14   5    0.64    0.31
  -2 -14   5   30.12    1.28
  -2 -14   5   28.45    1.20
  -2 -14   5   30.45    0.96
   2 -14  -5   29.52    0.95
   2 -14  -5   29.94    0.91
   2  14  -5   30.09    0.96
  -2  14   5   28.88    1.16
  -2  14   5   31.53    0.98
  -2  14   5   29.79    0.92
  -2  14   5   28.39    1.13
  -1 -14   5    0.95    0.26
  -1 -14   5    1.15    0.37
   1 -14  -5    0.62    0.25
  -1 -14   5    0.30    0.34
  -1  14   5    0.37    0.25
  -1  14   5    0.70    0.13
   1  14  -5    0.95    0.35
  -1  14   5    0.50    0.29
   1  14  -5    0.68    0.27
  -1  14   5    0.86    0.14
  -1  14   5    0.69    0.29
   0 -14   5  104.76    3.00
   0 -14  -5  101.31    2.87
   0  14   5  104.81    2.96
   0  14   5  100.28    2.82
   0  14  -5  101.05    2.87
   0  14  -5  101.73    2.97
   1 -14   5   10.78    0.85
  -1 -14  -5    9.05    0.80
  -1  14  -5    8.83    0.70
   1  14   5    8.87    0.61
  -1  14  -5    9.41    0.72
   1  14   5    9.40    0.74
   2 -14   5   60.13    1.97
   2 -14   5   53.62    2.12
  -2 -14  -5   54.08    1.99
   2  14   5   56.50    1.93
  -2  14  -5   59.25    1.97
   2  14   5   58.90    1.77
  -2  14  -5   55.96    1.79
   3 -14   5    1.64    0.69
   3 -14   5    2.67    0.60
  -3 -14  -5    2.22    0.61
  -3  14  -5    1.58    0.52
   3  14   5    2.38    0.50
  -5 -15   5   37.04    1.78
   5 -15  -5   38.91    1.55
   5  15  -5   36.27    1.74
  -5  15   5   35.77    1.54
  -5  15   5   39.76    1.48
   5  15  -5   37.31    1.47
   4 -15  -5    3.82    0.53
  -4 -15   5    3.87    0.67
  -4  15   5    2.54    0.43
  -4  15   5    4.12    0.55
   4  15  -5    2.56    0.60
   4  15  -5    3.00    0.49
  -3 -15   5   26.22    1.12
  -3 -15   5   24.37    1.27
   3 -15  -5   26.31    0.98
  -3 -15   5   25.10    0.71
  -3  15   5   26.42    1.13
  -3  15   5   23.85    0.97
   3  15  -5   24.52    1.78
  -3  15   5   26.48    1.13
   2 -15  -5    0.28    0.19
   2 -15  -5   -0.01    0.19
  -2 -15   5   -0.30    0.34
  -2 -15   5    0.32    0.40
  -2 -15   5    0.21    0.21
  -2  15   5   -0.22    0.26
  -2  15   5    0.32    0.30
  -2  15   5    0.36    0.22
  -2  15   5   -0.17    0.18
   2  15  -5   -0.03    0.21
  -1 -15   5   19.68    0.83
  -1 -15   5   20.48    1.02
   1 -15  -5   20.04    0.84
  -1 -15   5   19.28    1.00
   1  15  -5   21.41    1.30
  -1  15   5   21.02    0.86
  -1  15   5   21.98    0.92
  -1  15   5   21.71    0.97
   1  15  -5   19.89    0.84
   0 -15  -5   -0.04    0.34
   0 -15   5    0.07    0.33
   0  15   5    0.04    0.28
   0  15  -5    0.06    0.29
   1 -15   5   -0.05    0.40
  -1  15  -5    0.09    0.34
   1  15   5    0.67    0.28
  -1  15  -5    0.40    0.34
   1  15   5    0.84    0.36
   2 -15   5    0.08    0.46
   2 -15   5    0.46    0.56
  -2 -15  -5    0.26    0.46
  -2  15  -5   -0.13    0.39
   2  15   5   -0.16    0.34
  -2  15  -5   -0.25    0.36
   2  15   5   -0.06    0.33
   3 -15   5    9.58    1.02
  -3 -15  -5    9.94    1.07
   3 -15   5    8.83    1.22
   3  15   5    9.64    0.89
  -3  15  -5   10.84    0.98
  -5 -16   5    1.77    0.71
   5 -16  -5    1.55    0.52
  -5  16   5    0.66    0.44
  -5  16   5    1.27    0.51
   5  16  -5    1.32    0.62
   5  16  -5    1.60    0.48
   4 -16  -5    2.27    0.48
  -4 -16   5    0.97    0.57
  -4  16   5    1.39    0.45
  -4  16   5    1.29    0.42
   4  16  -5    1.60    0.60
   4  16  -5    1.67    0.43
  -3 -16   5   -0.27    0.35
   3 -16  -5    0.67    0.30
  -3 -16   5    1.04    0.53
  -3  16   5   -0.01    0.31
   3  16  -5    0.94    0.51
  -3  16   5    0.22    0.36
  -3  16   5   -0.35    0.28
   2 -16  -5   20.28    0.71
  -2 -16   5   20.17    1.09
  -2 -16   5   20.88    0.76
   2 -16  -5   21.68    0.72
  -2 -16   5   20.19    1.04
  -2  16   5   17.57    0.81
   2  16  -5   20.49    0.76
  -2  16   5   21.91    0.96
  -2  16   5   20.02    0.72
  -2  16   5   19.59    0.97
   1 -16  -5    2.71    0.37
  -1 -16   5    2.49    0.48
  -1 -16   5    2.41    0.37
  -1 -16   5    2.89    0.50
  -1  16   5    2.28    0.38
  -1  16   5    2.66    0.41
  -1  16   5    2.67    0.41
   1  16  -5    2.97    0.38
   0 -16   5   28.25    1.23
   0 -16  -5   28.27    1.16
   0  16  -5   28.85    1.13
   0  16   5   30.07    1.21
   0  16  -5   29.07    1.26
   0  16   5   28.04    1.09
   1 -16   5   -0.22    0.42
   1 -16   5   -0.07    0.43
  -1  16  -5   -0.17    0.33
   1  16   5   -0.05    0.35
  -1  16  -5   -0.38    0.37
   2 -16   5   33.19    1.64
  -2 -16  -5   35.59    1.51
   2 -16   5   32.54    1.46
  -2  16  -5   35.54    1.45
   2  16   5   35.48    1.45
  -2  16  -5   34.92    1.33
   2  16   5   34.89    1.30
  -3 -16  -5    5.02    0.80
   3 -16   5    5.31    0.97
   3 -16   5    5.72    0.85
   3  16   5    5.71    0.68
  -3  16  -5    7.17    0.95
  -5 -17   5   28.60    1.65
   5 -17  -5   31.59    1.41
  -5  17   5   29.51    1.41
   5  17  -5   29.45    1.33
  -5  17   5   29.71    1.35
   5  17  -5   28.05    1.60
  -4 -17   5    4.08    0.72
   4 -17  -5    5.29    0.68
  -4  17   5    5.31    0.70
   4  17  -5    5.88    0.75
  -4  17   5    6.03    0.72
   3 -17  -5   22.99    0.92
  -3 -17   5   22.78    1.11
  -3 -17   5   23.62    1.25
   3  17  -5   23.54    1.30
  -3  17   5   21.51    1.05
  -3  17   5   21.58    1.09
   2 -17  -5    0.61    0.22
   2 -17  -5    0.87    0.23
  -2 -17   5    1.22    0.44
  -2 -17   5    0.37    0.30
  -2 -17   5    0.91    0.39
  -2  17   5    1.28    0.38
   2  17  -5    0.78    0.26
  -2  17   5    0.70    0.33
   2  17  -5    1.19    0.48
  -1 -17   5   13.00    0.93
  -1 -17   5   13.48    0.87
   1 -17  -5   13.26    0.70
   1  17  -5   13.64    0.72
  -1  17   5   12.18    0.76
  -1  17   5   13.23    0.81
   0 -17   5    1.98    0.47
   0 -17  -5    0.62    0.36
   0  17  -5    0.90    0.44
   0  17   5    0.81    0.31
   0  17   5    0.39    0.33
   1 -17   5    1.20    0.44
   1 -17   5    1.56    0.51
  -1  17  -5    1.75    0.44
   1  17   5    1.62    0.39
   1  17   5    1.80    0.43
  -1  17  -5    1.04    0.44
   2 -17   5    0.54    0.62
   2 -17   5    0.72    0.45
  -2 -17  -5    1.69    0.51
  -2  17  -5   -0.31    0.43
   2  17   5    0.22    0.41
  -2  17  -5    0.90    0.42
   2  17   5    0.68    0.43
   5 -18  -5    0.42    0.54
  -5 -18   5    0.87    0.74
   5  18  -5    0.54    0.69
  -5  18   5   -0.26    0.45
   5  18  -5    0.48    0.44
  -5  18   5   -0.46    0.46
  -4 -18   5    1.16    0.59
   4 -18  -5    2.12    0.48
  -4  18   5    1.81    0.48
   4  18  -5    1.74    0.55
  -4  18   5    0.98    0.44
   3 -18  -5    1.29    0.35
  -3 -18   5    1.09    0.51
  -3 -18   5    0.62    0.45
  -3  18   5    1.22    0.42
  -3  18   5    1.36    0.43
   3  18  -5    1.30    0.52
   2 -18  -5   14.72    0.70
   2 -18  -5   14.82    0.63
  -2 -18   5   13.41    0.91
  -2 -18   5   15.69    1.05
   2  18  -5   15.63    0.70
  -2  18   5   14.08    0.84
  -2  18   5   16.45    0.91
   2  18  -5   14.95    1.06
  -1 -18   5    0.98    0.41
   1 -18  -5    0.68    0.34
  -1 -18   5    0.54    0.35
  -1 -18   5    1.36    0.44
  -1  18   5    1.08    0.33
  -1  18   5    0.44    0.36
   1  18  -5    0.64    0.44
   1  18  -5    0.21    0.30
   0 -18   5   24.43    1.24
   0 -18  -5   23.76    1.07
   0 -18   5   24.28    1.17
   0  18   5   23.46    1.02
   0  18  -5   23.75    1.05
   0  18   5   22.64    1.10
   1 -18   5   -0.56    0.39
  -1 -18  -5    0.68    0.48
   1 -18   5    0.77    0.49
  -1  18  -5    0.22    0.39
   1  18   5    1.25    0.36
   1  18   5    0.73    0.37
   2 -18   5   42.58    1.81
   2 -18   5   48.25    2.01
  -2 -18  -5   45.75    1.83
   2  18   5   45.59    1.75
   2  18   5   46.15    1.61
  -2  18  -5   46.58    1.70
  -4 -19   5    5.41    0.79
  -4 -19   5    6.04    0.84
   4 -19  -5    5.99    0.73
  -4  19   5    5.11    0.64
   4  19  -5    5.65    0.83
  -4  19   5    6.44    0.84
   3 -19  -5   23.79    0.94
  -3 -19   5   21.91    1.33
  -3 -19   5   22.79    1.17
  -3  19   5   21.89    1.06
   3  19  -5   23.73    1.33
  -3  19   5   23.49    1.15
  -2 -19   5    0.31    0.51
  -2 -19   5    1.07    0.46
   2  19  -5    1.12    0.30
  -2  19   5    0.33    0.35
   2  19  -5    1.05    0.50
  -2  19   5    0.34    0.36
  -1 -19   5    5.79    0.71
   1 -19  -5    5.50    0.62
  -1 -19   5    5.93    0.75
  -1  19   5    6.08    0.71
  -1  19   5    6.11    0.67
   1  19  -5    6.79    0.79
   1  19  -5    6.75    0.62
   0 -19   5    2.12    0.58
   0 -19   5    2.51    0.52
   0  19  -5    2.11    0.54
   0  19   5    2.84    0.48
   0  19   5    2.72    0.43
   0  19  -5    1.88    0.44
   1 -19   5    4.99    0.73
  -1 -19  -5    5.46    0.69
   1 -19   5    5.37    0.71
   1  19   5    5.67    0.70
   1  19   5    6.39    0.77
  -1  19  -5    5.98    0.74
   2 -19   5    1.35    0.57
  -2 -19  -5    0.19    0.58
   2 -19   5    0.63    0.66
   2  19   5    1.71    0.50
   2  19   5    1.39    0.47
  -2  19  -5    1.83    0.60
  -4 -20   5   10.19    1.20
  -4 -20   5    9.49    0.91
   4 -20  -5   10.24    1.05
  -4  20   5   10.06    0.87
  -4  20   5   12.85    1.00
   4  20  -5    8.99    1.06
  -3 -20   5    0.54    0.49
  -3 -20   5    0.63    0.55
  -3  20   5    0.25    0.38
  -3  20   5    1.12    0.46
   3  20  -5    0.85    0.56
  -2 -20   5    7.77    0.83
  -2 -20   5    7.51    0.91
  -2  20   5    8.89    0.72
  -2  20   5    7.60    0.78
   2  20  -5    6.62    0.78
   2  20  -5    7.08    0.60
   1 -20  -5    4.57    0.61
  -1 -20   5    4.22    0.68
  -1 -20   5    3.34    0.53
  -1  20   5    4.08    0.53
  -1  20   5    3.36    0.56
   1  20  -5    5.30    0.70
   1  20  -5    5.13    0.62
   0 -20   5   48.22    1.86
   0 -20   5   51.80    1.82
   0 -20  -5   48.94    1.74
   0  20  -5   50.20    1.72
   0  20   5   48.65    1.79
   0  20   5   48.73    1.66
   0  20  -5   47.06    1.87
  -1 -20  -5    6.75    0.77
   1 -20   5    9.18    0.96
   1 -20   5    8.66    0.92
   1  20   5    7.16    0.79
   1  20   5    6.55    0.81
  -1  20  -5    7.09    0.78
  -1  20  -5    6.50    0.82
  -2 -20  -5    6.84    0.86
   2  20   5    5.92    0.69
  -2  20  -5    8.25    1.10
  -2  20  -5    6.89    0.93
   2  20   5    6.21    0.84
  -4 -21   5   11.82    1.03
  -4 -21   5    8.31    1.06
  -4  21   5    8.78    0.96
  -3 -21   5   29.86    1.59
  -3 -21   5   29.78    1.40
   3  21  -5   28.35    1.56
  -3  21   5   29.55    1.30
  -3  21   5   28.58    1.36
  -2 -21   5   16.52    1.06
  -2 -21   5   18.51    1.16
  -2  21   5   16.91    0.99
  -2  21   5   16.36    1.04
   2  21  -5   16.53    1.16
   1 -21  -5   16.91    0.88
  -1 -21   5   14.99    1.15
  -1 -21   5   16.01    1.00
  -1  21   5   15.67    0.99
   1  21  -5   14.80    0.88
  -1  21   5   15.60    0.93
   1  21  -5   13.92    1.12
   0 -21   5    9.04    0.97
   0 -21   5   10.03    0.89
   0  21  -5   10.48    1.01
   0  21   5    8.81    0.83
   0  21  -5    8.86    0.81
   0  21   5    8.47    0.80
  -1 -21  -5    0.53    0.53
   1 -21   5    0.61    0.60
   1 -21   5    0.65    0.56
   1  21   5    0.62    0.45
  -1  21  -5   -0.33    0.44
  -1  21  -5    1.26    0.54
   1  21   5    0.75    0.45
  -3 -22   5    2.06    0.60
  -3 -22   5    3.35    0.77
  -3  22   5    2.43    0.53
   3  22  -5    1.45    0.68
  -3  22   5    2.29    0.55
  -2 -22   5   36.64    1.72
  -2 -22   5   34.85    1.50
   2  22  -5   38.40    1.69
  -2  22   5   35.99    1.47
  -2  22   5   35.35    1.53
  -1 -22   5    6.43    0.88
  -1 -22   5    4.78    0.63
   1 -22  -5    5.50    0.98
  -1  22   5    4.11    0.56
  -1  22   5    6.13    0.80
   1  22  -5    4.04    0.71
   1  22  -5    5.37    0.64
   0 -22   5   11.15    0.96
   0 -22   5   11.46    1.08
   0  22   5   13.60    1.02
   0  22  -5   12.51    0.90
   0  22  -5   12.27    1.09
   0  22   5   10.78    0.88
  -1 -22  -5    7.72    0.99
   1 -22   5    6.82    0.89
   1 -22   5    6.92    1.27
   1  22   5    7.65    0.84
   1  22   5    7.36    0.90
  -1  22  -5    7.91    1.01
  -1  22  -5    7.47    0.90
  -3 -23   5   13.55    1.07
  -3  23   5   14.89    1.11
  -2 -23   5    0.94    0.55
  -2 -23   5    0.68    0.68
  -2  23   5    0.62    0.45
   2  23  -5    1.35    0.63
  -2  23   5    0.87    0.46
  -1 -23   5    0.82    0.52
  -1 -23   5    0.29    0.61
  -1  23   5    0.34    0.43
   1  23  -5    0.14    0.40
  -1  23   5   -0.29    0.40
   1  23  -5    0.43    0.58
   0 -23   5    1.58    0.57
   0 -23   5    3.48    0.67
   0  23  -5    2.94    0.56
   0  23   5    3.26    0.61
   0  23   5    3.41    0.55
   0  23  -5    2.61    0.66
  -2 -24   5    9.61    0.97
   2  24  -5   10.01    1.32
  -2  24   5   12.76    1.37
  -1 -24   5    6.75    0.86
  -1  24   5    8.07    0.89
   1  24  -5    7.79    0.90
   0 -24  -5   18.19    1.16
   0  24  -5   15.33    1.28
  -6   0   6    1.24    0.50
   6   0  -6    1.07    0.50
  -5   0   6   -0.21    0.38
  -5   0   6    0.54    0.25
   5   0  -6    0.26    0.36
  -5   0   6    0.16    0.26
  -4   0   6    3.09    0.43
  -4   0   6    3.81    0.41
  -4   0   6    3.88    0.48
  -4   0   6    3.00    0.40
   4   0  -6    3.92    0.55
  -3   0   6    0.16    0.29
  -3   0   6    0.04    0.31
  -3   0   6    0.30    0.23
  -3   0   6   -0.04    0.22
   3   0  -6    0.22    0.27
  -3   0   6    0.06    0.24
  -2   0   6   32.08    1.23
  -2   0   6   32.50    1.26
  -2   0   6   34.08    1.12
  -2   0   6   32.48    1.11
  -2   0   6   32.34    1.12
  -1   0   6   -0.12    0.23
  -1   0   6   -0.11    0.26
  -1   0   6    0.49    0.30
  -1   0   6   -0.07    0.28
  -1   0   6   -0.08    0.23
   0   0   6    5.00    0.53
   0   0   6    4.35    0.51
   0   0   6    5.30    0.55
   0   0   6    5.03    0.50
   1   0   6   -0.29    0.29
   1   0   6   -0.06    0.30
   1   0   6   -0.13    0.22
   2   0   6   56.97    2.01
  -2   0  -6   57.86    1.95
  -3   0  -6    0.20    0.47
   3   0   6    0.23    0.41
  -6  -1   6    0.55    0.52
   6  -1  -6    0.57    0.46
  -6   1   6    0.51    0.50
   6   1  -6   -0.32    0.44
  -5  -1   6   45.88    1.43
   5  -1  -6   45.12    1.66
  -5  -1   6   44.78    1.70
  -5   1   6   46.08    1.36
   5   1  -6   45.20    1.66
  -5   1   6   46.28    1.71
   4  -1  -6    1.25    0.35
  -4  -1   6    1.16    0.25
  -4  -1   6    1.37    0.36
  -4  -1   6    1.92    0.31
  -4  -1   6    1.57    0.28
   4   1  -6    1.94    0.43
  -4   1   6    1.55    0.27
  -4   1   6    1.60    0.28
  -4   1   6    1.15    0.29
  -4   1   6    1.80    0.33
  -3  -1   6   42.35    1.32
  -3  -1   6   43.27    1.31
   3  -1  -6   41.80    1.41
  -3  -1   6   39.62    1.40
  -3  -1   6   42.27    1.27
  -3  -1   6   39.99    1.49
  -3   1   6   42.88    1.29
   3   1  -6   39.98    1.53
  -3   1   6   38.85    1.35
  -3   1   6   42.01    1.30
  -3   1   6   42.23    1.33
  -3   1   6   41.31    1.50
  -2  -1   6    0.34    0.21
  -2  -1   6   -0.13    0.25
  -2  -1   6    0.30    0.24
  -2  -1   6   -0.41    0.27
  -2   1   6   -0.19    0.23
  -2   1   6   -0.47    0.27
  -2   1   6   -0.18    0.20
  -2   1   6   -0.59    0.24
  -2   1   6    0.18    0.34
  -2   1   6   -0.05    0.25
  -1  -1   6   10.57    0.69
  -1  -1   6   10.06    0.64
  -1  -1   6   10.93    0.62
  -1  -1   6   10.48    0.61
  -1   1   6   11.04    0.59
  -1   1   6    9.51    0.61
  -1   1   6   11.45    0.65
  -1   1   6   11.44    0.69
  -1   1   6   10.62    0.62
   0  -1   6    6.24    0.58
   0  -1   6    6.29    0.50
   0  -1   6    6.27    0.68
   0   1   6    5.83    0.70
   0   1   6    5.96    0.49
   0   1   6    6.19    0.54
   0   1   6    4.88    0.49
   1  -1   6    2.65    0.31
   1  -1   6    2.50    0.43
   1  -1   6    2.26    0.43
   1   1   6    3.32    0.49
   1   1   6    2.59    0.41
   1   1   6    2.58    0.38
   1   1   6    2.30    0.30
  -2  -1  -6    1.00    0.42
   2  -1   6    1.03    0.39
   2   1   6    0.01    0.36
   2   1   6    0.96    0.37
  -2   1  -6    1.26    0.41
  -3  -1  -6   10.11    0.95
   3  -1   6    7.80    0.83
   3   1   6    9.41    0.96
  -3   1  -6   10.21    0.94
   3   1   6   12.00    0.88
  -3   1  -6    9.24    0.90
   6  -2  -6    7.66    0.83
  -6  -2   6    6.96    0.88
  -6   2   6    8.64    0.89
   6   2  -6    8.58    0.90
  -5  -2   6    0.87    0.46
  -5  -2   6    1.92    0.37
   5  -2  -6    1.39    0.43
  -5   2   6    1.84    0.32
   5   2  -6    1.79    0.46
  -5   2   6    1.35    0.45
  -4  -2   6    0.92    0.21
  -4  -2   6    0.26    0.22
  -4  -2   6    0.61    0.33
   4  -2  -6    1.09    0.36
  -4  -2   6    0.60    0.27
   4   2  -6    0.75    0.35
  -4   2   6    1.15    0.28
  -4   2   6    0.76    0.31
  -4   2   6    0.41    0.28
  -4   2   6    1.27    0.26
   3  -2  -6    2.49    0.38
  -3  -2   6    1.12    0.29
  -3  -2   6    1.30    0.26
  -3  -2   6    1.29    0.37
  -3  -2   6    1.62    0.25
  -3  -2   6    2.02    0.43
  -3   2   6    1.30    0.36
  -3   2   6    1.68    0.27
   3   2  -6    2.77    0.50
  -3   2   6    1.98    0.32
  -3   2   6    1.40    0.32
  -3   2   6    1.37    0.32
  -2  -2   6    4.90    0.44
  -2  -2   6    5.31    0.64
  -2  -2   6    4.78    0.47
  -2  -2   6    4.85    0.52
   2  -2  -6    6.09    0.53
  -2   2   6    5.29    0.48
  -2   2   6    5.95    0.47
  -2   2   6    5.55    0.51
  -2   2   6    4.87    0.59
  -2   2   6    5.87    0.58
  -2   2   6    4.79    0.46
  -1  -2   6   13.78    0.77
  -1  -2   6   13.13    0.67
  -1  -2   6   12.50    0.67
  -1  -2   6   12.63    0.69
  -1  -2   6   12.63    0.71
  -1   2   6   13.29    0.69
  -1   2   6   12.01    0.63
  -1   2   6   12.78    0.68
  -1   2   6   13.03    0.70
  -1   2   6   13.01    0.72
   0  -2   6   97.08    2.65
   0  -2   6   92.51    2.72
   0  -2   6   93.33    2.72
   0  -2   6   98.21    2.78
   0   2   6   98.66    2.76
   0   2   6   90.55    2.62
   0   2   6   98.57    2.63
   0   2   6   95.63    2.65
   1  -2   6    4.52    0.52
   1  -2   6    3.60    0.53
   1  -2   6    4.95    0.43
   1   2   6    5.09    0.51
   1   2   6    5.05    0.41
   1   2   6    4.46    0.51
   1   2   6    4.61    0.61
   2  -2   6   34.52    1.36
  -2  -2  -6   33.79    1.39
   2   2   6   33.77    1.27
  -2   2  -6   33.78    1.39
  -2   2  -6   32.47    1.38
   2   2   6   34.92    1.44
   3  -2   6    1.45    0.50
  -3  -2  -6    0.71    0.50
   3   2   6    1.16    0.48
  -3   2  -6    2.01    0.57
   3   2   6    1.62    0.53
  -3   2  -6    2.24    0.54
  -6  -3   6    0.43    0.46
   6  -3  -6   -0.10    0.46
   6   3  -6   -0.81    0.39
  -6   3   6    0.03    0.46
   5  -3  -6   22.14    1.10
  -5  -3   6   23.61    0.97
  -5  -3   6   21.00    1.15
   5   3  -6   20.84    1.08
  -5   3   6   23.86    0.91
  -5   3   6   21.35    1.14
   4  -3  -6   12.83    0.77
  -4  -3   6   12.85    0.78
  -4  -3   6   12.62    0.51
  -4  -3   6   11.97    0.54
  -4   3   6   13.39    0.66
  -4   3   6   12.83    0.54
  -4   3   6   12.19    0.70
   4   3  -6   12.24    0.78
  -4   3   6   12.80    0.52
  -3  -3   6   49.46    1.44
  -3  -3   6   47.30    1.67
   3  -3  -6   48.13    1.55
  -3  -3   6   46.58    1.59
  -3  -3   6   47.69    1.40
  -3   3   6   48.85    1.49
  -3   3   6   50.03    1.42
  -3   3   6   50.73    1.54
  -3   3   6   48.15    1.65
  -3   3   6   43.30    1.45
   3   3  -6   50.38    1.61
  -2  -3   6    2.95    0.40
  -2  -3   6    3.10    0.40
  -2  -3   6    2.75    0.33
   2  -3  -6    3.13    0.40
  -2  -3   6    3.54    0.49
  -2   3   6    2.46    0.35
  -2   3   6    2.81    0.37
  -2   3   6    2.20    0.35
  -2   3   6    3.74    0.39
  -2   3   6    3.26    0.48
  -1  -3   6   44.22    1.44
  -1  -3   6   42.95    1.40
  -1  -3   6   44.13    1.43
  -1  -3   6   43.60    1.50
  -1  -3   6   41.81    1.39
  -1   3   6   43.27    1.43
  -1   3   6   43.41    1.36
  -1   3   6   42.77    1.42
  -1   3   6   45.28    1.44
  -1   3   6   41.81    1.38
   0  -3  -6    6.67    0.58
   0  -3   6    7.19    0.54
   0  -3   6    6.69    0.58
   0  -3   6    7.88    0.64
   0  -3   6    7.20    0.59
   0   3   6    6.78    0.53
   0   3   6    7.19    0.51
   0   3   6    7.47    0.53
   0   3   6    6.40    0.60
   1  -3   6    8.92    0.67
   1  -3   6    8.47    0.52
   1  -3   6    6.48    0.98
   1   3   6    8.51    0.60
   1   3   6    8.37    0.49
  -1   3  -6    8.52    0.70
   1   3   6    8.22    0.55
   1   3   6    8.52    0.71
  -2  -3  -6    0.84    0.41
   2  -3   6    1.44    0.44
   2   3   6    0.84    0.41
  -2   3  -6    0.49    0.36
   2   3   6    1.07    0.34
   3  -3   6    4.13    0.62
  -3  -3  -6    4.31    0.62
  -3   3  -6    3.35    0.60
  -3   3  -6    3.54    0.57
   3   3   6    4.31    0.69
   3   3   6    4.86    0.68
   6  -4  -6    4.96    0.68
  -6  -4   6    3.85    0.63
  -6   4   6    4.77    0.68
   6   4  -6    6.04    0.84
   5  -4  -6    0.07    0.38
  -5  -4   6    0.19    0.37
  -5  -4   6   -0.57    0.36
  -5   4   6    0.48    0.33
   5   4  -6   -0.23    0.31
  -5   4   6   -0.06    0.38
  -4  -4   6    8.22    0.72
  -4  -4   6    9.17    0.42
   4  -4  -6    9.55    0.69
  -4  -4   6    9.10    0.43
  -4   4   6    9.43    0.45
  -4   4   6    9.28    0.65
   4   4  -6    9.15    0.69
  -4   4   6    9.47    0.62
  -4   4   6    8.61    0.42
  -3  -4   6    7.23    0.43
  -3  -4   6    7.54    0.47
  -3  -4   6    5.94    0.68
  -3  -4   6    7.55    0.63
   3  -4  -6    7.27    0.55
   3   4  -6    8.44    0.65
  -3   4   6    6.32    0.57
  -3   4   6    7.28    0.55
  -3   4   6    6.81    0.49
  -3   4   6    7.41    0.46
  -3   4   6    6.48    0.64
  -2  -4   6   35.28    1.23
  -2  -4   6   33.50    1.10
   2  -4  -6   32.98    1.17
  -2  -4   6   32.82    1.09
  -2  -4   6   33.33    1.25
  -2   4   6   32.19    1.22
  -2   4   6   33.04    1.10
  -2   4   6   34.28    1.17
  -2   4   6   34.96    1.14
  -1  -4   6   22.29    0.94
  -1  -4   6   22.47    1.00
  -1  -4   6   22.14    0.89
  -1  -4   6   19.80    0.88
  -1  -4   6   21.84    0.91
  -1   4   6   21.64    0.90
  -1   4   6   21.02    0.88
  -1   4   6   22.46    0.90
  -1   4   6   22.26    0.90
  -1   4   6   21.46    0.83
   0  -4  -6   49.95    1.61
   0  -4   6   50.53    1.67
   0  -4   6   49.26    1.62
   0  -4   6   51.15    1.56
   0   4   6   49.82    1.53
   0   4   6   48.24    1.51
   0   4   6   49.94    1.51
   0   4   6   49.45    1.65
   1  -4   6    4.75    0.60
   1  -4   6    3.97    0.53
   1  -4   6    4.48    0.45
   1   4   6    4.07    0.47
   1   4   6    3.62    0.40
   1   4   6    4.87    0.62
  -1   4  -6    3.51    0.48
   1   4   6    3.99    0.45
   2  -4   6   30.80    1.31
   2  -4   6   29.08    1.31
  -2  -4  -6   30.20    1.32
   2   4   6   30.55    1.13
   2   4   6   30.09    1.33
  -2   4  -6   30.16    1.30
  -3  -4  -6    0.26    0.49
   3  -4   6    1.30    0.51
  -3   4  -6   -0.25    0.45
   3   4   6   -0.32    0.40
   3   4   6    0.35    0.51
  -6  -5   6    3.60    0.63
   6  -5  -6    5.83    0.85
   6   5  -6    3.94    0.61
  -6   5   6    3.61    0.59
  -5  -5   6   16.11    1.04
  -5  -5   6   17.11    0.95
   5  -5  -6   17.46    0.96
  -5   5   6   15.78    0.82
  -5   5   6   16.28    1.00
   5   5  -6   18.49    1.00
   4  -5  -6    4.05    0.51
  -4  -5   6    2.58    0.27
  -4  -5   6    2.72    0.48
   4   5  -6    3.12    0.45
  -4   5   6    2.98    0.21
  -4   5   6    2.95    0.42
  -3  -5   6   24.90    0.82
  -3  -5   6   25.24    1.08
   3  -5  -6   26.20    1.00
  -3  -5   6   26.31    0.87
  -3   5   6   23.75    1.07
  -3   5   6   21.31    0.85
   3   5  -6   24.38    1.05
  -3   5   6   25.98    0.99
  -3   5   6   25.23    0.98
  -2  -5   6   19.69    0.77
   2  -5  -6   20.52    0.85
  -2  -5   6   19.54    0.91
  -2  -5   6   19.12    1.02
  -2  -5   6   20.12    0.79
  -2   5   6   20.67    0.93
  -2   5   6   19.92    0.89
  -2   5   6   19.31    0.80
  -2   5   6   19.60    0.76
  -2   5   6   20.55    0.87
  -1  -5   6   20.75    1.01
  -1  -5   6   19.47    0.84
  -1  -5   6   20.04    0.89
  -1  -5   6   19.35    0.83
  -1   5   6   18.87    0.79
  -1   5   6   19.97    0.87
  -1   5   6   20.52    0.84
  -1   5   6   19.71    0.83
  -1   5   6   19.43    0.87
   0  -5   6    3.07    0.40
   0  -5   6    2.96    0.43
   0  -5  -6    3.80    0.49
   0   5   6    3.86    0.40
   0   5   6    3.66    0.42
   0   5   6    3.39    0.43
   0   5   6    3.56    0.45
   0   5  -6    3.92    0.49
   1  -5   6    5.96    0.67
   1  -5   6    7.25    0.68
   1  -5   6    6.46    0.50
   1   5   6    5.36    0.49
  -1   5  -6    7.61    0.66
   1   5   6    7.58    0.46
   1   5   6    7.27    0.67
   1   5   6    6.93    0.49
   2  -5   6   -0.47    0.39
  -2  -5  -6    0.78    0.45
   2  -5   6    0.40    0.36
  -2   5  -6    0.11    0.37
   2   5   6    0.96    0.44
   2   5   6    0.14    0.30
   3  -5   6    0.39    0.51
  -3  -5  -6    2.34    0.62
   3  -5   6    1.06    0.58
   3   5   6    2.07    0.52
  -3   5  -6    2.01    0.52
  -6  -6   6    1.12    0.53
   6  -6  -6    1.43    0.54
   6   6  -6   -0.16    0.47
  -6   6   6    0.68    0.48
   5  -6  -6    3.58    0.53
  -5  -6   6    4.13    0.59
  -5  -6   6    4.20    0.61
  -5   6   6    3.56    0.46
  -5   6   6    2.84    0.49
   5   6  -6    4.92    0.70
  -4  -6   6    1.23    0.15
  -4  -6   6    1.22    0.44
   4  -6  -6    1.48    0.36
   4  -6  -6    1.62    0.39
  -4   6   6    1.13    0.34
   4   6  -6    1.08    0.39
  -3  -6   6    2.10    0.27
  -3  -6   6    2.54    0.45
   3  -6  -6    2.93    0.40
  -3  -6   6    1.55    0.25
  -3   6   6    1.97    0.33
  -3   6   6    2.34    0.28
   3   6  -6    1.96    0.37
  -3   6   6    2.44    0.39
  -3   6   6    1.94    0.29
  -3   6   6    2.72    0.43
  -2  -6   6   21.81    0.83
  -2  -6   6   22.03    0.83
  -2  -6   6   22.76    0.98
  -2  -6   6   22.55    0.99
   2  -6  -6   23.02    0.89
  -2   6   6   22.62    0.97
  -2   6   6   22.44    0.94
  -2   6   6   20.99    0.84
  -2   6   6   22.43    0.92
  -2   6   6   22.21    0.81
   2   6  -6   22.31    1.06
  -1  -6   6    8.87    0.60
  -1  -6   6   10.41    0.75
  -1  -6   6    8.67    0.58
  -1   6   6    9.58    0.57
  -1   6   6    7.37    0.92
  -1   6   6    9.63    0.63
  -1   6   6   10.18    0.59
   1   6  -6   10.21    0.71
   0  -6   6   29.90    1.20
   0  -6   6   28.41    1.13
   0  -6  -6   28.21    1.10
   0   6  -6   27.30    1.08
   0   6   6   27.00    0.98
   0   6   6   28.57    1.03
   0   6   6   28.67    0.96
   0   6   6   30.86    1.18
   1  -6   6    7.40    0.72
   1  -6   6    7.95    0.70
   1  -6   6    8.21    0.55
   1   6   6    7.80    0.50
   1   6   6    7.54    0.49
  -1   6  -6    7.87    0.70
   1   6   6    8.64    0.51
   1   6   6    8.96    0.73
   2  -6   6   32.14    1.35
  -2  -6  -6   31.70    1.37
   2  -6   6   31.17    1.41
   2   6   6   33.00    1.40
  -2   6  -6   34.18    1.39
   2   6   6   32.62    1.14
  -3  -6  -6    5.46    0.70
   3  -6   6    7.03    0.79
   3  -6   6    6.59    0.83
   3   6   6    7.08    0.92
  -3   6  -6    6.54    0.82
  -6  -7   6    3.68    0.68
   6  -7  -6    6.32    0.76
  -6  -7   6    4.99    0.80
   6   7  -6    5.35    0.66
  -6   7   6    4.60    0.66
  -5  -7   6   18.99    1.05
   5  -7  -6   18.04    1.00
  -5  -7   6   16.99    1.07
   5   7  -6   18.00    1.01
  -5   7   6   17.53    0.90
  -5   7   6   17.56    1.03
  -4  -7   6   33.96    1.45
   4  -7  -6   36.56    1.37
   4   7  -6   36.25    1.38
  -4   7   6   37.47    1.34
  -3  -7   6   18.39    0.67
  -3  -7   6   17.55    0.65
  -3  -7   6   18.17    0.99
   3  -7  -6   19.00    0.84
   3   7  -6   18.55    0.91
  -3   7   6   18.44    0.63
  -3   7   6   16.56    0.90
  -3   7   6   18.01    0.86
  -3   7   6   15.91    0.65
  -2  -7   6   15.81    0.67
  -2  -7   6   16.52    0.85
   2  -7  -6   14.94    0.72
  -2  -7   6   14.75    0.67
  -2  -7   6   15.82    0.84
  -2   7   6   15.71    0.76
  -2   7   6   15.50    0.79
   2   7  -6   14.92    0.90
  -2   7   6   15.43    0.68
  -2   7   6   14.83    0.78
  -2   7   6   15.12    0.65
  -1  -7   6    2.08    0.37
  -1  -7   6    2.17    0.34
   1  -7  -6    2.05    0.33
  -1  -7   6    2.09    0.42
  -1   7   6    2.95    0.42
  -1   7   6    1.84    0.35
  -1   7   6    2.42    0.36
  -1   7   6    1.87    0.36
   1   7  -6    2.53    0.43
   0  -7   6    2.79    0.47
   0  -7   6    2.23    0.43
   0  -7  -6    2.16    0.38
   0   7   6    2.23    0.32
   0   7   6    2.53    0.40
   0   7   6    2.61    0.34
   0   7   6    2.18    0.28
   0   7  -6    2.73    0.38
   0   7  -6    2.43    0.40
   1  -7   6    0.32    0.39
   1  -7   6    0.21    0.29
   1  -7   6   -0.01    0.34
   1   7   6    0.75    0.36
   1   7   6    0.60    0.25
   1   7   6    0.42    0.23
  -1   7  -6    0.60    0.32
   2  -7   6   -0.55    0.47
  -2  -7  -6    0.21    0.40
   2  -7   6   -0.68    0.39
   2   7   6   -0.02    0.37
  -2   7  -6   -0.04    0.35
   2   7   6    0.06    0.30
   3  -7   6    1.73    0.62
   3  -7   6    2.27    0.60
  -3  -7  -6    2.58    0.60
   3   7   6    2.52    0.63
  -3   7  -6    1.27    0.53
  -6  -8   6   -0.49    0.54
   6  -8  -6   -0.85    0.45
  -6  -8   6    0.91    0.52
  -6   8   6   -0.37    0.46
  -5  -8   6    4.60    0.64
   5  -8  -6    4.66    0.62
   5   8  -6    4.04    0.57
  -5   8   6    3.01    0.50
  -5   8   6    4.99    0.65
  -4  -8   6    0.08    0.46
   4  -8  -6    0.48    0.42
   4   8  -6    0.55    0.33
  -4   8   6    0.02    0.46
  -4   8   6    0.26    0.33
   3  -8  -6    0.15    0.29
  -3  -8   6   -0.15    0.36
  -3  -8   6    0.08    0.20
   3   8  -6    0.18    0.31
  -3   8   6    0.08    0.39
  -3   8   6    0.60    0.20
  -3   8   6    0.19    0.18
  -3   8   6    0.24    0.30
  -3   8   6    0.23    0.29
  -2  -8   6   17.83    0.74
  -2  -8   6   17.08    0.72
   2  -8  -6   17.39    0.77
  -2  -8   6   17.91    0.92
  -2   8   6   18.48    0.83
  -2   8   6   18.32    0.70
  -2   8   6   17.38    0.94
  -2   8   6   18.61    0.75
   2   8  -6   20.76    1.13
  -2   8   6   18.55    0.88
  -1  -8   6   10.03    0.72
   1  -8  -6   10.27    0.58
  -1  -8   6    9.58    0.62
  -1  -8   6   10.72    0.78
   1   8  -6    9.58    0.73
   1   8  -6   10.46    0.61
  -1   8   6    9.12    0.64
  -1   8   6    9.78    0.56
  -1   8   6    9.85    0.59
  -1   8   6   11.40    0.69
   0  -8  -6   10.52    0.68
   0  -8   6    9.90    0.74
   0  -8   6   10.85    0.77
   0   8  -6   10.05    0.69
   0   8   6   10.03    0.54
   0   8   6   10.97    0.51
   0   8  -6   10.51    0.71
   0   8   6    9.96    0.70
   0   8   6    9.11    0.59
   1  -8   6   23.47    1.09
   1  -8   6   21.34    1.14
   1   8   6   24.44    1.11
  -1   8  -6   22.49    1.05
   1   8   6   22.71    0.81
   1   8   6   23.26    0.85
   2  -8   6   16.57    1.12
  -2  -8  -6   16.40    1.04
   2  -8   6   16.13    0.99
  -2   8  -6   16.27    1.01
   2   8   6   18.13    1.04
  -3  -8  -6   14.63    1.14
   3  -8   6   15.29    1.24
  -3   8  -6   14.03    1.11
   3   8   6   17.28    1.41
  -6  -9   6   10.89    1.08
   6  -9  -6   12.26    1.03
  -6  -9   6   15.03    1.35
  -6   9   6   10.79    1.03
  -5  -9   6   30.55    1.40
   5  -9  -6   30.45    1.30
  -5   9   6   25.62    1.24
   5   9  -6   28.36    1.47
  -5   9   6   30.27    1.32
   5   9  -6   28.43    1.29
  -4  -9   6   33.31    1.50
  -4   9   6   36.29    1.52
   4   9  -6   34.78    1.59
   4   9  -6   36.15    1.39
  -4   9   6   34.54    1.38
  -3  -9   6   10.60    0.50
  -3  -9   6   10.69    0.84
   3  -9  -6   10.59    0.65
  -3  -9   6   10.12    0.49
  -3   9   6   11.13    0.42
  -3   9   6   11.74    0.77
  -3   9   6    9.80    0.73
   3   9  -6   11.36    0.94
   2  -9  -6   21.69    0.86
  -2  -9   6   22.32    0.85
  -2  -9   6   23.37    1.08
  -2  -9   6   22.70    0.85
  -2  -9   6   23.41    1.05
  -2   9   6   22.28    0.97
  -2   9   6   22.42    0.92
  -2   9   6   22.70    0.80
  -2   9   6   22.83    0.84
  -2   9   6   23.59    0.98
  -1  -9   6    6.07    0.65
  -1  -9   6    7.19    0.71
  -1  -9   6    7.70    0.56
   1  -9  -6    7.02    0.51
  -1   9   6    6.14    0.50
  -1   9   6    7.19    0.47
   1   9  -6    6.38    0.51
  -1   9   6    7.67    0.62
   0  -9   6    0.66    0.38
   0  -9  -6    1.16    0.35
   0  -9   6    1.51    0.43
   0   9   6    0.52    0.33
   0   9   6    0.84    0.20
   0   9   6    0.90    0.27
   0   9  -6    0.99    0.34
   0   9   6    0.68    0.27
   1  -9   6    1.32    0.42
   1  -9   6    1.04    0.44
   1   9   6    1.20    0.29
  -1   9  -6    1.31    0.37
   1   9   6    1.52    0.42
   1   9   6    1.33    0.24
  -1   9  -6    1.55    0.38
  -2  -9  -6    3.92    0.58
   2  -9   6    3.11    0.66
   2  -9   6    3.02    0.57
  -2   9  -6    3.03    0.51
   2   9   6    2.31    0.50
  -3  -9  -6    1.51    0.57
   3  -9   6    1.00    0.65
  -3   9  -6    0.92    0.61
   6 -10  -6    4.07    0.68
  -6 -10   6    4.82    0.78
  -6  10   6    4.60    0.74
  -5 -10   6    4.04    0.69
   5 -10  -6    5.01    0.64
  -5  10   6    3.27    0.56
   5  10  -6    4.95    0.77
   5  10  -6    3.57    0.61
  -5  10   6    3.84    0.58
  -4 -10   6    6.46    0.88
  -4  10   6    6.98    0.72
   4  10  -6    7.63    0.87
  -4  10   6    6.28    0.72
   4  10  -6    6.22    0.70
   3 -10  -6    6.10    0.54
  -3 -10   6    6.35    0.72
  -3 -10   6    5.72    0.39
  -3  10   6    5.48    0.29
  -3  10   6    6.59    0.64
  -3  10   6    6.07    0.60
   3  10  -6    6.03    0.71
  -2 -10   6    0.36    0.37
  -2 -10   6    0.29    0.34
  -2 -10   6    0.40    0.24
  -2 -10   6   -0.34    0.25
   2 -10  -6   -0.04    0.24
  -2  10   6   -0.49    0.24
  -2  10   6    0.03    0.21
  -2  10   6    0.91    0.29
  -2  10   6    0.03    0.30
  -2  10   6   -0.03    0.27
   1 -10  -6   11.12    0.62
  -1 -10   6   10.39    0.80
  -1 -10   6   10.76    0.75
  -1 -10   6   10.09    0.66
  -1  10   6   10.25    0.68
  -1  10   6   10.39    0.56
  -1  10   6   10.52    0.53
   1  10  -6    9.53    0.78
  -1  10   6   10.92    0.72
   1  10  -6   10.88    0.64
   0 -10   6   13.18    0.86
   0 -10   6   11.24    0.82
   0 -10  -6   15.12    0.77
   0  10   6   13.74    0.81
   0  10   6   13.35    0.50
   0  10  -6   13.50    0.83
   0  10   6   12.66    0.69
   1 -10   6   24.95    1.19
  -1 -10  -6   26.05    1.20
   1 -10   6   27.82    1.28
   1  10   6   25.65    0.95
  -1  10  -6   27.11    1.15
  -1  10  -6   25.32    1.08
   1  10   6   25.62    1.18
   2 -10   6    3.36    0.61
   2 -10   6    2.48    0.64
  -2 -10  -6    4.83    0.64
  -2  10  -6    2.80    0.50
   5 -11  -6    2.04    0.51
  -5 -11   6    1.45    0.61
   5  11  -6    1.54    0.50
  -5  11   6    1.74    0.48
  -5  11   6    2.01    0.52
   5  11  -6    1.55    0.59
  -4 -11   6    6.73    0.81
   4  11  -6    7.35    0.74
   4  11  -6    7.44    0.86
  -4  11   6    9.77    0.79
  -4  11   6    8.19    0.75
  -3 -11   6   31.73    0.96
  -3 -11   6   34.14    1.40
   3 -11  -6   31.41    1.13
  -3  11   6   30.85    1.27
  -3  11   6   32.60    1.27
   3  11  -6   31.18    1.43
  -2 -11   6    5.87    0.50
  -2 -11   6    6.45    0.69
   2 -11  -6    5.26    0.47
  -2 -11   6    5.40    0.68
  -2  11   6    5.86    0.47
  -2  11   6    6.00    0.61
  -2  11   6    6.63    0.53
  -2  11   6    6.50    0.41
  -2  11   6    5.20    0.59
  -1 -11   6    1.34    0.43
   1 -11  -6    1.15    0.31
  -1 -11   6    1.05    0.37
  -1 -11   6    1.20    0.40
   1  11  -6    1.33    0.33
  -1  11   6    1.09    0.24
   1  11  -6    0.89    0.46
  -1  11   6    0.94    0.33
  -1  11   6    1.27    0.25
  -1  11   6    1.32    0.35
   0 -11   6   11.98    0.84
   0 -11  -6   10.83    0.72
   0 -11   6   11.61    0.81
   0  11   6   12.86    0.81
   0  11   6   11.23    0.66
   0  11  -6   10.57    0.74
   0  11   6   10.97    0.45
   0  11  -6   10.57    0.78
   1 -11   6    0.82    0.48
  -1 -11  -6    1.00    0.41
   1 -11   6    0.16    0.44
  -1  11  -6    0.43    0.36
   1  11   6    0.49    0.29
   1  11   6    1.00    0.37
  -1  11  -6   -0.15    0.35
   2 -11   6   -0.06    0.55
  -2 -11  -6    0.10    0.43
   2 -11   6   -0.02    0.42
  -2  11  -6    0.45    0.44
   2  11   6   -0.48    0.42
   5 -12  -6   -0.38    0.41
  -5 -12   6    0.01    0.62
   5  12  -6    0.35    0.54
  -5  12   6    0.68    0.47
   5  12  -6    0.43    0.43
  -5  12   6    0.43    0.47
  -4 -12   6    2.59    0.67
  -4  12   6    4.46    0.57
  -4  12   6    3.21    0.54
   4  12  -6    4.28    0.71
   4  12  -6    4.78    0.69
  -3 -12   6   11.35    0.93
  -3 -12   6    9.90    0.78
  -3 -12   6    9.47    0.47
   3 -12  -6    9.66    0.62
   3  12  -6   10.19    0.93
  -3  12   6   10.78    0.78
  -3  12   6   11.02    0.77
  -2 -12   6    9.44    0.82
   2 -12  -6    9.78    0.55
  -2 -12   6    9.71    0.56
  -2 -12   6    8.55    0.79
  -2  12   6    8.68    0.57
   2  12  -6   10.16    1.15
  -2  12   6    9.30    0.71
  -2  12   6    8.57    0.69
   1 -12  -6   38.45    1.29
  -1 -12   6   39.52    1.51
  -1 -12   6   39.26    1.49
  -1  12   6   37.00    1.11
  -1  12   6   38.79    1.35
   1  12  -6   39.97    1.32
  -1  12   6   38.32    1.42
   0 -12   6    5.80    0.71
   0 -12  -6    6.00    0.75
   0 -12   6    5.28    0.70
   0  12  -6    4.91    0.76
   0  12   6    5.01    0.65
   0  12   6    5.08    0.65
   0  12  -6    5.32    0.58
   1 -12   6   41.59    1.64
   1 -12   6   43.52    1.73
  -1 -12  -6   45.67    1.63
   1  12   6   43.46    1.63
  -1  12  -6   43.31    1.55
   1  12   6   42.46    1.41
  -1  12  -6   45.54    1.62
   2 -12   6    1.51    0.62
   2 -12   6    2.97    0.64
  -2 -12  -6    2.97    0.62
  -2  12  -6    3.44    0.58
   2  12   6    2.25    0.48
  -5 -13   6    3.56    0.78
   5 -13  -6    1.00    0.47
  -5  13   6    1.88    0.52
   5  13  -6    2.19    0.72
  -5  13   6    1.28    0.52
   5  13  -6    2.34    0.56
  -4 -13   6   14.99    1.18
   4 -13  -6   13.01    0.94
   4  13  -6   13.96    0.93
  -4  13   6   15.54    0.96
  -4  13   6   14.35    0.91
   4  13  -6   15.40    1.09
  -3 -13   6    0.21    0.39
  -3 -13   6    0.27    0.46
   3 -13  -6    0.38    0.29
  -3  13   6    0.48    0.36
   3  13  -6    0.79    0.50
  -3  13   6    0.81    0.37
   2 -13  -6   29.91    1.00
  -2 -13   6   29.82    1.33
  -2 -13   6   30.50    1.33
   2  13  -6   30.34    1.04
  -2  13   6   28.85    1.18
  -2  13   6   30.74    1.23
   2  13  -6   30.31    1.39
   1 -13  -6    2.95    0.40
  -1 -13   6    3.66    0.58
  -1 -13   6    3.71    0.52
  -1  13   6    2.45    0.28
  -1  13   6    3.47    0.48
   1  13  -6    2.58    0.40
  -1  13   6    2.90    0.44
   0 -13   6   13.73    0.91
   0 -13   6   12.81    0.93
   0  13  -6   14.73    0.95
   0  13   6   12.47    0.86
   0  13  -6   13.75    0.81
   0  13   6   13.33    0.73
   1 -13   6    1.02    0.49
   1 -13   6    2.10    0.51
  -1 -13  -6    1.23    0.48
   1  13   6    1.19    0.32
  -1  13  -6    1.25    0.43
   1  13   6    0.77    0.39
  -1  13  -6    1.32    0.44
  -2 -13  -6   -0.28    0.50
   2 -13   6    0.38    0.55
   2 -13   6    1.80    0.64
   2  13   6    0.09    0.42
  -5 -14   6    0.87    0.68
   5 -14  -6    0.84    0.51
   5  14  -6    0.43    0.49
  -5  14   6   -0.45    0.46
  -5  14   6    0.04    0.45
   5  14  -6    0.15    0.60
   4 -14  -6    2.69    0.52
  -4 -14   6    2.74    0.69
   4  14  -6    2.22    0.46
  -4  14   6    2.04    0.49
   4  14  -6    2.43    0.59
  -4  14   6    1.40    0.47
  -3 -14   6   14.82    0.94
   3 -14  -6   15.73    0.73
  -3 -14   6   15.81    1.10
  -3  14   6   15.30    0.91
  -3  14   6   13.86    0.89
   3  14  -6   13.72    1.11
  -2 -14   6    4.14    0.56
  -2 -14   6    4.88    0.63
   2  14  -6    3.80    0.45
  -2  14   6    4.90    0.61
   2  14  -6    3.96    0.58
  -2  14   6    4.09    0.51
  -1 -14   6   20.33    1.11
   1 -14  -6   20.15    0.86
  -1 -14   6   21.25    1.10
   1  14  -6   18.95    1.23
   1  14  -6   19.64    0.90
  -1  14   6   18.32    0.92
  -1  14   6   20.09    1.01
   0 -14   6    0.83    0.46
   0 -14   6    1.43    0.46
   0 -14  -6    1.04    0.38
   0  14  -6    1.01    0.40
   0  14   6    1.72    0.42
   0  14   6    1.17    0.36
  -1 -14  -6   35.84    1.47
   1 -14   6   34.29    1.53
   1 -14   6   35.88    1.49
   1  14   6   31.58    1.38
  -1  14  -6   34.66    1.43
   1  14   6   34.74    1.46
   2 -14   6    1.42    0.70
   2 -14   6    1.27    0.70
  -2 -14  -6    1.55    0.56
   2  14   6    0.42    0.46
  -5 -15   6    0.46    0.70
   5 -15  -6    1.48    0.54
  -5  15   6   -0.08    0.47
   4 -15  -6   37.14    1.53
  -4 -15   6   40.12    1.76
  -4  15   6   38.10    1.55
   4  15  -6   34.64    1.73
  -4  15   6   36.29    1.46
  -3 -15   6    1.07    0.49
   3 -15  -6    0.20    0.28
  -3 -15   6   -0.49    0.48
  -3  15   6   -0.60    0.34
   3  15  -6   -0.21    0.47
  -3  15   6    0.34    0.34
  -2 -15   6   28.21    1.32
  -2 -15   6   28.74    1.35
  -2  15   6   30.96    1.24
  -2  15   6   29.73    1.27
   2  15  -6   28.20    1.41
   2  15  -6   30.50    1.06
  -1 -15   6    0.55    0.46
   1 -15  -6   -0.14    0.31
  -1 -15   6    0.18    0.40
  -1  15   6   -0.73    0.32
   1  15  -6   -0.36    0.41
  -1  15   6   -0.07    0.32
   1  15  -6   -0.59    0.28
   0 -15   6   19.09    1.13
   0 -15  -6   20.68    1.04
   0 -15   6   20.14    1.12
   0  15   6   20.28    0.92
   0  15  -6   19.96    1.01
   0  15   6   20.26    1.07
   1 -15   6    4.69    0.71
   1 -15   6    4.65    0.70
  -1 -15  -6    3.20    0.58
  -1  15  -6    5.55    0.73
   1  15   6    3.02    0.53
  -1  15  -6    3.01    0.52
   1  15   6    3.46    0.46
  -2 -15  -6    1.08    0.55
   2 -15   6    0.02    0.67
  -2  15  -6    0.29    0.48
   4 -16  -6    0.30    0.46
  -4 -16   6    0.20    0.45
  -4 -16   6    0.91    0.62
  -4  16   6    0.51    0.46
  -4  16   6   -0.03    0.43
   4  16  -6   -1.12    0.56
  -3 -16   6    1.24    0.50
  -3 -16   6    1.53    0.54
   3  16  -6    1.24    0.54
  -3  16   6    0.87    0.45
  -3  16   6    2.19    0.48
  -2 -16   6    0.45    0.52
  -2 -16   6    0.27    0.46
   2  16  -6    0.25    0.50
   2  16  -6   -0.12    0.30
  -2  16   6    0.55    0.38
  -2  16   6   -0.04    0.35
   1 -16  -6   18.04    0.88
  -1 -16   6   19.17    1.10
  -1 -16   6   17.58    1.06
  -1  16   6   18.41    1.02
   1  16  -6   17.94    1.14
  -1  16   6   18.41    0.92
   1  16  -6   18.24    0.89
   0 -16   6    3.32    0.63
   0 -16   6    3.58    0.58
   0  16  -6    2.58    0.47
   0  16   6    3.70    0.58
   0  16  -6    2.31    0.56
   0  16   6    3.29    0.48
   1 -16   6   46.35    1.86
   1 -16   6   43.75    1.84
  -1 -16  -6   46.44    1.75
   1  16   6   47.31    1.79
  -1  16  -6   45.92    1.74
   1  16   6   45.79    1.56
  -4 -17   6   31.30    1.47
  -4 -17   6   34.62    1.73
  -4  17   6   36.58    1.55
  -4  17   6   32.94    1.44
   4  17  -6   31.08    1.66
  -3 -17   6    0.73    0.51
  -3 -17   6    0.33    0.58
  -3  17   6    1.21    0.45
   3  17  -6    0.92    0.62
  -3  17   6    1.67    0.45
  -2 -17   6   18.02    1.10
  -2 -17   6   14.62    1.15
   2  17  -6   16.27    1.15
  -2  17   6   16.66    0.96
  -2  17   6   15.37    0.97
  -1 -17   6    0.69    0.51
  -1 -17   6    1.80    0.49
   1 -17  -6    1.15    0.40
   1  17  -6    1.17    0.47
  -1  17   6    1.45    0.44
  -1  17   6    1.26    0.41
   1  17  -6    1.00    0.39
   0 -17   6    0.31    0.47
   0 -17   6    0.38    0.48
   0  17  -6    0.76    0.46
   0  17   6    0.75    0.44
   0  17  -6    0.44    0.41
   0  17   6   -0.06    0.37
   1 -17   6    0.42    0.50
   1 -17   6    0.05    0.55
  -1 -17  -6    0.51    0.55
  -1  17  -6    0.86    0.52
   1  17   6    1.16    0.53
   1  17   6    0.65    0.43
  -4 -18   6    2.94    0.62
  -4 -18   6    2.57    0.78
  -4  18   6    3.06    0.59
  -3 -18   6    8.54    1.12
  -3 -18   6    9.61    0.96
  -3  18   6    7.74    0.86
  -3  18   6    8.93    0.85
   3  18  -6    8.30    1.08
  -2 -18   6    2.37    0.55
  -2 -18   6    1.42    0.59
  -2  18   6    1.68    0.41
  -2  18   6    1.47    0.45
   2  18  -6    2.28    0.56
  -1 -18   6   22.05    1.26
   1 -18  -6   22.67    1.01
  -1 -18   6   22.11    1.19
  -1  18   6   23.19    1.08
   1  18  -6   20.30    1.29
  -1  18   6   22.63    1.17
   1  18  -6   22.83    1.05
   0 -18   6    1.04    0.62
   0 -18   6    1.00    0.50
   0  18  -6    2.00    0.59
   0  18   6    0.85    0.46
   0  18   6    1.73    0.43
   0  18  -6    1.54    0.48
  -1 -18  -6   11.37    1.08
  -1  18  -6   13.37    1.06
   1  18   6   14.31    0.89
  -3 -19   6    4.05    0.80
  -3 -19   6    3.85    0.69
  -3  19   6    2.76    0.57
   3  19  -6    2.54    0.75
  -3  19   6    3.56    0.57
  -2 -19   6   17.40    1.15
  -2 -19   6   18.83    1.25
  -2  19   6   20.93    1.14
  -2  19   6   19.46    1.07
   2  19  -6   19.75    1.32
  -1 -19   6   14.34    1.03
  -1 -19   6   14.17    1.12
   1  19  -6   14.12    1.20
  -1  19   6   14.99    1.05
  -1  19   6   14.20    0.94
   1  19  -6   13.24    1.00
   0 -19   6   -0.23    0.47
   0 -19   6    0.86    0.58
   0  19   6    0.41    0.43
   0  19  -6   -0.09    0.55
   0  19  -6    0.01    0.47
   0  19   6    0.68    0.46
  -3 -20   6    9.84    1.30
  -3 -20   6   10.27    1.13
  -3  20   6    7.11    0.92
  -2 -20   6    4.85    0.69
  -2 -20   6    5.49    0.81
  -2  20   6    6.10    0.84
   2  20  -6    6.00    0.92
  -2  20   6    6.54    0.85
  -1 -20   6   19.80    1.17
  -1 -20   6   17.12    1.16
   1  20  -6   18.49    1.02
  -1  20   6   17.64    1.07
  -1  20   6   15.98    1.12
   1  20  -6   17.61    1.32
   0 -20  -6   11.83    1.08
   0  20  -6   16.98    1.27
   0  20   6   15.28    0.97
   0  20  -6   18.30    1.07
  -2  21   6   14.99    1.01
   2  21  -6   12.14    1.31
  -2  21   6   15.12    1.11
   1  21  -6   -0.96    0.60
  -1  21   6    1.24    0.45
   5   0  -7   -0.38    0.43
  -5   0   7    0.37    0.48
  -4   0   7    0.31    0.34
  -4   0   7    0.24    0.43
   4   0  -7    0.13    0.39
  -4   0   7   -0.22    0.38
   3   0  -7    0.80    0.39
  -3   0   7    0.67    0.31
  -3   0   7    1.26    0.39
  -3   0   7    0.71    0.37
  -3   0   7    0.58    0.43
  -2   0   7    0.30    0.31
  -2   0   7    0.15    0.28
  -2   0   7    0.72    0.37
  -2   0   7    0.45    0.34
  -1   0   7   21.15    0.97
  -1   0   7   22.64    1.03
  -1   0   7   22.08    0.95
  -1   0   7   19.07    1.18
   0   0   7    0.85    0.37
   0   0   7   -0.17    0.36
   0   0   7    0.32    0.37
   0   0   7    0.16    0.33
   1   0   7   13.50    0.97
   1   0   7   14.07    0.88
   1   0   7   16.46    0.99
   2   0   7    0.12    0.47
   2   0   7    0.85    0.52
   5  -1  -7    9.89    0.87
  -5  -1   7    7.55    0.97
   5   1  -7    8.88    0.86
  -5   1   7    9.14    0.98
  -4  -1   7   17.22    0.86
  -4  -1   7   19.90    1.02
   4  -1  -7   20.25    1.03
  -4  -1   7   20.87    1.14
   4   1  -7   20.56    1.02
  -4   1   7   21.70    1.13
  -4   1   7   19.43    0.93
  -4   1   7   19.32    0.93
  -3  -1   7    5.23    0.64
   3  -1  -7    4.99    0.59
  -3  -1   7    5.10    0.64
  -3  -1   7    4.80    0.53
  -3   1   7    5.01    0.65
  -3   1   7    4.74    0.60
  -3   1   7    5.30    0.57
   3   1  -7    4.85    0.67
  -2  -1   7   20.68    0.96
  -2  -1   7   20.11    0.99
  -2  -1   7   20.53    0.91
  -2  -1   7   18.24    1.00
  -2   1   7   21.24    0.98
  -2   1   7   19.87    1.02
  -2   1   7   19.50    0.91
  -2   1   7   19.29    0.89
  -1  -1   7    1.31    0.39
  -1  -1   7    1.18    0.35
  -1  -1   7    1.20    0.42
  -1  -1   7    1.19    0.38
  -1   1   7    1.61    0.42
  -1   1   7    1.37    0.38
  -1   1   7    1.03    0.37
  -1   1   7    1.24    0.39
   0  -1   7   11.66    0.79
   0  -1   7   12.67    0.85
   0  -1   7   12.11    0.73
   0  -1   7   11.44    0.78
   0   1   7   11.81    0.78
   0   1   7   12.68    0.82
   0   1   7   11.60    0.75
   0   1   7   11.70    0.73
   1  -1   7    9.02    0.80
   1  -1   7    7.82    0.75
   1  -1   7    8.04    0.85
   1   1   7    8.22    0.71
   1   1   7    8.92    0.86
   2  -1   7    0.94    0.53
  -2  -1  -7    0.53    0.52
   2  -1   7   -0.01    0.44
   2   1   7    0.16    0.46
   2   1   7    1.12    0.55
  -5  -2   7    0.11    0.49
   5  -2  -7    0.22    0.45
  -5   2   7    0.24    0.51
   5   2  -7   -0.13    0.39
  -4  -2   7    2.18    0.47
  -4  -2   7    1.72    0.43
  -4  -2   7    1.02    0.48
   4  -2  -7    2.39    0.48
  -4   2   7    1.21    0.48
  -4   2   7    1.52    0.40
   4   2  -7    1.80    0.43
   3  -2  -7   10.16    0.75
  -3  -2   7   10.37    0.83
  -3  -2   7   10.40    0.80
  -3  -2   7   10.47    0.67
  -3   2   7   11.13    0.71
   3   2  -7   10.63    0.77
  -3   2   7    9.69    0.74
  -3   2   7   10.37    0.85
  -2  -2   7    0.63    0.36
  -2  -2   7    0.21    0.39
  -2  -2   7   -0.11    0.27
  -2  -2   7   -0.21    0.36
  -2   2   7    0.61    0.35
  -2   2   7    0.70    0.60
  -2   2   7    0.48    0.34
  -1  -2   7    8.79    0.76
  -1  -2   7    8.96    0.67
  -1  -2   7    8.22    0.73
  -1  -2   7    8.20    0.73
  -1   2   7    7.71    0.66
  -1   2   7    8.19    0.72
  -1   2   7    8.94    0.70
  -1   2   7    8.54    0.71
   0  -2   7    1.05    0.39
   0  -2   7    0.75    0.39
   0  -2   7    0.60    0.37
   0  -2   7    0.88    0.42
   0   2   7    1.42    0.37
   0   2   7    1.03    0.41
   0   2   7    0.99    0.35
   0   2   7    1.39    0.37
   1  -2   7   44.26    1.64
   1  -2   7   43.36    1.63
   1  -2   7   44.12    1.70
   1   2   7   45.50    1.69
   1   2   7   45.00    1.71
   2  -2   7    5.31    0.72
  -2  -2  -7    5.39    0.72
   2  -2   7    5.42    0.71
   2  -2   7    3.29    0.65
   2   2   7    4.81    0.71
   2   2   7    5.59    0.75
  -5  -3   7    0.25    0.51
   5  -3  -7    0.16    0.42
  -5   3   7    0.79    0.49
   5   3  -7    0.64    0.45
  -4  -3   7   19.68    1.13
   4  -3  -7   23.61    1.09
  -4  -3   7   23.41    1.22
  -4   3   7   23.94    1.18
   4   3  -7   24.92    1.15
  -4   3   7   22.55    1.04
   3  -3  -7    2.89    0.45
  -3  -3   7    3.07    0.54
  -3  -3   7    3.18    0.41
  -3  -3   7    3.76    0.58
  -3   3   7    3.68    0.52
  -3   3   7    2.90    0.47
  -3   3   7    3.56    0.45
  -2  -3   7   23.02    0.95
  -2  -3   7   22.07    1.07
  -2  -3   7   21.27    1.03
  -2  -3   7   21.87    1.08
  -2   3   7   23.02    1.00
  -2   3   7   21.52    1.05
  -2   3   7   22.33    0.94
  -2   3   7   21.68    0.97
  -1  -3   7    3.93    0.57
  -1  -3   7    5.53    0.64
  -1  -3   7    4.09    0.57
  -1  -3   7    4.45    0.60
  -1   3   7    4.32    0.52
  -1   3   7    4.91    0.61
  -1   3   7    3.86    0.48
   0  -3   7    8.17    0.74
   0  -3   7    9.54    0.76
   0  -3   7    8.84    0.66
   0  -3   7    8.75    0.77
   0   3   7    7.90    0.73
   0   3   7    7.23    0.63
   0   3   7    8.39    0.63
   0   3   7    7.85    0.74
   1  -3   7    6.24    0.78
   1  -3   7    5.94    0.77
  -1  -3  -7    5.21    0.64
   1  -3   7    5.64    0.69
   1   3   7    5.26    0.62
   1   3   7    6.19    0.63
   2  -3   7    0.76    0.52
   2  -3   7    0.78    0.45
  -2  -3  -7    0.17    0.51
   2   3   7   -0.36    0.56
   5  -4  -7    3.61    0.59
  -5  -4   7    2.94    0.69
  -5   4   7    2.06    0.60
   5   4  -7    3.42    0.58
  -4  -4   7    0.61    0.46
   4  -4  -7   -0.09    0.38
  -4  -4   7   -0.67    0.47
  -4   4   7   -0.11    0.34
   4   4  -7    0.97    0.42
  -4   4   7    0.21    0.41
   3  -4  -7    6.79    0.66
  -3  -4   7    5.80    0.77
  -3  -4   7    6.19    0.56
  -3  -4   7    7.74    0.75
  -3   4   7    5.43    0.62
  -3   4   7    5.99    0.62
  -3   4   7    5.83    0.74
  -2  -4   7    3.86    0.52
  -2  -4   7    2.82    0.49
  -2  -4   7    2.74    0.52
  -2  -4   7    3.01    0.41
  -2   4   7    3.22    0.47
  -2   4   7    4.20    0.51
  -2   4   7    2.82    0.42
  -2   4   7    2.92    0.46
  -1  -4   7   19.15    0.93
  -1  -4   7   19.72    0.96
  -1  -4   7   18.33    1.01
  -1  -4   7   20.49    0.99
  -1   4   7   19.40    0.90
  -1   4   7   18.94    0.94
  -1   4   7   19.21    0.94
  -1   4   7   17.69    1.00
   0  -4   7    4.07    0.57
   0  -4   7    4.58    0.55
   0  -4   7    4.18    0.53
   0  -4   7    4.37    0.50
   0   4   7    4.78    0.57
   0   4   7    5.26    0.55
   0   4   7    4.05    0.47
   1  -4   7   25.62    1.22
  -1  -4  -7   24.68    1.21
   1  -4   7   26.47    1.26
   1  -4   7   26.46    1.26
   1   4   7   26.06    1.26
   1   4   7   26.04    1.03
   2  -4   7    3.58    0.64
  -2  -4  -7    5.22    0.74
   5  -5  -7    7.82    0.83
  -5  -5   7    8.05    0.99
   5   5  -7    7.68    0.85
  -5   5   7    7.54    0.92
  -4  -5   7   18.62    1.17
  -4  -5   7   22.00    1.18
   4  -5  -7   21.83    1.03
   4   5  -7   21.67    1.10
  -4   5   7   20.01    1.13
  -4   5   7   21.80    1.03
  -3  -5   7    4.98    0.76
  -3  -5   7    4.43    0.62
   3  -5  -7    6.69    0.67
  -3  -5   7    7.26    0.57
  -3   5   7    6.57    0.71
  -3   5   7    6.54    0.90
  -3   5   7    5.64    0.60
  -2  -5   7   18.14    0.99
  -2  -5   7   19.99    1.05
  -2  -5   7   19.07    0.85
  -2  -5   7   17.88    1.01
  -2   5   7   18.97    0.90
  -2   5   7   19.40    0.87
  -2   5   7   19.63    1.00
  -2   5   7   20.30    0.96
  -1  -5   7    0.12    0.30
  -1  -5   7    0.36    0.40
  -1  -5   7    0.07    0.36
  -1  -5   7    0.39    0.36
  -1   5   7    0.59    0.56
  -1   5   7   -0.53    0.31
  -1   5   7    0.87    0.36
  -1   5   7    0.29    0.30
  -1   5   7    0.13    0.33
   0  -5   7    1.22    0.39
   0  -5   7    2.18    0.41
   0  -5   7    3.06    0.52
   0  -5   7    2.49    0.50
   0   5   7    2.26    0.47
   0   5   7    2.53    0.42
   0   5   7    2.61    0.40
  -1  -5  -7    0.55    0.41
   1  -5   7    0.41    0.49
   1  -5   7   -0.68    0.45
   1   5   7    0.22    0.42
   1   5   7    0.43    0.36
   2  -5   7    0.91    0.55
  -2  -5  -7    0.57    0.59
  -2   5  -7    0.24    0.50
  -5  -6   7    0.10    0.51
   5  -6  -7    0.97    0.46
  -5  -6   7    0.36    0.59
   5   6  -7    0.98    0.51
  -5   6   7   -0.32    0.50
   4  -6  -7    0.59    0.39
  -4  -6   7   -0.32    0.46
  -4  -6   7   -0.09    0.54
  -4   6   7    1.45    0.48
   4   6  -7    1.17    0.45
  -3  -6   7    3.51    0.57
  -3  -6   7    3.97    0.54
  -3  -6   7    3.61    0.50
  -3  -6   7    5.89    0.74
  -3   6   7    4.25    0.59
  -3   6   7    3.83    0.49
  -3   6   7    3.24    0.42
  -2  -6   7   12.97    0.90
  -2  -6   7   13.47    0.91
  -2  -6   7   13.74    0.91
  -2  -6   7   12.14    0.72
  -2   6   7   13.21    0.75
  -2   6   7   13.05    0.80
  -2   6   7   12.70    0.71
  -2   6   7   12.62    0.84
  -1  -6   7   34.86    1.39
  -1  -6   7   32.69    1.25
  -1  -6   7   34.29    1.32
  -1  -6   7   33.68    1.33
  -1   6   7   32.76    1.18
  -1   6   7   32.36    1.27
  -1   6   7   32.70    1.20
  -1   6   7   32.28    1.28
   0  -6   7   10.24    0.85
   0  -6   7   11.51    0.82
   0  -6   7   11.15    0.85
   0  -6  -7    8.56    0.88
   0  -6   7    8.81    0.75
   0   6   7    9.70    0.81
   0   6   7   10.07    0.62
  -1  -6  -7   21.77    1.14
   1  -6   7   22.25    1.20
   1  -6   7   20.38    1.17
   1   6   7   22.96    1.17
  -1   6  -7   20.91    1.14
  -2  -6  -7   -0.75    0.54
   5  -7  -7    1.73    0.52
  -5  -7   7    1.12    0.63
  -5  -7   7    0.41    0.54
  -5   7   7    0.77    0.47
  -5   7   7    0.73    0.54
   5   7  -7    0.77    0.45
   4  -7  -7   31.26    1.28
  -4  -7   7   34.75    1.48
  -4  -7   7   27.23    1.47
   4   7  -7   30.57    1.35
  -4   7   7   34.53    1.36
  -4   7   7   30.22    1.39
  -3  -7   7   14.15    0.96
  -3  -7   7   14.48    0.93
  -3  -7   7   14.80    0.72
   3  -7  -7   14.15    0.84
  -3  -7   7   16.66    0.99
  -3   7   7   14.33    0.92
  -3   7   7   15.32    0.87
  -2  -7   7   18.54    1.01
  -2  -7   7   18.83    0.85
  -2  -7   7   18.83    1.08
  -2  -7   7   19.19    1.01
  -2   7   7   16.59    0.96
  -2   7   7   19.07    0.94
  -2   7   7   18.17    0.82
  -2   7   7   18.44    0.86
  -1  -7   7    5.79    0.76
  -1  -7   7    4.29    0.56
  -1  -7   7    5.69    0.63
  -1  -7   7    5.36    0.70
  -1   7   7    5.49    0.63
  -1   7   7    5.34    0.54
  -1   7   7    6.69    0.69
  -1   7   7    5.24    0.57
   0  -7   7    0.28    0.43
   0  -7  -7    0.14    0.42
   0  -7   7    0.46    0.40
   0   7   7    0.32    0.37
   0   7   7    0.17    0.26
   0   7   7   -0.07    0.37
  -1  -7  -7    0.58    0.47
   1  -7   7    0.73    0.47
   1  -7   7   -0.03    0.49
   1   7   7    0.26    0.46
  -1   7  -7   -0.18    0.42
  -5  -8   7    1.72    0.68
   5  -8  -7    2.02    0.53
  -5  -8   7    2.46    0.85
   5   8  -7    2.03    0.57
  -5   8   7    2.61    0.84
  -5   8   7    1.22    0.49
  -4  -8   7   -0.47    0.59
   4  -8  -7    0.75    0.43
   4   8  -7    0.03    0.44
  -4   8   7    0.90    0.47
  -4   8   7    0.92    0.44
  -3  -8   7   -0.78    0.38
   3  -8  -7    0.34    0.36
  -3  -8   7    0.47    0.47
  -3  -8   7    0.02    0.36
  -3   8   7    0.15    0.33
  -3   8   7   -0.01    0.40
  -2  -8   7    1.35    0.34
  -2  -8   7    1.45    0.50
  -2  -8   7    1.68    0.48
  -2   8   7    1.87    0.39
  -2   8   7    2.10    0.36
  -2   8   7    1.62    0.43
  -2   8   7    1.63    0.38
  -1  -8   7   12.20    0.78
  -1  -8   7   13.68    0.95
  -1  -8   7   12.76    0.92
  -1   8   7   13.99    0.87
  -1   8   7   12.82    0.81
  -1   8   7   12.83    0.67
   0  -8   7   12.52    0.84
   0  -8   7   12.73    0.93
   0  -8  -7   10.87    0.90
   0  -8   7   10.35    0.89
   0   8   7   12.98    0.89
   0   8  -7   12.46    0.84
   0   8   7   12.62    0.72
  -1  -8  -7    9.16    0.89
   1  -8   7    9.73    0.97
   1  -8   7    7.41    0.91
  -1   8  -7    9.10    0.85
   1   8   7   11.45    0.96
  -5  -9   7   17.23    1.32
   5  -9  -7   20.69    1.11
  -5   9   7   15.08    1.07
   5   9  -7   20.20    1.29
   4  -9  -7   24.03    1.10
  -4  -9   7   20.56    1.37
  -4   9   7   22.17    1.18
   4   9  -7   22.14    1.18
  -4   9   7   25.59    1.22
  -3  -9   7    8.84    0.83
  -3  -9   7    9.35    0.95
   3  -9  -7   10.15    0.73
  -3   9   7   10.37    0.81
   3   9  -7    9.88    0.98
  -3   9   7    8.17    0.81
  -2  -9   7   14.06    0.99
  -2  -9   7   14.76    1.02
  -2  -9   7   14.64    0.76
  -2   9   7   13.61    0.72
   2   9  -7   14.25    1.05
  -2   9   7   14.40    0.88
  -2   9   7   14.72    0.91
  -2   9   7   15.21    0.77
  -1  -9   7   22.37    1.15
  -1  -9   7   23.75    1.04
  -1  -9   7   24.20    1.19
  -1   9   7   22.34    1.09
  -1   9   7   21.66    0.86
  -1   9   7   24.40    1.04
   0  -9   7    1.86    0.51
   0  -9  -7    2.52    0.48
   0  -9   7    1.17    0.52
   0   9  -7    1.59    0.44
   0   9   7    1.37    0.38
   0   9   7    2.07    0.46
   1  -9   7    0.30    0.53
   1  -9   7    0.30    0.53
  -1  -9  -7    0.65    0.44
  -1   9  -7    0.43    0.45
   1   9   7    0.12    0.41
   5 -10  -7   12.22    0.95
  -5 -10   7    9.51    1.23
  -5  10   7   10.49    0.98
  -4 -10   7    2.27    0.72
   4 -10  -7    3.29    0.52
  -4  10   7    4.63    0.62
  -4  10   7    3.44    0.58
   4  10  -7    2.99    0.70
   4  10  -7    3.34    0.59
  -3 -10   7    4.65    0.65
   3 -10  -7    4.71    0.63
  -3 -10   7    6.37    0.77
  -3  10   7    5.99    0.73
   3  10  -7    4.72    0.73
  -3  10   7    4.77    0.59
  -2 -10   7   12.13    0.73
  -2 -10   7   11.99    0.96
  -2 -10   7   12.04    0.94
  -2  10   7   11.56    0.66
  -2  10   7   11.12    0.86
   2  10  -7   14.19    1.04
  -2  10   7   12.02    0.71
  -2  10   7   11.04    0.81
  -1 -10   7    8.74    0.83
  -1 -10   7    8.17    0.86
  -1  10   7    8.91    0.79
  -1  10   7    7.18    0.69
   1  10  -7    7.15    0.89
   0 -10  -7   14.01    0.93
   0 -10   7   15.87    1.03
   0 -10   7   11.98    0.97
   0  10   7   15.03    0.79
   0  10  -7   11.58    0.84
   0  10   7   15.33    0.97
   1 -10   7    5.73    0.79
  -1 -10  -7    5.88    0.72
   1 -10   7    5.71    0.74
  -1  10  -7    8.65    0.89
   1  10   7    5.90    0.74
  -4 -11   7   -0.10    0.62
   4 -11  -7    1.12    0.44
  -4  11   7   -0.50    0.45
   4  11  -7    1.48    0.70
  -4  11   7    0.86    0.49
  -3 -11   7   52.94    1.97
  -3 -11   7   49.45    1.84
   3 -11  -7   50.08    1.62
  -3  11   7   48.94    1.77
  -3  11   7   49.83    1.79
   3  11  -7   47.31    1.96
  -2 -11   7    7.46    0.83
  -2 -11   7    6.32    0.73
  -2 -11   7    5.38    0.58
  -2  11   7    5.03    0.58
  -2  11   7    5.66    0.71
   2  11  -7    5.64    0.73
  -2  11   7    5.77    0.61
  -1 -11   7    3.20    0.61
   1 -11  -7    2.44    0.46
  -1 -11   7    3.27    0.60
  -1  11   7    4.56    0.60
   1  11  -7    2.63    0.59
  -1  11   7    2.88    0.51
   0 -11   7    2.92    0.59
   0 -11   7    2.34    0.52
   0 -11  -7    1.79    0.48
   0  11   7    1.98    0.48
   0  11  -7    2.25    0.49
   0  11   7    2.31    0.42
   1 -11   7    0.21    0.61
  -1 -11  -7   -0.18    0.49
   1 -11   7    0.51    0.55
  -1  11  -7    0.29    0.48
   1  11   7   -0.08    0.47
   4 -12  -7    6.53    0.76
  -4 -12   7    6.82    0.87
  -4  12   7    6.08    0.70
   4  12  -7    5.72    0.88
  -4  12   7    4.50    0.67
  -3 -12   7    3.14    0.66
  -3 -12   7    3.53    0.65
   3 -12  -7    3.37    0.53
  -3  12   7    3.38    0.56
  -3  12   7    2.78    0.50
   3  12  -7    2.90    0.63
  -2 -12   7    6.35    0.62
  -2 -12   7    6.70    0.77
  -2 -12   7    5.74    0.71
   2  12  -7    6.96    0.95
  -2  12   7    8.78    0.78
  -2  12   7    6.00    0.75
  -1 -12   7    3.73    0.65
  -1 -12   7    6.29    0.85
   1 -12  -7    4.53    0.54
  -1  12   7    4.56    0.56
   1  12  -7    5.43    0.69
   1  12  -7    5.85    0.67
  -1  12   7    5.66    0.64
   0 -12  -7   33.18    1.35
   0 -12   7   31.01    1.48
   0 -12   7   33.63    1.47
   0  12   7   32.45    1.44
   0  12   7   32.68    1.23
   0  12  -7   30.99    1.51
   0  12  -7   34.17    1.40
   1 -12   7    2.46    0.65
  -1 -12  -7    2.17    0.60
  -1  12  -7    0.53    0.49
   4 -13  -7    4.14    0.73
  -4 -13   7    3.20    0.74
  -4 -13   7    2.93    0.68
  -4  13   7    3.58    0.73
   4  13  -7    2.89    1.06
  -4  13   7    2.97    0.60
  -3 -13   7    9.24    1.01
  -3 -13   7    7.31    0.94
  -3  13   7    8.52    0.84
   3  13  -7   10.91    1.14
  -3  13   7    8.64    0.86
  -2 -13   7    0.49    0.48
  -2 -13   7   -0.86    0.47
   2  13  -7   -0.94    0.51
  -2  13   7    0.50    0.38
  -2  13   7   -0.13    0.42
   1 -13  -7   18.36    0.92
  -1 -13   7   17.19    1.12
  -1 -13   7   19.27    1.14
   1  13  -7   18.07    1.20
  -1  13   7   18.08    0.96
  -1  13   7   18.99    1.05
   1  13  -7   19.16    0.96
   0 -13   7    1.53    0.63
   0 -13  -7    1.68    0.50
   0 -13   7    1.24    0.54
   0  13   7    1.24    0.43
   0  13   7    1.79    0.48
   0  13  -7    1.92    0.49
   0  13  -7    3.61    0.59
  -4 -14   7   -0.31    0.72
  -4  14   7    0.67    0.53
  -3 -14   7   -0.66    0.53
  -3 -14   7    0.25    0.60
  -3  14   7    0.39    0.45
   3  14  -7    0.67    0.65
  -3  14   7   -0.01    0.44
  -2 -14   7    7.01    0.94
  -2 -14   7    7.24    0.96
  -2  14   7    5.71    0.78
  -2  14   7    6.85    0.77
   2  14  -7    7.92    1.03
  -1 -14   7    0.48    0.56
  -1 -14   7   -0.25    0.47
  -1  14   7    0.39    0.41
   1  14  -7   -1.39    0.52
  -1  14   7    0.47    0.43
   1  14  -7    1.13    0.43
   0 -14   7   21.80    1.26
   0 -14  -7   23.81    1.21
   0 -14   7   24.35    1.29
   0  14   7   21.07    1.07
   0  14  -7   22.93    1.18
   0  14   7   24.59    1.28
   0  14  -7   21.55    1.31
  -3 -15   7   23.03    1.42
  -3 -15   7   21.99    1.42
   3  15  -7   19.39    1.44
  -3  15   7   20.39    1.17
  -3  15   7   19.36    1.14
  -2 -15   7    0.61    0.55
  -2 -15   7    1.54    0.53
   2  15  -7    1.19    0.57
  -2  15   7   -0.06    0.44
  -2  15   7    0.22    0.41
  -1 -15   7   10.65    0.98
  -1 -15   7    9.31    1.10
   1  15  -7   11.07    1.08
  -1  15   7    9.18    0.84
   1  15  -7   10.98    0.87
  -1  15   7    8.96    0.90
   0 -15  -7    3.72    0.63
   0  15   7    4.68    0.55
   0  15  -7    3.74    0.60
   0  15  -7    3.97    0.71
  -3 -16   7    0.11    0.69
   3  16  -7    1.11    0.82
  -3  16   7   -0.12    0.74
  -3  16   7   -0.08    0.47
  -2 -16   7    5.80    0.89
  -2 -16   7    8.20    1.04
  -2  16   7    7.50    0.84
   2  16  -7    6.71    0.87
  -2  16   7    6.32    0.88
  -1 -16   7    1.87    0.66
  -1 -16   7    2.09    0.73
  -1  16   7    1.30    0.47
   1  16  -7    1.28    0.57
   1  16  -7    1.74    0.65
  -1  16   7    1.96    0.53
   2  17  -7    0.70    0.70
  -4   0   8    0.56    0.57
   4   0  -8    0.34    0.53
  -3   0   8   -0.19    0.51
  -3   0   8    0.58    0.64
  -3   0   8   -0.11    0.45
  -3   0   8    0.75    0.41
  -2   0   8    5.45    0.73
  -2   0   8    6.30    0.71
  -2   0   8    6.84    0.77
  -2   0   8    6.97    0.71
  -1   0   8   -0.26    0.47
  -1   0   8   -0.52    0.44
  -1   0   8    0.52    0.45
   0   0   8   24.11    1.29
   0   0   8   25.47    1.25
   0   0   8   25.38    1.21
   4  -1  -8   -0.13    0.47
  -4  -1   8    0.59    0.53
  -4   1   8    0.62    0.55
   4   1  -8   -0.12    0.50
  -3  -1   8   14.12    1.07
  -3  -1   8   16.51    1.09
  -3  -1   8   14.79    1.00
  -3  -1   8   17.80    1.06
  -3   1   8   17.33    1.12
  -3   1   8   14.68    1.00
  -3   1   8   17.04    0.97
  -2  -1   8    0.72    0.53
  -2  -1   8    0.83    0.42
  -2  -1   8    1.35    0.53
  -2  -1   8   -0.15    0.48
  -2   1   8    1.36    0.49
  -2   1   8    0.57    0.51
  -2   1   8    1.63    0.48
  -2   1   8    0.32    0.49
  -1  -1   8    3.60    0.60
  -1  -1   8    6.04    0.77
  -1  -1   8    5.50    0.74
  -1  -1   8    4.44    0.59
  -1   1   8    6.09    0.76
  -1   1   8    4.95    0.63
  -1   1   8    3.48    0.57
  -1   1   8    4.52    0.59
   0  -1   8    6.70    0.90
   0  -1   8    7.73    0.88
   0  -1   8    7.25    0.87
   0   1   8    8.56    0.87
   0   1   8    6.13    0.71
   0   1   8    9.50    0.84
  -4  -2   8    0.78    0.65
   4  -2  -8   -1.03    0.45
  -4   2   8    0.44    0.58
   4   2  -8    0.42    0.49
  -3  -2   8    0.01    0.50
  -3  -2   8   -0.03    0.46
  -3  -2   8    0.79    0.50
  -3  -2   8    0.17    0.51
  -3   2   8    0.92    0.51
  -3   2   8    0.35    0.42
  -3   2   8    0.01    0.47
  -2  -2   8    4.78    0.68
  -2  -2   8    4.04    0.59
  -2  -2   8    4.88    0.61
  -2  -2   8    4.69    0.56
  -2   2   8    3.78    0.63
  -2   2   8    5.54    0.73
  -2   2   8    5.25    0.59
  -2   2   8    3.30    0.60
  -1  -2   8    0.39    0.50
  -1  -2   8   -0.87    0.42
  -1  -2   8    0.15    0.41
  -1  -2   8    0.70    0.47
  -1   2   8    0.39    0.46
  -1   2   8    0.29    0.39
  -1   2   8   -0.05    0.44
  -1   2   8   -0.48    0.43
   0  -2   8   11.19    0.94
   0  -2   8    9.17    0.94
   0  -2   8   11.15    0.92
   0   2   8   10.29    0.83
   0   2   8    8.04    0.89
   0   2   8   10.24    0.90
  -4  -3   8   14.41    1.42
   4  -3  -8   11.98    0.98
   4   3  -8   13.25    1.02
  -4   3   8   16.43    1.72
  -3  -3   8   18.06    1.17
  -3  -3   8   19.85    1.19
  -3  -3   8   19.44    1.14
  -3   3   8   16.46    1.01
  -3   3   8   18.42    1.17
  -3   3   8   17.28    1.03
  -2  -3   8    8.57    0.88
  -2  -3   8    7.54    0.89
  -2  -3   8    7.97    0.80
  -2  -3   8    8.47    0.77
  -2   3   8    8.88    0.87
  -2   3   8    8.10    0.81
  -2   3   8    7.65    0.81
  -2   3   8    7.26    0.86
  -1  -3   8   16.58    1.02
  -1  -3   8   17.41    1.06
  -1  -3   8   16.48    1.05
  -1  -3   8   17.62    1.04
  -1   3   8   15.37    0.98
  -1   3   8   18.84    1.05
  -1   3   8   18.02    1.00
  -1   3   8   17.05    0.97
   0  -3   8    0.68    0.51
   0  -3   8    1.40    0.57
   0  -3   8    1.09    0.50
   0   3   8    1.62    0.54
   0   3   8    0.56    0.51
   4  -4  -8    0.50    0.48
  -3  -4   8    0.66    0.59
  -3  -4   8    1.49    0.51
  -3  -4   8    1.54    0.54
  -3   4   8    2.45    0.52
  -3   4   8    1.18    0.45
  -3   4   8    1.94    0.52
  -2  -4   8    9.83    0.95
  -2  -4   8    7.68    0.76
  -2  -4   8   10.30    0.93
  -2  -4   8    8.87    0.92
  -2   4   8    7.37    0.85
  -2   4   8    7.50    0.88
  -2   4   8    7.45    0.80
  -2   4   8    7.59    0.80
  -1  -4   8    9.39    0.88
  -1  -4   8    9.82    0.88
  -1  -4   8    7.55    0.90
  -1  -4   8    7.48    0.90
  -1   4   8    9.25    0.84
  -1   4   8    8.26    0.77
  -1   4   8    8.49    0.84
  -1   4   8    7.78    0.84
  -3  -5   8   21.32    1.30
  -3  -5   8   23.37    1.26
  -3  -5   8   21.64    1.28
  -3   5   8   24.02    1.16
  -3   5   8   21.52    1.24
  -3   5   8   20.77    1.09
  -2  -5   8    9.00    0.82
  -2  -5   8    9.57    0.97
  -2  -5   8   11.64    1.00
  -2  -5   8    9.05    0.95
  -2   5   8    9.66    0.83
  -2   5   8   10.23    0.88
  -2   5   8   10.58    0.86
  -2   5   8    8.61    0.85
  -1  -5   8   17.18    1.06
  -1  -5   8   16.68    1.02
  -1  -5   8   16.26    1.09
  -1  -5   8   16.99    1.10
  -1   5   8   17.27    0.99
  -1   5   8   16.80    1.01
  -1   5   8   16.69    1.01
  -3  -6   8    0.51    0.59
  -3  -6   8    0.38    0.57
  -3  -6   8    0.40    0.52
  -3   6   8    0.59    0.48
  -3   6   8    0.81    0.48
  -3   6   8    0.40    0.50
  -2  -6   8    6.20    0.91
  -2  -6   8    3.87    0.54
  -2  -6   8    3.98    0.64
  -2  -6   8    3.66    0.67
  -2   6   8    3.67    0.61
  -2   6   8    3.89    0.56
  -2   6   8    3.67    0.58
  -1  -6   8    9.22    0.89
  -1  -6   8    7.20    0.78
  -1  -6   8    9.53    0.93
  -1  -6   8    8.30    0.84
  -1   6   8    9.56    0.92
  -1   6   8    9.68    0.83
  -1   6   8    8.27    0.84
  -3  -7   8   12.89    1.12
  -3  -7   8   17.67    1.16
  -3  -7   8   13.48    1.11
  -3   7   8   13.80    0.98
  -3   7   8   13.98    1.08
  -3   7   8   13.48    0.92
  -2  -7   8    6.00    0.74
  -2  -7   8    9.22    0.95
  -2  -7   8    9.07    0.98
  -2  -7   8    9.50    0.94
  -2   7   8    5.80    0.65
  -2   7   8    7.42    0.84
  -1  -7   8    3.45    0.65
  -1  -7   8    4.15    0.64
  -1  -7   8    3.27    0.63
  -1  -7   8    3.63    0.58
  -1   7   8    4.07    0.54
  -1   7   8    2.77    0.52
  -1   7   8    3.34    0.58
  -3  -8   8   -0.24    0.55
  -3  -8   8    1.23    0.60
  -3  -8   8   -1.15    0.57
  -3   8   8   -1.20    0.50
  -3   8   8    0.30    0.55
  -3   8   8   -1.11    0.44
  -2  -8   8    7.84    0.98
  -2  -8   8    7.07    0.81
  -2  -8   8    5.22    0.73
  -2   8   8    6.98    0.81
  -2   8   8    5.93    0.68
  -1  -8   8    2.84    0.63
  -1  -8   8    2.05    0.62
  -1  -8   8    2.98    0.59
  -1  -8   8    3.03    0.55
  -1   8   8    2.45    0.54
  -1   8   8    1.37    0.51
  -1   8   8    2.23    0.56
  -2  -9   8    1.35    0.62
  -2  -9   8    1.74    0.62
  -2  -9   8    0.94    0.60
  -2   9   8    2.01    0.51
  -2   9   8    0.31    0.52
   0   0   0    0.00    0.00
;
_shelx_hkl_checksum              44222
loop_
_space_group_symop_operation_xyz
'x, y, z'
'-x+1/2, y+1/2, -z+1/2'
'-x, -y, -z'
'x-1/2, -y-1/2, z-1/2'
loop_
_atom_site_label
_atom_site_type_symbol
_atom_site_fract_x
_atom_site_fract_y
_atom_site_fract_z
_atom_site_U_iso_or_equiv
_atom_site_adp_type
_atom_site_occupancy
_atom_site_site_symmetry_order
_atom_site_calc_flag
_atom_site_refinement_flags_posn
_atom_site_refinement_flags_adp
C1 C 0.6088(3) 0.80299(8) 0.6504(3) 0.0113(4) Uani 1 1 d . .
C2 C 0.8326(3) 0.78881(8) 0.6318(3) 0.0121(4) Uani 1 1 d . .
H2 H 0.9560 0.8131 0.6208 0.015 Uiso 1 1 calc R U
C3 C 0.8297(3) 0.73161(8) 0.6336(3) 0.0116(4) Uani 1 1 d . .
H3 H 0.9541 0.7073 0.6249 0.014 Uiso 1 1 calc R U
C4 C 0.5322(3) 0.66044(8) 0.6663(3) 0.0099(4) Uani 1 1 d . .
C5 C 0.6284(4) 0.56946(8) 0.7304(3) 0.0139(4) Uani 1 1 d . .
H5 H 0.7411 0.5400 0.7611 0.017 Uiso 1 1 calc R U
C6 C 0.3940(3) 0.55741(8) 0.7076(3) 0.0116(4) Uani 1 1 d . .
C7 C 0.2347(3) 0.60117(8) 0.6599(3) 0.0134(4) Uani 1 1 d . .
H7 H 0.0723 0.5937 0.6422 0.016 Uiso 1 1 calc R U
N1 N 0.4715(3) 0.76013(7) 0.6611(3) 0.0110(3) Uani 1 1 d . .
N2 N 0.6116(3) 0.71597(7) 0.6503(2) 0.0099(3) Uani 1 1 d . .
N3 N 0.7003(3) 0.62180(7) 0.7102(3) 0.0128(3) Uani 1 1 d . .
N4 N 0.3021(3) 0.65379(7) 0.6379(3) 0.0128(3) Uani 1 1 d . .
N5 N 0.5225(3) 0.85928(7) 0.6645(3) 0.0132(3) Uani 1 1 d . .
O1 O 0.6483(3) 0.89806(6) 0.6393(2) 0.0197(3) Uani 1 1 d . .
O2 O 0.3317(2) 0.86519(6) 0.7030(2) 0.0174(3) Uani 1 1 d . .
Br1 Br 0.29135(3) 0.48418(2) 0.74015(3) 0.01420(7) Uani 1 1 d . .
loop_
_atom_site_aniso_label
_atom_site_aniso_U_11
_atom_site_aniso_U_22
_atom_site_aniso_U_33
_atom_site_aniso_U_23
_atom_site_aniso_U_13
_atom_site_aniso_U_12
C1 0.0122(9) 0.0098(9) 0.0109(9) 0.0006(7) 0.0020(7) 0.0009(7)
C2 0.0103(9) 0.0136(9) 0.0122(9) 0.0013(7) 0.0028(7) -0.0020(7)
C3 0.0091(9) 0.0143(9) 0.0116(9) 0.0006(7) 0.0035(7) 0.0004(7)
C4 0.0108(9) 0.0103(9) 0.0093(9) -0.0007(7) 0.0041(7) 0.0001(7)
C5 0.0137(9) 0.0119(9) 0.0162(9) 0.0019(8) 0.0046(8) 0.0031(8)
C6 0.0138(9) 0.0100(9) 0.0118(9) 0.0000(7) 0.0050(7) -0.0007(7)
C7 0.0104(9) 0.0130(9) 0.0173(9) -0.0005(8) 0.0045(8) -0.0014(7)
N1 0.0107(8) 0.0093(8) 0.0133(8) -0.0004(6) 0.0039(6) 0.0015(6)
N2 0.0088(7) 0.0090(7) 0.0119(8) -0.0004(6) 0.0033(6) 0.0009(6)
N3 0.0111(8) 0.0124(8) 0.0156(8) 0.0018(6) 0.0048(7) 0.0011(6)
N4 0.0098(8) 0.0116(8) 0.0172(8) 0.0003(7) 0.0041(7) 0.0010(6)
N5 0.0138(8) 0.0106(8) 0.0145(8) 0.0006(6) 0.0029(7) -0.0010(6)
O1 0.0184(7) 0.0115(7) 0.0297(8) 0.0010(6) 0.0075(6) -0.0041(6)
O2 0.0133(7) 0.0138(7) 0.0265(8) -0.0013(6) 0.0078(6) 0.0018(6)
Br1 0.01485(11) 0.00936(10) 0.01703(11) 0.00119(8) 0.00234(7) -0.00201(7)
loop_
_atom_type_symbol
_atom_type_description
_atom_type_scat_dispersion_real
_atom_type_scat_dispersion_imag
_atom_type_scat_source
C C 0.0033 0.0016 'International Tables Vol C Tables 4.2.6.8 and 6.1.1.4'
H H 0.0000 0.0000 'International Tables Vol C Tables 4.2.6.8 and 6.1.1.4'
Br Br -0.2901 2.4595 'International Tables Vol C Tables 4.2.6.8 and 6.1.1.4'
N N 0.0061 0.0033 'International Tables Vol C Tables 4.2.6.8 and 6.1.1.4'
O O 0.0106 0.0060 'International Tables Vol C Tables 4.2.6.8 and 6.1.1.4'
loop_
_geom_angle_atom_site_label_1
_geom_angle_atom_site_label_2
_geom_angle_atom_site_label_3
_geom_angle
N1 C1 C2 115.22(17)
N1 C1 N5 118.86(17)
C2 C1 N5 125.89(17)
C3 C2 C1 103.07(17)
C3 C2 H2 128.5
C1 C2 H2 128.5
C2 C3 N2 106.61(16)
C2 C3 H3 126.7
N2 C3 H3 126.7
N3 C4 N4 128.45(18)
N3 C4 N2 114.95(16)
N4 C4 N2 116.60(16)
N3 C5 C6 121.39(18)
N3 C5 H5 119.3
C6 C5 H5 119.3
C5 C6 C7 117.75(18)
C5 C6 Br1 121.80(15)
C7 C6 Br1 120.45(14)
N4 C7 C6 121.96(18)
N4 C7 H7 119.0
C6 C7 H7 119.0
C1 N1 N2 101.93(15)
N1 N2 C3 113.16(15)
N1 N2 C4 120.19(15)
C3 N2 C4 126.58(16)
C4 N3 C5 115.53(17)
C4 N4 C7 114.93(16)
O1 N5 O2 124.48(16)
O1 N5 C1 116.94(16)
O2 N5 C1 118.58(16)
loop_
_geom_bond_atom_site_label_1
_geom_bond_atom_site_label_2
_geom_bond_distance
C1 N1 1.319(2)
C1 C2 1.403(3)
C1 N5 1.448(2)
C2 C3 1.364(3)
C2 H2 0.9500
C3 N2 1.375(2)
C3 H3 0.9500
C4 N3 1.325(2)
C4 N4 1.327(2)
C4 N2 1.419(2)
C5 N3 1.337(3)
C5 C6 1.380(3)
C5 H5 0.9500
C6 C7 1.381(3)
C6 Br1 1.8805(19)
C7 N4 1.337(2)
C7 H7 0.9500
N1 N2 1.353(2)
N5 O1 1.227(2)
N5 O2 1.231(2)
loop_
_geom_torsion_atom_site_label_1
_geom_torsion_atom_site_label_2
_geom_torsion_atom_site_label_3
_geom_torsion_atom_site_label_4
_geom_torsion
N1 C1 C2 C3 -0.6(2)
N5 C1 C2 C3 177.55(18)
C1 C2 C3 N2 0.6(2)
N3 C5 C6 C7 0.9(3)
N3 C5 C6 Br1 -178.98(14)
C5 C6 C7 N4 -0.6(3)
Br1 C6 C7 N4 179.31(15)
C2 C1 N1 N2 0.4(2)
N5 C1 N1 N2 -177.92(16)
C1 N1 N2 C3 0.0(2)
C1 N1 N2 C4 177.20(16)
C2 C3 N2 N1 -0.4(2)
C2 C3 N2 C4 -177.36(17)
N3 C4 N2 N1 -162.94(16)
N4 C4 N2 N1 16.4(2)
N3 C4 N2 C3 13.8(3)
N4 C4 N2 C3 -166.77(17)
N4 C4 N3 C5 -0.8(3)
N2 C4 N3 C5 178.55(16)
C6 C5 N3 C4 -0.3(3)
N3 C4 N4 C7 1.1(3)
N2 C4 N4 C7 -178.23(16)
C6 C7 N4 C4 -0.3(3)
N1 C1 N5 O1 -175.10(17)
C2 C1 N5 O1 6.8(3)
N1 C1 N5 O2 5.7(3)
C2 C1 N5 O2 -172.36(18)
