#------------------------------------------------------------------------------
#$Date: 2017-08-05 21:48:41 +0300 (Sat, 05 Aug 2017) $
#$Revision: 199583 $
#$URL: file:///home/coder/svn-repositories/cod/cif/4/03/25/4032589.cif $
#------------------------------------------------------------------------------
#
# This file is available in the Crystallography Open Database (COD),
# http://www.crystallography.net/
#
# All data on this site have been placed in the public domain by the
# contributors.
#
data_4032589
loop_
_publ_author_name
'Chan, Chieh-Kai'
'Hsueh, Nai-Chen'
'Tsai, Yu-Lin'
'Chang, Meng-Yang'
_publ_section_title
;
 Bi(OTf)3-Mediated Intramolecular Olefinic Cyclization: Synthesis of
 Substituted Aryl-Dihydronaphthalenes and Indenes.
;
_journal_issue                   13
_journal_name_full               'The Journal of organic chemistry'
_journal_page_first              7077
_journal_page_last               7084
_journal_paper_doi               10.1021/acs.joc.7b01278
_journal_volume                  82
_journal_year                    2017
_chemical_formula_sum            'C18 H18 O2'
_chemical_formula_weight         266.32
_space_group_crystal_system      triclinic
_space_group_IT_number           2
_space_group_name_Hall           '-P 1'
_space_group_name_H-M_alt        'P -1'
_symmetry_space_group_name_Hall  '-P 1'
_symmetry_space_group_name_H-M   'P -1'
_atom_sites_solution_hydrogens   geom
_audit_creation_method           SHELXL-2014/6
_cell_angle_alpha                101.647(5)
_cell_angle_beta                 105.413(5)
_cell_angle_gamma                103.993(5)
_cell_formula_units_Z            2
_cell_length_a                   7.0295(6)
_cell_length_b                   9.8296(8)
_cell_length_c                   11.7070(9)
_cell_measurement_reflns_used    1646
_cell_measurement_temperature    296(2)
_cell_measurement_theta_max      23.7920
_cell_measurement_theta_min      2.4737
_cell_volume                     725.41(11)
_computing_cell_refinement       'SAINT V8.34A (Bruker AXS Inc., 2013)'
_computing_data_collection       'Bruker APEX2'
_computing_data_reduction        'SAINT V8.34A (Bruker AXS Inc., 2013)'
_computing_molecular_graphics    'Bruker SHELXTL'
_computing_publication_material  'Bruker SHELXTL'
_computing_structure_refinement  'SHELXL-2014/6 (Sheldrick, 2014)'
_diffrn_ambient_temperature      296(2)
_diffrn_detector_area_resol_mean 8.3333
_diffrn_measured_fraction_theta_full 0.957
_diffrn_measured_fraction_theta_max 0.946
_diffrn_measurement_device_type  'Bruker APEX-II CCD'
_diffrn_measurement_method       '\f and \w scans'
_diffrn_radiation_type           MoK\a
_diffrn_radiation_wavelength     0.71073
_diffrn_reflns_av_R_equivalents  0.0282
_diffrn_reflns_av_unetI/netI     0.0362
_diffrn_reflns_Laue_measured_fraction_full 0.957
_diffrn_reflns_Laue_measured_fraction_max 0.946
_diffrn_reflns_limit_h_max       8
_diffrn_reflns_limit_h_min       -8
_diffrn_reflns_limit_k_max       12
_diffrn_reflns_limit_k_min       -12
_diffrn_reflns_limit_l_max       14
_diffrn_reflns_limit_l_min       -14
_diffrn_reflns_number            7590
_diffrn_reflns_point_group_measured_fraction_full 0.957
_diffrn_reflns_point_group_measured_fraction_max 0.946
_diffrn_reflns_theta_full        25.242
_diffrn_reflns_theta_max         26.492
_diffrn_reflns_theta_min         1.882
_exptl_absorpt_coefficient_mu    0.078
_exptl_absorpt_correction_T_max  0.9485
_exptl_absorpt_correction_T_min  0.8742
_exptl_absorpt_correction_type   multi-scan
_exptl_absorpt_process_details   'SADABS V2014/4 (Bruker AXS Inc.)'
_exptl_crystal_colour            Colorless
_exptl_crystal_density_diffrn    1.219
_exptl_crystal_density_meas      ?
_exptl_crystal_density_method    'not measured'
_exptl_crystal_description       Lump
_exptl_crystal_F_000             284
_exptl_crystal_size_max          0.20
_exptl_crystal_size_mid          0.15
_exptl_crystal_size_min          0.15
_refine_diff_density_max         0.610
_refine_diff_density_min         -0.567
_refine_diff_density_rms         0.223
_refine_ls_extinction_coef       0.26(3)
_refine_ls_extinction_expression Fc^*^=kFc[1+0.001xFc^2^\l^3^/sin(2\q)]^-1/4^
_refine_ls_extinction_method     SHELXL
_refine_ls_goodness_of_fit_ref   1.131
_refine_ls_hydrogen_treatment    constr
_refine_ls_matrix_type           full
_refine_ls_number_parameters     185
_refine_ls_number_reflns         2832
_refine_ls_number_restraints     0
_refine_ls_restrained_S_all      1.131
_refine_ls_R_factor_all          0.0935
_refine_ls_R_factor_gt           0.0596
_refine_ls_shift/su_max          0.000
_refine_ls_shift/su_mean         0.000
_refine_ls_structure_factor_coef Fsqd
_refine_ls_weighting_details
'w=1/[\s^2^(Fo^2^)+(0.0998P)^2^+0.0265P] where P=(Fo^2^+2Fc^2^)/3'
_refine_ls_weighting_scheme      calc
_refine_ls_wR_factor_gt          0.1507
_refine_ls_wR_factor_ref         0.1873
_reflns_Friedel_coverage         0.000
_reflns_number_gt                1949
_reflns_number_total             2832
_reflns_threshold_expression     'I > 2\s(I)'
_cod_data_source_file            jo7b01278_si_002.cif
_cod_data_source_block           161045_0m_compound_6a
_cod_depositor_comments
;
The following automatic conversions were performed:

'_exptl_crystal_density_meas' value 'not measured' was changed to '?'
- the value is perceived as not measured.

Automatic conversion script
Id: cif_fix_values 4973 2017-02-22 13:04:09Z antanas 

 Adding full bibliography for 4032587--4032592.cif.
;
_cod_database_code               4032589
_shelx_space_group_comment
;
The symmetry employed for this shelxl refinement is uniquely defined
by the following loop, which should always be used as a source of
symmetry information in preference to the above space-group names.
They are only intended as comments.
;
_shelxl_version_number           2014/6
_shelx_res_file
;
TITL 161045_0m in P-1
CELL 0.71073 7.0295 9.8296 11.7070 101.647 105.413 103.993
ZERR 2.00 0.0006 0.0008 0.0009 0.005 0.005 0.005
LATT 1
SFAC C  H  O
UNIT 36  36  4
L.S. 4
ACTA
BOND $H
FMAP 2
PLAN 5
TEMP 23.000
WGHT    0.099800    0.026500
EXTI    0.261679
FVAR       1.54903
O1    3    0.018419    0.775410    0.592791    11.00000    0.08118    0.08617 =
         0.04450    0.02253    0.01268    0.03537
O2    3    0.364496    0.701139    0.656648    11.00000    0.09820    0.07253 =
         0.05663    0.02510    0.04788    0.03990
C1    1   -0.151808    0.828063    0.556185    11.00000    0.09722    0.10534 =
         0.06022    0.03214    0.00561    0.05094
AFIX 137
H18   2   -0.264738    0.776788    0.578442    11.00000   -1.50000
H3    2   -0.195263    0.812392    0.468309    11.00000   -1.50000
H1    2   -0.110980    0.930752    0.596952    11.00000   -1.50000
AFIX   0
C2    1    0.106639    0.791645    0.716003    11.00000    0.05683    0.04950 =
         0.04194    0.01924    0.01580    0.01720
C3    1    0.284625    0.748650    0.747304    11.00000    0.05815    0.04559 =
         0.04274    0.01639    0.02572    0.01842
C4    1    0.384441    0.762367    0.870340    11.00000    0.04808    0.04124 =
         0.04611    0.01938    0.02406    0.01729
C5    1    0.308977    0.821231    0.962198    11.00000    0.04672    0.03719 =
         0.04261    0.01690    0.01975    0.01472
C6    1    0.456547    0.833918    1.087137    11.00000    0.04545    0.03927 =
         0.04496    0.01501    0.01656    0.01324
AFIX  13
H7    2    0.529599    0.938059    1.128760    11.00000   -1.20000
AFIX   0
C7    1    0.360999    0.769635    1.173505    11.00000    0.04278    0.04917 =
         0.04112    0.01925    0.01451    0.02043
C8    1    0.385173    0.854982    1.289285    11.00000    0.06111    0.07344 =
         0.04314    0.01149    0.01543    0.01963
AFIX  43
H11   2    0.458367    0.954258    1.313884    11.00000   -1.20000
AFIX   0
C9    1    0.301687    0.794123    1.368508    11.00000    0.07489    0.13363 =
         0.04539    0.03335    0.02611    0.03918
AFIX  43
H10   2    0.320261    0.852352    1.446338    11.00000   -1.20000
AFIX   0
C10   1    0.192977    0.650167    1.333454    11.00000    0.06710    0.14139 =
         0.07396    0.07362    0.03900    0.04700
AFIX  43
H2    2    0.136787    0.609977    1.387195    11.00000   -1.20000
AFIX   0
C11   1    0.031525    0.847239    0.807446    11.00000    0.05138    0.05458 =
         0.05528    0.02318    0.01989    0.02596
AFIX  43
H17   2   -0.087948    0.874588    0.786048    11.00000   -1.20000
AFIX   0
C12   1    0.133317    0.862286    0.930434    11.00000    0.05416    0.04767 =
         0.04827    0.01752    0.02535    0.02290
AFIX  43
H16   2    0.082650    0.900132    0.991298    11.00000   -1.20000
AFIX   0
C13   1    0.343185    0.552417    0.624571    11.00000    0.11507    0.07794 =
         0.07301    0.01556    0.05046    0.04465
AFIX 137
H6    2    0.382336    0.522456    0.698227    11.00000   -1.50000
H4    2    0.431304    0.534673    0.576943    11.00000   -1.50000
H5    2    0.201237    0.497699    0.576453    11.00000   -1.50000
AFIX   0
C14   1    0.570326    0.728991    0.930009    11.00000    0.05094    0.05770 =
         0.05609    0.02257    0.02770    0.02461
AFIX  43
H15   2    0.648937    0.688468    0.888989    11.00000   -1.20000
AFIX   0
C15   1    0.611498    0.765014    1.052151    11.00000    0.04262    0.05395 =
         0.05720    0.02442    0.01972    0.01706
C16   1    0.165261    0.563245    1.219050    11.00000    0.06707    0.07644 =
         0.09795    0.05716    0.03932    0.02939
AFIX  43
H9    2    0.090163    0.464394    1.195265    11.00000   -1.20000
AFIX   0
C17   1    0.249250    0.622812    1.138882    11.00000    0.06086    0.05215 =
         0.06262    0.02368    0.02769    0.02087
AFIX  43
H8    2    0.230301    0.563647    1.061353    11.00000   -1.20000
AFIX   0
C18   1    0.783046    0.746898    1.147824    11.00000    0.05330    0.09368 =
         0.07290    0.03881    0.01892    0.03235
AFIX 137
H14   2    0.878085    0.716983    1.110533    11.00000   -1.50000
H13   2    0.726867    0.673846    1.183752    11.00000   -1.50000
H12   2    0.855045    0.838159    1.211014    11.00000   -1.50000
AFIX   0
HKLF 4 1 1 0 0 0 1 0 0 0 1

REM  161045_0m in P-1
REM R1 =  0.0596 for    1949 Fo > 4sig(Fo)  and  0.0935 for all    2832 data
REM    185 parameters refined using      0 restraints

END

WGHT      0.0998      0.0265

REM Highest difference peak  0.610,  deepest hole -0.567,  1-sigma level  0.223
Q1    1   0.2728  0.5023  0.6758  11.00000  0.05    0.61
Q2    1   0.3071  0.5109  0.5470  11.00000  0.05    0.58
Q3    1   0.0000  1.0000  0.5000  10.50000  0.05    0.49
Q4    1   0.1555  0.5037  0.5806  11.00000  0.05    0.48
Q5    1   0.5000  1.0000  1.5000  10.50000  0.05    0.46
;
_shelx_res_checksum              54527
_shelx_hkl_file
;
  -1   0   0 506.726 12.2070   1
  -1   0   0 393.471 11.3560   3
  -1   0   0 380.460 11.6265   1
   1   0   0 517.368 12.1117   1
   1   0   0 497.879 11.6555   3
  -2   0   0 763.314 21.2586   1
  -2   0   0 780.706 20.0344   3
  -2   0   0 781.658 20.6416   1
   2   0   0 784.927 21.0081   1
   2   0   0 801.197 20.8919   1
   2   0   0 763.215 20.1562   3
  -3   0   0 588.926 18.0888   1
   3   0   0 606.058 18.2945   1
   3   0   0 610.253 18.8848   1
   3   0   0 607.772 17.7528   3
  -4   0   0 383.655 14.2057   1
   4   0   0 376.134 13.9666   1
   4   0   0 380.494 13.7473   3
   4   0   0 350.133 14.6601   1
  -5   0   0 110.289 9.53764   1
   5   0   0 100.025 7.06246   3
   5   0   0 101.533 8.73736   1
   5   0   0 88.5451 8.95766   1
  -6   0   0 5.87868 3.15092   1
   6   0   0 -0.1415 2.01855   2
   6   0   0 6.67901 3.01497   1
   6   0   0 3.46901 2.34759   3
  -7   0   0 4.15496 3.21573   1
   7   0   0 0.49233 2.41999   1
   7   0   0 10.0129 3.70493   2
   8   0   0 4.92478 3.78445   1
   8   0   0 4.99926 3.46370   2
   8  -1   0 -0.1861 3.27578   2
   8  -1   0 -1.7729 2.80922   1
  -8   1   0 -3.9888 2.56399   1
   7  -1   0 2.30817 3.03878   2
   7  -1   0 0.60339 2.28174   1
  -7   1   0 -0.8887 2.72510   1
   6  -1   0 2.13970 2.25225   1
   6  -1   0 -0.4159 1.78977   3
  -6   1   0 1.18819 2.64595   1
   5  -1   0 0.69393 1.65510   3
   5  -1   0 1.17651 1.63251   1
  -5   1   0 0.88515 1.76188   1
   4  -1   0 943.328 27.1975   1
   4  -1   0 840.329 27.3475   1
   4  -1   0 913.644 26.1684   3
  -4   1   0 898.892 26.6155   1
   3  -1   0 77.1095 5.40008   1
   3  -1   0 76.8443 4.76645   3
   3  -1   0 80.8938 5.32643   1
  -3   1   0 90.9286 5.47128   1
   2  -1   0 4940.95 114.319   3
   2  -1   0 5120.80 115.436   1
   2  -1   0 5033.48 115.569   1
  -2   1   0 5031.68 116.165   1
  -2   1   0 5112.54 114.957   1
   1  -1   0 7356.77 164.067   1
  -1   1   0 7282.98 164.317   1
  -1  -1   0 8671.53 195.787   2
  -1  -1   0 8866.02 194.996   1
  -2  -1   0 2.32914 1.07620   1
  -2  -1   0 0.01934 0.64540   3
  -2  -1   0 2.13839 1.10943   1
   2   1   0 2.85629 1.03710   3
   2   1   0 1.84082 1.05077   1
   2   1   0 1.27040 0.81670   1
   2   1   0 2.08935 1.05657   2
  -3  -1   0 272.450 10.4145   1
   3   1   0 265.600 9.99507   1
   3   1   0 274.239 9.90620   3
   3   1   0 272.767 10.7953   1
   3   1   0 279.883 10.6858   2
  -4  -1   0 331.693 13.1788   1
   4   1   0 333.773 12.7201   1
   4   1   0 315.873 13.6039   1
   4   1   0 349.508 12.8121   3
   4   1   0 331.873 13.3315   2
  -5  -1   0 72.4407 7.40280   1
   5   1   0 62.9506 6.71099   3
   5   1   0 62.7300 6.64006   1
   5   1   0 59.4698 7.36195   1
   5   1   0 64.6700 7.28423   2
  -6  -1   0 0.67594 2.32179   1
   6   1   0 -0.6552 1.74426   1
   6   1   0 1.96651 2.22510   2
   7   1   0 9.76263 3.84124   2
   8  -2   0 8.36632 4.18538   1
  -8   2   0 1.77400 3.78025   1
   7  -2   0 6.66135 3.28194   1
   7  -2   0 4.38907 3.27947   3
  -7   2   0 3.75935 3.48500   1
   6  -2   0 61.8541 8.15678   1
   6  -2   0 80.7903 8.70456   3
  -6   2   0 73.5845 8.51686   1
   5  -2   0 238.808 11.5995   3
   5  -2   0 238.569 12.2331   1
  -5   2   0 244.215 12.0378   1
   4  -2   0 26.9237 4.38678   1
   4  -2   0 35.4699 4.74006   3
  -4   2   0 40.7033 5.37979   1
   3  -2   0 4200.46 99.3689   1
   3  -2   0 4166.49 97.5625   3
   3  -2   0 4213.90 99.2966   1
  -3   2   0 4252.38 100.665   1
  -3   2   0 4148.62 98.2685   1
   2  -2   0 616.950 18.3775   1
   2  -2   0 626.058 16.9597   3
   2  -2   0 611.982 17.8847   1
  -2   2   0 603.577 17.4436   1
  -2   2   0 603.634 18.4682   1
   1  -2   0 1175.77 29.4532   1
   1  -2   0 1190.00 28.7359   3
   1  -2   0 1226.20 29.9588   1
  -1   2   0 1217.44 29.3150   1
  -1   2   0 1227.89 29.7996   1
   0   2   0 -0.8888 0.15556   3
   0   2   0 -0.8616 0.14855   1
  -1  -2   0 222.249 7.68965   2
  -1  -2   0 208.965 6.63341   1
  -1  -2   0 218.436 6.41862   3
  -1  -2   0 216.835 7.02090   3
   1   2   0 221.202 6.89497   1
   1   2   0 230.951 7.46499   2
  -2  -2   0 176.292 6.41074   3
  -2  -2   0 170.232 6.62674   1
  -2  -2   0 168.889 7.54876   2
   2   2   0 178.859 7.23366   2
   2   2   0 174.545 6.90012   1
   2   2   0 167.458 6.24432   3
  -3  -2   0 26.3620 3.54811   1
   3   2   0 25.6856 3.41178   3
   3   2   0 22.9650 3.45713   2
   3   2   0 25.6418 3.63873   1
  -4  -2   0 269.530 11.2376   1
   4   2   0 261.072 11.8652   1
   4   2   0 253.723 10.5672   3
   4   2   0 246.225 11.3417   2
  -5  -2   0 6.61242 2.78576   1
   5   2   0 13.6048 3.58400   2
  -6  -2   0 -1.5791 1.92077   1
   6   2   0 1.55704 2.53801   2
   7   2   0 1.85886 2.74163   2
   8  -3   0 1.43877 2.84383   1
  -8   3   0 0.22281 3.35445   1
   7  -3   0 21.8285 5.93736   1
   7  -3   0 15.3835 4.77349   3
  -7   3   0 18.5520 5.21984   1
   6  -3   0 83.2427 9.36601   3
   6  -3   0 78.3598 9.19331   1
  -6   3   0 59.2995 7.83539   1
   5  -3   0 3.69035 2.52304   1
   5  -3   0 5.69505 2.65650   3
  -5   3   0 5.48119 2.67169   1
   4  -3   0 1692.33 44.4135   3
   4  -3   0 1642.77 46.1319   1
  -4   3   0 1730.10 45.1739   1
   3  -3   0 27.5246 4.24543   1
   3  -3   0 33.1396 3.82739   3
  -3   3   0 31.2563 3.95139   1
  -3   3   0 26.6552 4.18829   1
   2  -3   0 1360.73 35.7651   1
   2  -3   0 1412.12 34.7003   3
   2  -3   0 1396.58 36.5341   1
  -2   3   0 1395.08 36.5305   1
  -2   3   0 1390.85 35.3300   1
   1  -3   0 950.690 24.6549   1
   1  -3   0 958.229 25.1239   1
   1  -3   0 944.201 23.8625   3
  -1   3   0 963.633 24.3291   1
  -1   3   0 963.448 24.4648   1
   0  -3   0 5489.03 124.135   2
   0  -3   0 5564.75 123.422   1
   0  -3   0 5452.29 122.993   3
   0  -3   0 5524.85 123.201   3
   0  -3   0 5338.66 123.580   1
   0   3   0 5584.96 123.320   1
  -1  -3   0 4.67292 1.29285   3
  -1  -3   0 4.19768 1.18549   1
  -1  -3   0 4.02342 1.43613   2
  -1  -3   0 3.53533 0.98475   3
   1   3   0 4.53123 0.90241   3
   1   3   0 4.43019 1.36081   2
   1   3   0 3.54527 1.10807   1
  -2  -3   0 2.77791 1.18007   1
  -2  -3   0 2.09718 1.15085   3
   2   3   0 -0.5277 0.44863   1
   2   3   0 -0.3485 0.41960   3
   2   3   0 2.80946 1.07506   1
   2   3   0 2.39465 1.30452   2
  -3  -3   0 110.889 6.06744   1
  -3  -3   0 94.3412 5.30256   3
   3   3   0 104.878 6.30170   2
   3   3   0 98.5406 5.94296   1
   3   3   0 104.443 5.88909   1
   3   3   0 96.2495 5.21618   3
  -4  -3   0 72.6235 6.84378   1
   4   3   0 56.2947 6.31945   1
   4   3   0 68.7099 6.10736   3
   4   3   0 66.9232 6.40908   1
   4   3   0 73.6687 7.11151   2
  -5  -3   0 36.7895 5.49693   1
   5   3   0 47.0104 6.26255   2
   6   3   0 8.10545 3.09807   2
   6   3   0 6.58639 2.71290   1
   7   3   0 6.06657 3.27811   1
   7   3   0 5.91954 3.42330   2
   8  -4   0 1.34998 3.59796   1
   8  -4   0 1.79813 3.59784   3
  -8   4   0 -1.0422 3.03192   1
   7  -4   0 0.51950 2.73540   1
   7  -4   0 5.82322 3.36094   3
  -7   4   0 3.80861 3.43315   1
   6  -4   0 55.2635 8.00398   1
   6  -4   0 63.4965 8.06312   3
  -6   4   0 71.7294 8.33568   1
   5  -4   0 122.409 8.35000   3
   5  -4   0 132.403 11.7677   1
  -5   4   0 129.120 8.82561   1
   4  -4   0 11.7147 2.96989   3
   4  -4   0 13.7965 3.65608   1
  -4   4   0 13.2741 4.22311   1
  -4   4   0 12.5781 3.20150   1
   3  -4   0 1765.33 43.6215   3
   3  -4   0 1633.15 45.6809   1
  -3   4   0 1664.55 45.9324   1
  -3   4   0 1723.97 44.1222   1
   2  -4   0 67.9106 4.30998   3
   2  -4   0 66.1670 6.18190   1
  -2   4   0 69.0272 6.07993   1
  -2   4   0 67.0473 4.48002   1
   1  -4   0 42.0891 4.35830   1
   1  -4   0 32.2259 3.22235   3
  -1   4   0 38.2496 3.57678   1
   0  -4   0 651.673 17.4794   3
   0  -4   0 649.724 17.8713   1
   0   4   0 664.159 16.4085   1
   0   4   0 651.156 17.3930   1
   0   4   0 635.734 15.8458   3
  -1  -4   0 1814.34 44.3301   3
  -1  -4   0 1826.36 43.9526   1
  -1  -4   0 1819.52 43.5018   3
   1   4   0 1828.32 43.8173   1
   1   4   0 1876.56 43.1006   1
  -2  -4   0 28.1853 3.31063   1
  -2  -4   0 32.6833 3.48804   3
   2   4   0 42.1633 3.95656   1
   2   4   0 35.6974 4.12978   2
   2   4   0 37.3568 2.59783   3
   2   4   0 40.3357 3.91221   1
  -3  -4   0 37.6473 4.18642   3
  -3  -4   0 37.8023 4.36821   1
   3   4   0 38.0660 4.07474   1
   3   4   0 35.7606 4.77326   2
   3   4   0 45.6143 4.24652   3
  -4  -4   0 76.1001 7.20207   1
   4   4   0 64.4917 6.17650   1
   4   4   0 75.4588 7.44011   2
   5   4   0 2.40570 1.85321   1
   5   4   0 5.57599 2.81938   2
   6   4   0 4.74479 2.40732   1
   6   4   0 1.73280 2.54462   2
   8  -5   0 -1.5475 3.00269   3
   8  -5   0 -0.3509 3.71730   1
  -8   5   0 -2.3369 2.47031   1
   7  -5   0 -0.8133 2.45656   3
   7  -5   0 0.40339 2.69966   1
  -7   5   0 6.19671 3.53946   1
   6  -5   0 12.6188 4.52388   1
   6  -5   0 12.5222 3.99626   3
  -6   5   0 20.4320 4.84786   1
   5  -5   0 134.652 8.98129   3
   5  -5   0 133.825 12.4682   1
  -5   5   0 125.033 11.0279   1
   4  -5   0 56.3428 7.34279   1
   4  -5   0 65.2518 6.84758   3
  -4   5   0 70.8744 7.14988   1
  -4   5   0 58.5315 7.57420   1
   3  -5   0 83.4328 8.26516   1
   3  -5   0 87.3479 7.33606   3
  -3   5   0 75.4316 7.68588   1
  -3   5   0 91.5281 6.17676   1
   2  -5   0 3.24778 1.73194   1
   2  -5   0 2.12913 1.37631   3
  -2   5   0 4.07383 1.65981   1
  -2   5   0 8.37513 2.18969   1
   1  -5   0 189.766 7.60319   3
   1  -5   0 189.192 8.54796   1
  -1   5   0 166.958 6.28379   3
  -1   5   0 185.207 7.47329   1
   0  -5   0 621.638 18.3306   1
   0  -5   0 632.313 17.9092   3
   0   5   0 630.098 16.0943   1
   0   5   0 616.541 17.2987   1
  -1  -5   0 8.46310 1.91432   3
  -1  -5   0 10.8512 2.22722   1
  -1  -5   0 8.59220 2.11934   3
   1   5   0 10.5612 1.93401   1
   1   5   0 8.18837 1.56366   1
  -2  -5   0 12.1185 2.45964   3
  -2  -5   0 15.4758 3.20120   3
  -2  -5   0 11.2117 2.46623   1
   2   5   0 9.22283 2.05763   1
   2   5   0 10.5634 2.06904   1
  -3  -5   0 0.42741 1.58381   1
   3   5   0 -1.0327 1.04321   1
   3   5   0 0.08737 1.30988   2
   3   5   0 0.30417 1.38888   1
   4   5   0 39.1152 5.53752   2
   4   5   0 42.9864 5.22356   1
   5   5   0 52.9938 7.06983   2
   5   5   0 38.0547 5.44035   1
   6   5   0 0.76644 2.16708   1
   6   5   0 0.54409 2.32694   2
   8  -6   0 3.24137 4.26201   1
   8  -6   0 2.92893 3.45970   3
  -8   6   0 4.52908 4.47419   1
   7  -6   0 20.6414 5.55078   3
   7  -6   0 13.8634 5.44219   1
  -7   6   0 16.0284 4.82090   1
   6  -6   0 62.0902 9.18990   1
   6  -6   0 46.8991 7.16140   3
  -6   6   0 59.7361 8.05304   1
   5  -6   0 350.561 17.8547   1
   5  -6   0 350.141 16.0366   3
  -5   6   0 359.280 16.0951   1
   4  -6   0 1.24521 2.44139   1
   4  -6   0 -0.6915 1.51311   3
  -4   6   0 -1.1463 1.74786   1
  -4   6   0 0.80943 1.86804   1
   3  -6   0 1.83923 1.59115   3
   3  -6   0 2.55877 2.46401   1
  -3   6   0 3.00318 1.89054   1
  -3   6   0 4.28376 2.19519   1
   2  -6   0 4.36455 2.22948   1
   2  -6   0 2.77060 1.49660   3
  -2   6   0 2.46241 1.50963   1
  -2   6   0 1.94564 1.51629   1
   1  -6   0 26.9121 3.71364   3
   1  -6   0 15.5494 3.23940   1
  -1   6   0 19.6447 2.88581   1
  -1   6   0 19.5139 2.53679   1
  -1   6   0 18.0146 2.25472   3
   0  -6   0 38.8653 4.50465   1
   0  -6   0 45.9651 4.59513   3
   0   6   0 36.4794 2.58440   1
   0   6   0 55.3918 3.64054   1
  -1  -6   0 32.9676 4.28588   3
  -1  -6   0 46.2929 4.62860   3
  -1  -6   0 38.1414 4.40216   1
   1   6   0 38.6158 3.18593   1
   1   6   0 35.8259 3.63171   1
  -2  -6   0 25.2754 4.05501   3
  -2  -6   0 10.7672 2.96178   1
   2   6   0 19.8119 2.87681   1
   2   6   0 20.9978 2.82981   1
   3   6   0 33.1077 4.27538   1
   3   6   0 39.3768 4.32881   1
   4   6   0 10.9212 3.28238   2
   4   6   0 15.1380 3.15884   1
   5   6   0 -1.0862 2.18638   2
   5   6   0 2.94469 2.35368   1
   8  -7   0 4.39543 4.70333   1
   8  -7   0 0.24965 2.63254   3
  -8   7   0 -3.4132 2.90950   1
   7  -7   0 -1.6538 3.40526   1
   7  -7   0 1.46942 2.82866   3
  -7   7   0 -4.2261 2.31289   1
   6  -7   0 10.7536 4.97609   1
   6  -7   0 5.12622 3.05449   3
  -6   7   0 8.28873 3.69359   1
   5  -7   0 0.35477 1.81240   3
   5  -7   0 6.17311 3.76297   1
  -5   7   0 6.55375 3.35617   1
   4  -7   0 3.00012 2.89215   1
   4  -7   0 1.34368 2.18833   3
  -4   7   0 5.25822 3.46803   1
  -4   7   0 5.98392 2.64773   1
   3  -7   0 127.758 11.5576   1
   3  -7   0 124.192 7.83930   3
  -3   7   0 126.955 8.06130   1
  -3   7   0 127.540 7.77345   1
   2  -7   0 126.581 7.44327   3
   2  -7   0 131.186 8.96625   1
  -2   7   0 130.443 7.12011   1
   1  -7   0 56.4041 6.63266   1
   1  -7   0 47.2197 5.27294   3
  -1   7   0 57.6893 4.91932   1
  -1   7   0 50.9309 3.49944   1
   0  -7   0 23.2826 3.47015   3
   0  -7   0 16.8769 3.57415   1
   0   7   0 13.7055 1.86621   1
   0   7   0 24.2880 2.87631   1
  -1  -7   0 -1.5886 1.87550   1
  -1  -7   0 -0.5571 1.60655   3
   1   7   0 0.60273 1.01791   1
   1   7   0 -1.4681 0.92525   1
  -2  -7   0 2.66966 1.53040   3
   2   7   0 1.40776 1.30128   1
   2   7   0 1.24451 1.27375   1
   3   7   0 -0.0075 1.28660   1
   4   7   0 -0.0267 1.59476   1
   5   7   0 3.04170 2.31071   1
   7  -8   0 11.5939 5.03372   1
   7  -8   0 5.94500 4.02748   3
  -7   8   0 1.43308 3.39767   1
   6  -8   0 55.9645 8.39394   3
   6  -8   0 36.5757 7.75359   1
  -6   8   0 36.7238 6.78275   1
   5  -8   0 18.8513 4.89362   3
   5  -8   0 25.4178 6.42838   1
  -5   8   0 24.2684 5.14197   1
   4  -8   0 3.72078 2.36828   3
   4  -8   0 2.43741 2.80743   1
  -4   8   0 -1.0836 1.75624   1
   3  -8   0 3.63792 2.75142   1
   3  -8   0 5.31125 2.52953   3
  -3   8   0 8.68623 2.70727   1
   2  -8   0 3.74572 2.87495   1
   2  -8   0 6.17593 2.56834   3
  -2   8   0 2.94221 1.63877   1
  -2   8   0 4.09050 2.03613   1
   1  -8   0 3.83069 2.78302   1
   1  -8   0 -0.6427 1.49736   3
  -1   8   0 -1.1440 1.10916   1
  -1   8   0 0.67688 1.35344   1
   0  -8   0 33.5568 4.74338   3
   0   8   0 27.0466 2.42260   1
   0   8   0 28.9918 2.87941   1
  -1  -8   0 -0.0900 1.47963   3
  -2  -8   0 2.76984 2.11142   3
   7  -9   0 14.5165 5.29308   3
  -7   9   0 16.9933 5.48130   1
   6  -9   0 7.93004 4.15116   3
  -6   9   0 5.66969 3.35536   1
   5  -9   0 7.33157 3.43348   3
  -5   9   0 6.41262 3.80900   1
   4  -9   0 67.7981 8.18610   3
  -4   9   0 78.7106 7.96478   1
   3  -9   0 17.0836 4.24397   3
  -3   9   0 11.7572 2.99895   1
   2  -9   0 2.59316 2.20038   3
  -2   9   0 2.52257 1.95892   1
   1  -9   0 -1.0365 1.64190   3
  -1   9   0 -0.0976 1.37530   1
  -1   9   0 0.66584 1.05893   1
   0  -9   0 4.81357 2.36362   3
  -1  -9   0 20.8190 4.08587   3
  -2  -9   0 -0.6020 1.97684   3
   6 -10   0 7.65011 4.12226   3
  -6  10   0 14.7458 5.01603   1
   5 -10   0 -1.3611 1.86748   3
  -5  10   0 -0.0153 2.69185   1
   4 -10   0 11.2314 4.52070   3
  -4  10   0 5.41619 2.84518   1
   3 -10   0 47.1208 6.92266   3
  -3  10   0 59.6210 6.03735   1
   2 -10   0 9.28171 3.34560   3
  -2  10   0 10.9804 2.52498   1
   1 -10   0 2.26015 2.23318   3
   0 -10   0 54.7831 6.80700   3
  -1 -10   0 6.06690 2.89488   3
   5 -11   0 10.9380 4.81166   3
  -5  11   0 5.66401 3.40762   1
   4 -11   0 30.8825 6.33956   3
  -4  11   0 30.9630 5.08845   1
   3 -11   0 4.07349 3.21489   3
  -3  11   0 2.03584 2.26589   1
   2 -11   0 25.5956 5.55075   3
   1 -11   0 5.99212 3.68516   3
   0 -11   0 2.41749 2.61471   3
   3 -12   0 24.8229 5.72793   3
  -2  12  -1 -2.5854 1.95790   1
   2 -12   1 3.77583 2.90082   3
  -3  12  -1 2.59495 2.89829   1
   3 -12   1 -1.5405 2.20258   3
  -4  12  -1 7.01858 3.90599   1
  -1 -11   1 -2.3067 2.82938   3
   0 -11   1 2.76800 2.87199   3
  -1  11  -1 1.38325 1.78346   1
   1 -11   1 4.14156 3.11554   3
  -2  11  -1 3.86923 2.66880   1
   2 -11   1 6.76495 3.36444   3
  -3  11  -1 1.74789 2.86118   1
   3 -11   1 6.30436 3.51856   3
  -4  11  -1 16.2904 4.26756   1
   4 -11   1 22.7040 5.76603   3
  -5  11  -1 8.51131 4.49257   1
   5 -11   1 20.2315 6.23751   3
  -2 -10   1 2.53102 2.96128   3
  -1 -10   1 -1.6304 2.85513   3
   0  10  -1 20.1827 3.16099   1
   0 -10   1 17.9826 4.34120   3
  -1  10  -1 16.5482 3.27478   1
   1 -10   1 15.3743 3.91947   3
  -2  10  -1 -0.6746 1.92803   1
   2 -10   1 -0.0154 2.26710   3
  -3  10  -1 2.29326 2.50240   1
   3 -10   1 1.82215 2.09475   3
  -4  10  -1 32.8177 5.92602   1
   4 -10   1 30.1829 6.21716   3
  -5  10  -1 15.4995 4.68608   1
   5 -10   1 24.8746 6.18358   3
  -6  10  -1 14.6177 5.30407   1
   6 -10   1 7.68752 4.05591   3
   2   9  -1 1.16229 1.83087   1
  -2  -9   1 12.8350 4.36928   3
   1   9  -1 1.63320 1.68059   1
  -1  -9   1 -0.3254 2.26200   3
   0   9  -1 35.7992 4.54476   1
   0  -9   1 25.4034 4.71052   3
  -1   9  -1 11.9177 3.10421   1
   1  -9   1 10.7122 3.47287   3
  -2   9  -1 15.5808 3.43872   1
   2  -9   1 12.8942 3.52213   3
  -3   9  -1 0.02403 1.77378   1
   3  -9   1 5.65357 3.73039   1
   3  -9   1 0.84727 1.77794   3
  -4   9  -1 79.5099 8.81851   1
   4  -9   1 65.0756 8.30252   3
   4  -9   1 59.3709 9.55791   1
  -5   9  -1 23.9993 5.48019   1
   5  -9   1 16.8775 6.40035   1
   5  -9   1 26.0844 5.75658   3
  -6   9  -1 -2.2883 3.00347   1
   6  -9   1 0.16162 2.36962   3
   6  -9   1 3.52703 5.22460   1
  -7   9  -1 -0.7960 3.12681   1
   7  -9   1 -1.0182 2.58469   3
   4   8  -1 1.63285 2.15919   1
   3   8  -1 3.93695 2.20343   1
   2   8  -1 -0.8343 1.54535   1
  -2  -8   1 1.98317 1.89352   3
   1   8  -1 0.75536 1.61320   1
   1   8  -1 -0.5741 1.30329   1
  -1  -8   1 -2.1897 1.53565   3
   0   8  -1 83.0487 5.74053   1
   0   8  -1 73.7505 4.62366   1
   0  -8   1 84.4233 8.53460   1
   0  -8   1 93.9118 8.46291   3
  -1   8  -1 19.6063 3.84163   1
  -1   8  -1 15.5320 2.82493   1
   1  -8   1 22.7069 4.83384   1
   1  -8   1 14.7414 3.46196   3
  -2   8  -1 21.3172 4.03755   1
  -2   8  -1 30.1227 4.46623   1
   2  -8   1 29.5766 5.84970   1
   2  -8   1 27.5727 4.68922   3
  -3   8  -1 -0.0606 1.95698   1
   3  -8   1 0.49526 1.56269   3
   3  -8   1 2.67951 2.55550   1
  -4   8  -1 157.804 10.2928   1
   4  -8   1 172.265 10.7653   3
   4  -8   1 157.985 14.3338   1
  -5   8  -1 54.2100 7.51331   1
   5  -8   1 56.9667 7.93686   3
   5  -8   1 54.2686 8.87779   1
  -6   8  -1 2.09056 3.13491   1
   6  -8   1 -0.7526 3.43701   1
   6  -8   1 2.99753 2.90030   3
  -7   8  -1 7.41544 4.14155   1
   7  -8   1 7.99340 4.48601   1
   7  -8   1 12.4617 5.04010   3
   5   7  -1 0.20711 2.36938   1
   4   7  -1 -0.1241 1.78114   1
   3   7  -1 7.61548 2.62317   1
   2   7  -1 9.05612 2.24648   1
   2   7  -1 8.86478 2.58491   1
  -2  -7   1 6.32236 2.75501   3
   1   7  -1 107.877 5.56711   1
   1   7  -1 119.817 6.73734   1
  -1  -7   1 112.601 7.71465   1
  -1  -7   1 122.931 7.49487   3
   0   7  -1 41.6613 3.79979   1
   0   7  -1 44.4853 5.06818   1
   0   7  -1 40.8263 3.46840   3
   0  -7   1 35.1512 4.68025   3
   0  -7   1 53.3582 6.29512   1
  -1   7  -1 203.098 9.42314   1
   1  -7   1 182.609 9.13683   3
   1  -7   1 175.496 10.2491   1
  -2   7  -1 8.65595 2.58684   1
  -2   7  -1 1.89584 1.95060   1
   2  -7   1 5.79078 2.25528   3
   2  -7   1 2.11369 2.53361   1
  -3   7  -1 208.607 10.7816   1
  -3   7  -1 180.113 10.5695   1
   3  -7   1 183.268 11.8202   1
  -4   7  -1 223.034 12.0476   1
   4  -7   1 194.454 13.0645   1
   4  -7   1 197.183 11.2930   3
  -5   7  -1 18.2314 4.65658   1
   5  -7   1 22.8649 5.41229   3
   5  -7   1 12.3046 5.14604   1
  -6   7  -1 46.5300 7.54631   1
   6  -7   1 60.6154 8.68450   3
   6  -7   1 69.2317 10.3053   1
  -7   7  -1 -1.6652 2.89111   1
   7  -7   1 -2.5087 3.69286   1
   7  -7   1 1.74769 3.33269   3
   5   6  -1 10.4561 3.67708   2
   5   6  -1 12.6938 3.50171   1
   4   6  -1 2.42981 2.06914   1
   3   6  -1 29.3566 4.32643   1
  -3  -6   1 27.0898 4.53733   1
   2   6  -1 66.6944 4.64594   1
   2   6  -1 66.8245 5.96236   1
  -2  -6   1 77.1314 7.25419   3
  -2  -6   1 65.1572 6.33301   1
  -2  -6   1 76.5836 8.49061   3
   1   6  -1 579.890 18.0010   1
   1   6  -1 578.701 15.6914   3
   1   6  -1 584.981 16.4940   1
  -1  -6   1 557.133 18.1771   3
  -1  -6   1 588.970 18.6933   3
  -1  -6   1 582.858 19.0444   1
   0   6  -1 221.592 9.38511   1
   0   6  -1 208.390 7.40874   3
   0  -6   1 226.425 10.2383   1
   0  -6   1 233.724 9.69406   3
  -1   6  -1 19.3341 3.29677   1
  -1   6  -1 14.5049 2.49360   3
  -1   6  -1 15.0352 2.73121   1
   1  -6   1 15.6111 3.44055   1
   1  -6   1 19.3190 3.29341   3
  -2   6  -1 1610.10 42.7601   1
  -2   6  -1 1541.06 42.4737   1
   2  -6   1 1639.65 45.1891   1
   2  -6   1 1638.31 42.3174   3
  -3   6  -1 7.18010 2.68662   1
  -3   6  -1 3.95706 2.35385   1
   3  -6   1 6.62320 2.85740   1
   3  -6   1 1.00362 1.34815   3
  -4   6  -1 211.662 12.8590   1
  -4   6  -1 212.440 11.6344   1
   4  -6   1 203.684 12.7594   1
   4  -6   1 226.063 11.4610   3
  -5   6  -1 187.308 11.3836   1
   5  -6   1 173.969 10.9067   3
   5  -6   1 166.125 14.6369   1
  -6   6  -1 -0.3049 2.51453   1
   6  -6   1 -1.0753 2.09126   3
   6  -6   1 0.37802 2.75841   1
  -7   6  -1 65.5366 9.40028   1
   7  -6   1 53.4090 8.73152   3
   7  -6   1 55.7502 9.63281   1
  -8   6  -1 0.02187 3.47667   1
   8  -6   1 -2.2635 3.00911   3
   8  -6   1 1.24218 3.52758   1
   6   5  -1 1.66232 2.27340   1
   6   5  -1 1.37749 2.22780   2
   5   5  -1 23.5303 4.54725   1
   5   5  -1 13.8084 3.53079   2
   4   5  -1 0.41963 1.47331   1
   4   5  -1 -0.9924 1.48991   2
  -4  -5   1 -0.5220 1.78818   1
   3   5  -1 2.22552 1.59786   1
   3   5  -1 -1.0524 0.87788   3
   3   5  -1 0.11897 1.46422   2
   3   5  -1 -0.1066 0.90245   1
  -3  -5   1 -1.3888 1.48533   1
   2   5  -1 168.379 8.03702   1
  -2  -5   1 161.759 8.39930   3
  -2  -5   1 166.718 8.10347   1
  -2  -5   1 164.857 7.69473   3
   1   5  -1 1146.06 29.2759   1
  -1  -5   1 1053.35 29.1546   1
  -1  -5   1 1060.73 28.6413   3
  -1  -5   1 1084.63 29.2236   3
   0   5  -1 221.856 8.91849   1
   0   5  -1 207.247 7.72859   1
   0  -5   1 220.087 8.81454   3
   0  -5   1 223.762 9.35559   1
  -1   5  -1 969.657 26.0101   1
  -1   5  -1 909.542 25.1582   1
   1  -5   1 857.483 26.4917   1
   1  -5   1 935.219 25.3575   3
  -2   5  -1 2.22457 1.47567   1
  -2   5  -1 -1.2523 1.05481   1
   2  -5   1 0.43904 1.63303   1
   2  -5   1 0.51609 1.04570   3
  -3   5  -1 1160.72 35.5450   1
  -3   5  -1 1225.01 34.4458   1
   3  -5   1 1212.94 33.5956   3
   3  -5   1 1205.26 36.2181   1
  -4   5  -1 0.94257 1.68975   1
   4  -5   1 5.60995 2.41001   3
   4  -5   1 2.26672 2.43871   1
  -5   5  -1 53.4172 7.13459   1
   5  -5   1 76.8599 9.54877   1
   5  -5   1 83.6089 9.00386   3
  -6   5  -1 115.367 11.8933   1
   6  -5   1 117.370 12.3678   1
   6  -5   1 110.391 11.1974   3
  -7   5  -1 2.89340 3.25732   1
   7  -5   1 2.61030 2.72721   1
   7  -5   1 3.71002 3.08837   3
  -8   5  -1 1.01316 3.75517   1
   8  -5   1 5.80920 4.52931   1
   6   4  -1 0.21351 1.99830   1
   6   4  -1 1.43736 2.17192   2
   5   4  -1 37.0929 5.41471   1
   5   4  -1 48.6900 6.05749   2
  -5  -4   1 60.5837 8.66430   1
   4   4  -1 13.9277 3.17399   2
   4   4  -1 12.4097 3.96888   1
   4   4  -1 23.4941 3.90836   1
  -4  -4   1 16.8936 3.55462   1
   3   4  -1 2.50470 1.47962   2
   3   4  -1 0.39589 1.11876   3
   3   4  -1 -1.2883 1.14339   1
   3   4  -1 -0.0724 1.05378   1
  -3  -4   1 0.53128 1.44827   1
   2   4  -1 1.39791 1.27650   1
   2   4  -1 1.28773 1.06252   1
   2   4  -1 1.58577 1.15032   2
   2   4  -1 1.59924 0.93715   3
  -2  -4   1 1.50944 1.20923   3
  -2  -4   1 -0.4056 1.34719   3
  -2  -4   1 3.66007 1.48410   1
   1   4  -1 7712.05 171.325   1
   1   4  -1 7589.15 170.612   3
   1   4  -1 7824.57 172.830   1
  -1  -4   1 7540.50 172.520   1
  -1  -4   1 7728.13 172.755   3
  -1  -4   1 7477.35 172.090   3
   0   4  -1 -0.0683 0.79728   1
   0   4  -1 0.40724 0.74122   3
   0   4  -1 0.37314 0.92077   1
   0  -4   1 -0.4005 0.77829   3
   0  -4   1 1.12869 1.13312   1
  -1   4  -1 5.93065 1.68516   1
  -1   4  -1 5.02566 1.56949   1
   1  -4   1 9.77578 2.39190   1
   1  -4   1 3.15928 1.25217   3
  -2   4  -1 608.295 20.0509   1
  -2   4  -1 629.713 19.5155   1
   2  -4   1 625.286 18.7957   3
   2  -4   1 652.133 20.8337   1
  -3   4  -1 25.8198 4.81245   1
  -3   4  -1 25.6263 4.14509   1
   3  -4   1 34.3366 5.32979   1
   3  -4   1 32.0855 4.32058   3
  -4   4  -1 1264.30 36.2515   1
   4  -4   1 1229.89 35.4370   3
   4  -4   1 1237.71 37.7122   1
  -5   4  -1 228.510 12.3124   1
   5  -4   1 222.816 12.9409   1
   5  -4   1 213.834 11.7212   3
  -6   4  -1 10.1472 3.78569   1
   6  -4   1 8.84315 3.78894   1
   6  -4   1 16.1795 4.69351   3
  -7   4  -1 21.5833 5.89617   1
   7  -4   1 21.2041 5.75564   1
   7  -4   1 17.7846 5.33927   3
  -8   4  -1 -0.8560 3.53602   1
   8  -4   1 4.03808 4.18246   1
   7   3  -1 16.8727 4.47241   2
   7   3  -1 15.0129 4.50064   1
   6   3  -1 -1.9670 1.56283   2
   5   3  -1 82.0223 7.70920   2
  -5  -3   1 82.0722 7.99304   1
   4   3  -1 8.45418 2.59434   1
   4   3  -1 8.15868 2.35250   3
   4   3  -1 3.91315 2.10812   1
   4   3  -1 16.0172 3.06025   2
  -4  -3   1 16.0837 3.37510   1
   3   3  -1 8.62527 2.09111   2
   3   3  -1 12.9198 2.42439   3
   3   3  -1 13.6131 2.72854   1
   3   3  -1 8.99391 2.33607   1
  -3  -3   1 8.54438 2.37979   1
   2   3  -1 547.849 16.5040   1
   2   3  -1 562.756 15.2865   3
   2   3  -1 557.101 16.1034   1
   2   3  -1 566.239 16.0338   2
  -2  -3   1 563.138 16.1983   1
  -2  -3   1 532.386 15.7244   3
   1   3  -1 686.465 19.2709   1
   1   3  -1 713.433 18.5429   1
   1   3  -1 717.767 18.1365   3
  -1  -3   1 739.834 19.2784   2
  -1  -3   1 715.889 19.1101   1
  -1  -3   1 745.069 19.4704   3
  -1  -3   1 714.409 18.8337   3
   0   3  -1 2012.86 47.8955   1
   0   3  -1 2008.17 47.2446   1
   0   3  -1 2029.24 46.8943   3
   0  -3   1 2047.13 47.5448   3
   0  -3   1 1985.43 47.9817   1
   0  -3   1 2004.09 47.9867   1
  -1   3  -1 170.842 7.01683   1
  -1   3  -1 162.070 7.03938   1
   1  -3   1 169.456 7.39362   1
   1  -3   1 144.484 6.65733   1
   1  -3   1 165.242 6.44656   3
  -2   3  -1 2018.06 49.5593   1
  -2   3  -1 1926.71 50.3985   1
   2  -3   1 1999.37 49.8378   1
   2  -3   1 1961.29 48.4608   3
   2  -3   1 2032.06 50.6664   1
  -3   3  -1 1.37731 1.70707   1
  -3   3  -1 2.33043 1.86042   1
   3  -3   1 1.45417 1.60586   1
   3  -3   1 3.25559 1.65823   3
  -4   3  -1 34.9033 5.06591   1
   4  -3   1 28.1494 4.71131   1
   4  -3   1 34.1535 4.57404   3
  -5   3  -1 154.140 9.84130   1
   5  -3   1 149.411 9.34749   3
   5  -3   1 138.100 9.83140   1
  -6   3  -1 2.23629 2.60406   1
   6  -3   1 3.55696 2.49112   3
   6  -3   1 2.44259 2.63291   1
  -7   3  -1 10.4389 4.35731   1
   7  -3   1 18.6060 5.20798   1
   7  -3   1 12.4560 4.56151   3
  -8   3  -1 -0.5113 3.44149   1
   8  -3   1 1.25195 3.65528   1
   7   2  -1 5.15796 3.48994   2
   6   2  -1 3.34755 2.40370   2
  -6  -2   1 9.27790 3.53637   1
   5   2  -1 48.3108 5.97380   2
   5   2  -1 45.7314 5.70111   3
  -5  -2   1 49.1270 6.26113   1
   4   2  -1 207.383 9.38338   3
   4   2  -1 231.384 10.7886   1
   4   2  -1 225.043 9.98465   2
  -4  -2   1 243.236 10.4642   1
   3   2  -1 1.79483 1.24739   3
   3   2  -1 2.42888 1.49638   1
   3   2  -1 1.09146 1.16282   2
  -3  -2   1 1.40970 1.36573   1
   2   2  -1 185.509 6.58494   3
   2   2  -1 193.988 6.90054   2
   2   2  -1 184.239 7.16881   1
  -2  -2   1 185.820 6.79056   3
  -2  -2   1 180.569 7.00870   1
  -2  -2   1 186.587 7.24648   2
   0   2  -1 62.8408 3.32845   3
   0   2  -1 69.6294 3.25048   1
   0   2  -1 68.3636 3.34519   1
   0  -2   1 62.6085 3.29059   1
   0  -2   1 63.8325 3.06095   3
   0  -2   1 64.4759 3.26191   1
  -1   2  -1 3437.23 79.1403   1
  -1   2  -1 3471.90 78.6828   1
   1  -2   1 3381.31 77.8785   3
   1  -2   1 3407.64 79.2883   1
   1  -2   1 3334.03 78.6161   1
  -2   2  -1 1432.55 36.4005   1
  -2   2  -1 1410.75 37.4027   1
   2  -2   1 1452.92 37.2360   1
   2  -2   1 1415.84 36.6355   1
   2  -2   1 1409.01 35.5517   3
  -3   2  -1 1467.18 39.1852   1
   3  -2   1 1517.27 39.8570   1
   3  -2   1 1468.61 38.2054   3
  -4   2  -1 457.862 16.8433   1
   4  -2   1 455.556 17.3751   1
   4  -2   1 442.529 16.0390   3
  -5   2  -1 -1.1939 1.56658   1
   5  -2   1 0.93918 1.75319   3
   5  -2   1 3.56095 2.48097   1
  -6   2  -1 74.9628 8.65265   1
   6  -2   1 75.2394 8.95001   1
   6  -2   1 69.2155 8.22630   3
  -7   2  -1 -2.5975 2.37907   1
   7  -2   1 1.81160 2.51477   1
  -8   2  -1 -0.3892 3.44898   1
   8  -2   1 7.99876 4.45971   2
   8  -2   1 0.95848 3.00036   1
   7   1  -1 48.6706 7.13823   2
  -7  -1   1 39.6640 6.74748   1
   6   1  -1 16.1718 4.14730   1
   6   1  -1 20.5908 4.49861   2
   6   1  -1 16.4925 4.30933   3
  -6  -1   1 23.2205 4.87397   1
   5   1  -1 175.027 9.42918   1
   5   1  -1 157.959 10.0161   1
   5   1  -1 163.984 9.05644   3
   5   1  -1 162.423 9.09449   2
  -5  -1   1 167.697 9.37825   1
   4   1  -1 5.83409 2.09140   1
   4   1  -1 10.1715 2.91356   1
   4   1  -1 5.20548 1.85092   2
   4   1  -1 6.64491 2.15523   3
  -4  -1   1 5.28931 2.00608   1
   3   1  -1 504.002 15.6008   1
   3   1  -1 492.688 15.1879   2
   3   1  -1 499.139 16.1209   1
   3   1  -1 503.149 15.1669   3
  -3  -1   1 497.242 15.3779   1
   2   1  -1 263.891 8.24272   3
   2   1  -1 244.138 8.09877   2
   2   1  -1 257.290 8.71633   1
   2   1  -1 272.680 8.68393   1
  -2  -1   1 255.921 8.76251   1
  -2  -1   1 243.867 8.04402   3
  -2  -1   1 251.701 8.46699   1
   1   1  -1 10.7085 1.14818   2
   1   1  -1 11.6834 1.45762   1
   1   1  -1 14.7378 1.96068   3
   1   1  -1 15.0664 1.53821   3
  -1  -1   1 12.7766 1.55750   3
  -1  -1   1 11.8734 1.21973   2
  -1  -1   1 12.0844 1.46911   1
  -1   1  -1 837.699 21.5190   1
  -1   1  -1 857.776 20.9524   3
  -1   1  -1 827.007 21.8904   1
   1  -1   1 846.523 21.5444   1
   1  -1   1 846.578 21.8513   1
   1  -1   1 835.955 20.9098   3
  -2   1  -1 3262.28 77.7101   1
  -2   1  -1 3250.51 76.6628   1
   2  -1   1 3318.87 75.8439   3
   2  -1   1 3304.18 76.8941   1
   2  -1   1 3229.48 76.8401   1
  -3   1  -1 547.227 17.5660   1
   3  -1   1 552.899 18.2056   1
   3  -1   1 555.498 17.0299   3
   3  -1   1 546.630 17.7929   1
  -4   1  -1 208.237 10.2954   1
   4  -1   1 214.060 10.2479   1
   4  -1   1 213.992 10.9005   1
   4  -1   1 200.063 9.57137   3
  -5   1  -1 6.50351 2.88987   1
   5  -1   1 7.95555 3.02369   3
   5  -1   1 3.14283 2.12418   1
  -6   1  -1 59.5985 7.85056   1
   6  -1   1 46.0726 6.36383   1
   6  -1   1 66.2600 8.31577   3
  -7   1  -1 13.6918 4.57547   1
   7  -1   1 14.0523 4.45300   1
   7  -1   1 14.1919 4.83950   2
   8  -1   1 4.48236 3.74518   1
   8  -1   1 0.39856 3.68854   2
   8   0  -1 -0.1553 2.75478   1
   8   0  -1 4.12611 3.27564   2
  -8   0   1 -1.6367 3.09219   1
   7   0  -1 18.0127 4.49993   2
   7   0  -1 7.78051 3.81171   1
  -7   0   1 15.3655 4.85401   1
   6   0  -1 67.4758 7.92731   2
   6   0  -1 59.6553 7.22489   3
   6   0  -1 61.6977 7.51898   1
  -6   0   1 77.2544 8.09211   1
   5   0  -1 1.02945 1.58000   1
   5   0  -1 1.23941 1.61105   3
  -5   0   1 -0.9617 1.59332   1
   4   0  -1 676.362 19.9897   3
   4   0  -1 673.530 20.6383   1
   4   0  -1 589.761 20.7593   1
  -4   0   1 630.394 20.3001   1
   3   0  -1 356.005 12.2979   1
   3   0  -1 359.536 11.7846   3
   3   0  -1 347.319 12.5253   1
  -3   0   1 366.336 12.3064   1
   2   0  -1 33.2088 3.11405   1
   2   0  -1 38.7466 3.32864   3
   2   0  -1 32.8505 3.17708   1
  -2   0   1 25.5100 2.88911   1
  -2   0   1 31.8944 3.20794   1
   1   0  -1 2493.39 55.8117   1
   1   0  -1 2484.24 55.5707   3
  -1   0   1 2418.72 56.0960   1
   0   0  -1 -1.1747 0.08192   1
   0   0  -1 -0.8816 0.11427   3
   0   0   1 -0.9646 0.11399   1
   0   0   1 -0.8018 0.16676   2
   0   0   1 -0.9860 0.06197   1
   0   0   1 -0.8980 0.10150   3
  -1   0  -1 1599.03 36.1915   3
  -1   0  -1 1531.56 36.6757   1
  -1   0  -1 1480.19 36.7276   1
   1   0   1 1594.70 36.6071   1
   1   0   1 1575.01 36.1905   3
   1   0   1 1549.85 36.7128   1
  -2   0  -1 7.25226 1.81794   1
  -2   0  -1 4.14110 1.29057   1
  -2   0  -1 5.51509 1.34792   3
   2   0   1 5.01785 1.35753   3
   2   0   1 5.25997 1.47173   1
   2   0   1 5.53458 1.42828   1
  -3   0  -1 0.45391 1.09898   1
   3   0   1 -0.1789 0.94654   1
   3   0   1 -0.1064 0.94837   1
   3   0   1 -0.2325 0.88787   3
  -4   0  -1 147.056 8.09442   1
   4   0   1 136.308 7.61418   1
   4   0   1 124.658 7.27683   3
   4   0   1 133.939 8.38393   1
  -5   0  -1 19.4590 4.21912   1
   5   0   1 16.5098 4.21807   1
   5   0   1 24.9811 4.96186   2
   5   0   1 18.7519 4.04011   3
   5   0   1 18.5008 3.83864   1
  -6   0  -1 12.8006 4.18842   1
   6   0   1 21.5535 4.48934   1
   6   0   1 22.3213 5.35235   2
   7   0   1 1.76527 2.31790   1
   7   0   1 -0.5230 2.42626   2
   8  -1  -1 0.67103 3.12754   1
   8  -1  -1 5.77787 4.02071   2
  -8   1   1 -0.7847 3.41904   1
   7  -1  -1 75.3638 9.11611   1
   7  -1  -1 80.7712 9.74192   3
   6  -1  -1 129.633 8.90565   3
   6  -1  -1 131.651 9.18685   1
  -6   1   1 100.541 9.81151   1
   5  -1  -1 64.5423 6.66125   3
   5  -1  -1 55.3304 6.54545   1
  -5   1   1 37.1404 5.31105   1
   4  -1  -1 0.62418 1.24945   3
   4  -1  -1 4.00581 1.84752   1
  -4   1   1 0.68573 1.35055   1
   3  -1  -1 37.8601 4.27047   1
   3  -1  -1 39.9558 4.04723   3
   3  -1  -1 37.8534 4.16072   1
  -3   1   1 38.4818 4.10511   1
  -3   1   1 38.1455 4.62744   1
   2  -1  -1 9006.29 210.959   1
   2  -1  -1 9999.99 210.595   3
   2  -1  -1 9388.59 210.168   1
  -2   1   1 9542.13 210.521   1
  -2   1   1 9019.05 210.840   1
   1  -1  -1 2419.57 54.8408   1
   1  -1  -1 2407.49 54.4306   3
   1  -1  -1 2464.45 55.4437   1
  -1   1   1 2394.90 55.4701   1
   0  -1  -1 4.32269 0.96583   2
  -1  -1  -1 980.482 22.9377   3
  -1  -1  -1 961.612 23.1921   1
  -1  -1  -1 948.780 24.7532   2
  -1  -1  -1 956.838 23.2978   1
   1   1   1 984.063 24.6277   2
  -2  -1  -1 669.400 17.8660   3
  -2  -1  -1 689.196 18.6398   1
   2   1   1 682.187 18.7981   1
   2   1   1 658.475 17.7908   1
   2   1   1 676.493 17.8704   3
   2   1   1 660.082 19.4804   2
  -3  -1  -1 450.484 14.3773   3
  -3  -1  -1 461.452 15.2075   1
   3   1   1 478.067 14.6123   1
   3   1   1 460.356 15.6568   1
   3   1   1 456.994 15.9851   2
   3   1   1 472.692 14.6148   3
  -4  -1  -1 3.11263 1.82377   1
   4   1   1 1.41110 1.57977   3
   4   1   1 3.13655 1.63548   1
   4   1   1 1.84933 1.52017   1
   4   1   1 2.04251 1.80564   2
  -5  -1  -1 15.2300 3.92782   1
   5   1   1 2.86769 2.30136   2
   5   1   1 5.78053 2.58549   3
   5   1   1 3.78648 2.05519   1
  -6  -1  -1 4.11258 3.29384   1
   6   1   1 9.54514 3.71861   2
   6   1   1 5.33087 2.63160   1
   7   1   1 1.22521 2.53474   2
   8  -2  -1 5.88688 4.23164   1
  -8   2   1 3.56047 3.76527   1
   7  -2  -1 61.7142 8.36391   1
   7  -2  -1 59.8303 8.29266   3
  -7   2   1 58.7329 8.30141   1
   6  -2  -1 105.648 10.6407   1
   6  -2  -1 91.4031 9.15284   3
  -6   2   1 93.2833 9.57396   1
   5  -2  -1 9.96355 3.03809   1
   5  -2  -1 5.57004 2.39349   3
  -5   2   1 5.50338 2.58738   1
   4  -2  -1 121.864 6.81532   3
   4  -2  -1 99.7096 6.90763   1
  -4   2   1 108.329 6.65974   1
   3  -2  -1 21.8891 3.53824   1
   3  -2  -1 31.1301 3.88025   3
  -3   2   1 25.9964 4.06482   1
  -3   2   1 27.4233 3.56419   1
   2  -2  -1 932.744 23.7586   3
   2  -2  -1 939.946 24.7622   1
   2  -2  -1 974.053 25.5300   1
  -2   2   1 937.191 25.5481   1
  -2   2   1 953.870 24.1852   1
   1  -2  -1 268.464 7.75380   1
   1  -2  -1 267.443 7.22387   3
   1  -2  -1 260.386 8.13239   1
  -1   2   1 261.444 7.26896   1
   0  -2  -1 2103.02 48.4758   1
   0  -2  -1 2170.37 50.5447   2
   0  -2  -1 2172.78 48.1420   1
   0   2   1 2206.38 50.3654   2
  -1  -2  -1 68.1911 4.19647   2
  -1  -2  -1 71.6722 2.90341   3
  -1  -2  -1 69.5031 3.12134   1
   1   2   1 70.5823 2.82212   1
   1   2   1 72.6423 4.04873   2
   1   2   1 70.6867 2.96843   1
  -2  -2  -1 9.15443 1.69784   3
  -2  -2  -1 8.32183 1.77205   1
   2   2   1 9.92026 2.23165   2
  -3  -2  -1 286.131 10.0848   3
  -3  -2  -1 294.432 11.0662   1
   3   2   1 260.666 9.79838   3
   3   2   1 280.037 11.0797   1
   3   2   1 293.951 11.9059   2
  -4  -2  -1 8.56511 2.71057   1
   4   2   1 6.55105 2.06195   3
   4   2   1 7.92364 2.77148   1
   4   2   1 2.54135 1.85782   2
  -5  -2  -1 57.2919 7.15593   1
   5   2   1 50.8737 6.95300   2
   6   2   1 11.5219 4.31021   2
   7   2   1 13.2217 4.61231   2
   8  -3  -1 -1.3295 2.81348   1
   8  -3  -1 0.50778 2.88252   3
  -8   3   1 -3.9872 2.79496   1
   7  -3  -1 65.8550 9.16165   1
   7  -3  -1 67.7663 8.93138   3
  -7   3   1 63.6443 8.32948   1
   6  -3  -1 16.4524 4.18995   1
   6  -3  -1 8.32501 3.21543   3
  -6   3   1 12.5510 3.93352   1
   5  -3  -1 0.85562 1.71049   1
   5  -3  -1 1.93193 1.78798   3
  -5   3   1 1.66867 1.99960   1
   4  -3  -1 248.524 10.4817   3
   4  -3  -1 238.005 11.5489   1
  -4   3   1 218.239 11.8807   1
  -4   3   1 220.376 10.2238   1
   3  -3  -1 127.663 6.31637   3
   3  -3  -1 129.732 7.41739   1
  -3   3   1 130.343 6.54624   1
  -3   3   1 120.145 7.41245   1
   2  -3  -1 199.790 8.52859   1
   2  -3  -1 211.691 7.46234   3
  -2   3   1 206.980 8.52030   1
  -2   3   1 204.632 7.56657   1
   1  -3  -1 13.6974 2.07862   1
   1  -3  -1 13.5115 1.59809   3
   1  -3  -1 13.8574 1.88787   1
  -1   3   1 14.1799 1.59386   1
  -1   3   1 12.8406 1.48318   1
   0  -3  -1 462.323 11.6498   1
   0  -3  -1 450.942 12.0165   1
   0  -3  -1 455.323 13.7601   2
  -1  -3  -1 507.023 14.0006   3
  -1  -3  -1 509.596 13.2844   3
  -1  -3  -1 529.761 13.6264   1
   1   3   1 503.807 15.5190   2
   1   3   1 538.123 13.1286   1
   1   3   1 512.230 13.0289   1
  -2  -3  -1 201.303 7.34399   3
  -2  -3  -1 201.394 7.66396   1
   2   3   1 204.330 8.97614   2
   2   3   1 209.353 7.67708   1
   2   3   1 207.493 7.29046   1
  -3  -3  -1 13.9618 2.55860   3
  -3  -3  -1 11.6710 2.56654   1
   3   3   1 10.7756 2.10725   3
   3   3   1 10.0832 2.45257   1
   3   3   1 12.9266 2.42936   1
   3   3   1 12.3759 2.96515   2
  -4  -3  -1 12.4022 3.04891   1
   4   3   1 16.0240 3.03812   1
   4   3   1 14.4898 3.71754   2
   5   3   1 7.49687 3.08770   2
   5   3   1 3.42808 2.12284   1
   6   3   1 14.8581 3.77216   1
   6   3   1 11.0992 4.13001   2
   8  -4  -1 -2.0132 2.51919   1
   8  -4  -1 0.46552 2.91653   3
  -8   4   1 1.87481 3.32551   1
   7  -4  -1 11.5215 3.97603   3
   7  -4  -1 22.8673 5.95523   1
  -7   4   1 11.0985 4.02675   1
   6  -4  -1 147.296 9.83302   3
   6  -4  -1 132.553 12.1132   1
  -6   4   1 142.285 9.80144   1
   5  -4  -1 15.0646 4.37683   1
   5  -4  -1 23.1572 4.75719   3
  -5   4   1 24.2767 4.42818   1
   4  -4  -1 98.4743 6.44497   3
   4  -4  -1 105.442 9.32630   1
  -4   4   1 92.2578 9.17630   1
  -4   4   1 106.543 6.77775   1
   3  -4  -1 25.4123 4.20585   1
   3  -4  -1 27.5726 3.60080   3
  -3   4   1 21.1794 3.77588   1
  -3   4   1 31.0698 3.83997   1
   2  -4  -1 84.2626 4.51749   3
   2  -4  -1 88.9613 5.61563   1
  -2   4   1 85.4803 4.51380   1
  -2   4   1 79.7812 4.91244   1
   1  -4  -1 126.343 5.77563   1
   1  -4  -1 124.966 5.01514   3
  -1   4   1 116.948 4.37292   1
  -1   4   1 124.959 4.39422   1
   0  -4  -1 32.2174 2.79680   3
   0  -4  -1 35.1950 2.48338   1
   0  -4  -1 35.5658 2.24744   3
  -1  -4  -1 87.4014 4.10451   1
  -1  -4  -1 85.9468 3.85814   3
  -1  -4  -1 83.0632 4.27139   3
   1   4   1 78.3209 5.06873   2
  -2  -4  -1 4.37570 1.52130   1
  -2  -4  -1 2.37761 1.17545   3
   2   4   1 2.03221 1.10793   1
   2   4   1 1.80255 1.42169   2
   2   4   1 1.26120 1.00093   1
  -3  -4  -1 13.1382 2.81344   1
  -3  -4  -1 10.7996 2.52440   3
   3   4   1 19.8075 3.14012   1
   3   4   1 14.4114 2.49849   1
   3   4   1 18.8357 3.69904   2
   4   4   1 12.0683 2.74457   1
   4   4   1 6.06815 2.67229   2
   5   4   1 14.0972 3.18937   1
   5   4   1 24.5021 4.95260   2
   6   4   1 -1.5967 1.84608   1
   6   4   1 -0.5514 2.61644   2
   8  -5  -1 6.51459 3.59967   3
   8  -5  -1 -2.0302 3.34287   1
  -8   5   1 5.09620 4.17357   1
   7  -5  -1 0.17005 2.61317   1
   7  -5  -1 3.64337 3.14140   3
  -7   5   1 1.78299 3.15143   1
   6  -5  -1 -0.3992 1.70167   3
   6  -5  -1 -2.2415 2.10469   1
  -6   5   1 -1.1673 1.81596   1
   5  -5  -1 8.79513 3.45871   1
   5  -5  -1 8.55201 3.05433   3
  -5   5   1 8.01661 3.03264   1
   4  -5  -1 75.0080 8.20757   1
   4  -5  -1 70.8867 7.22196   3
  -4   5   1 65.5765 7.78789   1
  -4   5   1 67.9727 6.52268   1
   3  -5  -1 -0.9741 1.16701   1
   3  -5  -1 3.03036 1.52022   3
  -3   5   1 -0.1751 1.05388   1
  -3   5   1 1.81076 1.76801   1
   2  -5  -1 339.231 13.1720   1
   2  -5  -1 356.293 11.8664   3
  -2   5   1 335.440 11.1110   1
   1  -5  -1 701.136 20.4845   1
   1  -5  -1 716.727 19.3351   3
  -1   5   1 705.432 17.8810   1
  -1   5   1 724.968 17.5630   1
   0  -5  -1 41.2100 3.64876   3
   0  -5  -1 36.6099 3.54272   1
  -1  -5  -1 441.711 13.4023   1
  -1  -5  -1 457.342 13.7487   3
  -1  -5  -1 422.771 12.7993   3
  -2  -5  -1 3.70360 1.73006   1
  -2  -5  -1 4.40304 1.61402   3
   2   5   1 8.98356 2.68981   2
   2   5   1 4.66578 1.33319   1
   2   5   1 5.17036 1.35991   1
   3   5   1 3.69891 1.68820   1
   3   5   1 1.51840 1.72719   2
   3   5   1 1.06303 1.37159   1
   4   5   1 4.03023 2.43712   2
   4   5   1 -0.5642 1.32603   1
   5   5   1 0.27840 2.36559   2
   5   5   1 -1.1881 1.70474   1
   8  -6  -1 2.48204 3.55281   1
   8  -6  -1 -0.5193 2.84885   3
  -8   6   1 -0.2158 2.99954   1
   7  -6  -1 -0.1764 2.95029   1
   7  -6  -1 -0.3888 2.45276   3
  -7   6   1 0.36331 2.57316   1
   6  -6  -1 11.3927 4.38123   1
   6  -6  -1 13.2626 4.06231   3
  -6   6   1 10.4018 3.55251   1
   5  -6  -1 43.9342 6.27327   3
   5  -6  -1 59.2219 8.29521   1
  -5   6   1 37.0994 5.56915   1
   4  -6  -1 56.5584 7.54272   1
   4  -6  -1 50.8570 6.28764   3
  -4   6   1 32.8774 5.57743   1
  -4   6   1 44.7950 5.44039   1
   3  -6  -1 128.177 7.38200   3
   3  -6  -1 123.545 8.56200   1
  -3   6   1 133.002 7.82813   1
  -3   6   1 137.874 7.16161   1
   2  -6  -1 92.6680 5.61555   3
   2  -6  -1 94.1117 8.22143   1
  -2   6   1 83.7854 4.76801   1
  -2   6   1 86.2292 4.78779   1
   1  -6  -1 16.9183 2.75924   3
   1  -6  -1 22.5950 3.67266   1
  -1   6   1 22.8472 1.86408   1
  -1   6   1 15.1160 1.76399   1
   0  -6  -1 26.8757 3.46803   3
   0  -6  -1 33.3278 3.92279   1
  -1  -6  -1 5.73025 1.76530   3
  -1  -6  -1 6.57125 1.96132   1
  -1  -6  -1 2.08538 1.56132   3
   3   6   1 6.98707 2.67984   2
   4   6   1 41.5855 6.38368   2
   4   6   1 42.6311 4.08887   1
   5   6   1 14.4931 2.84631   1
   5   6   1 13.7965 4.49115   2
   8  -7  -1 26.9522 7.09961   3
   8  -7  -1 21.5895 7.32295   1
  -8   7   1 25.3791 6.69674   1
   7  -7  -1 21.4364 5.67967   3
   7  -7  -1 8.34505 4.87740   1
  -7   7   1 13.8596 4.76440   1
   6  -7  -1 -1.6975 2.54184   1
   6  -7  -1 0.84662 2.08246   3
  -6   7   1 2.22201 2.58600   1
   5  -7  -1 43.1359 7.60542   1
   5  -7  -1 42.4073 6.69338   3
  -5   7   1 43.6912 5.98382   1
   4  -7  -1 41.7430 6.99767   1
   4  -7  -1 48.4456 6.45143   3
  -4   7   1 51.6900 6.97423   1
  -4   7   1 48.1377 5.67650   1
   3  -7  -1 49.4346 5.87149   3
   3  -7  -1 34.8034 5.86604   1
  -3   7   1 40.2152 4.61102   1
   2  -7  -1 174.671 8.43808   3
   2  -7  -1 163.565 9.65004   1
  -2   7   1 163.039 6.71479   1
  -2   7   1 159.109 6.82623   1
   1  -7  -1 9.31414 2.84023   1
   1  -7  -1 5.33889 1.93216   3
   0  -7  -1 9.85965 2.67329   1
   0  -7  -1 6.08222 2.04013   3
  -1  -7  -1 48.0835 5.19640   3
   7  -8  -1 27.3236 6.44395   3
  -7   8   1 29.6907 6.54487   1
   6  -8  -1 0.57729 2.27505   3
   6  -8  -1 0.12233 5.08860   1
  -6   8   1 0.63708 2.38311   1
   5  -8  -1 3.31791 3.10812   1
   5  -8  -1 -0.0453 1.77976   3
  -5   8   1 -0.7173 1.89893   1
   4  -8  -1 34.8581 5.62794   3
   4  -8  -1 49.3771 7.75698   1
  -4   8   1 40.4220 5.22851   1
   3  -8  -1 2.05027 1.94625   3
   3  -8  -1 3.45807 2.85353   1
  -3   8   1 0.05147 1.56909   1
  -3   8   1 1.10361 1.49777   1
   2  -8  -1 81.7494 7.63926   3
   2  -8  -1 94.0988 10.6858   1
  -2   8   1 83.8357 4.42383   1
  -2   8   1 83.9443 4.21060   1
   1  -8  -1 27.7894 4.23068   3
   0  -8  -1 39.7684 5.16318   3
  -1  -8  -1 6.05152 2.36236   3
   7  -9  -1 14.2599 5.08449   3
  -7   9   1 10.7584 4.54739   1
   6  -9  -1 5.28431 3.51170   3
  -6   9   1 4.40467 3.15705   1
   5  -9  -1 24.4893 5.50426   3
  -5   9   1 8.77536 3.39252   1
   4  -9  -1 89.6778 9.35235   3
  -4   9   1 108.733 7.26409   1
   3  -9  -1 49.7361 6.54798   3
  -3   9   1 53.4824 4.89000   1
   2  -9  -1 16.0109 3.67337   3
   1  -9  -1 9.76565 3.09134   3
   0  -9  -1 16.3254 3.77805   3
  -1  -9  -1 5.77015 2.53795   3
   6 -10  -1 3.36411 3.45562   3
  -6  10   1 2.56717 3.37021   1
   5 -10  -1 15.2746 4.55149   3
  -5  10   1 14.3846 3.90886   1
   4 -10  -1 22.5062 5.18484   3
  -4  10   1 35.8510 4.81879   1
   3 -10  -1 7.32926 3.03964   3
  -3  10   1 6.16978 1.98863   1
   2 -10  -1 12.0857 3.62852   3
   1 -10  -1 5.76744 2.86301   3
   0 -10  -1 20.2252 4.36236   3
  -1 -10  -1 1.37680 2.62768   3
   5 -11  -1 0.31148 2.31368   3
  -5  11   1 0.62198 2.55041   1
   4 -11  -1 52.9962 7.81818   3
  -4  11   1 45.5838 4.81483   1
   3 -11  -1 60.0442 8.02743   3
   2 -11  -1 4.39917 2.79436   3
   1 -11  -1 0.39285 2.91488   3
   0 -11  -1 4.47718 2.30074   3
  -1  12  -2 0.69182 2.53022   1
   1 -12   2 2.14212 2.94490   3
  -2  12  -2 12.3406 3.83140   1
   2 -12   2 9.45264 3.99449   3
  -3  12  -2 3.20630 3.47356   1
   3 -12   2 2.18998 2.64935   3
  -4  12  -2 1.54999 3.42080   1
   1  11  -2 0.90715 1.94893   1
  -1 -11   2 -3.6601 2.86882   3
   0  11  -2 -1.7202 2.11263   1
   0 -11   2 3.13409 2.19856   3
  -1  11  -2 44.4824 6.18101   1
   1 -11   2 40.7261 6.79581   3
  -2  11  -2 1.54899 2.82808   1
   2 -11   2 6.56641 3.58335   3
  -3  11  -2 5.93228 3.40240   1
   3 -11   2 12.9337 4.70683   3
  -4  11  -2 15.6768 4.58335   1
   4 -11   2 11.0608 4.56972   3
  -5  11  -2 8.59987 4.48938   1
   5 -11   2 13.2044 5.04101   3
   2  10  -2 0.80065 2.42303   1
  -2 -10   2 11.4590 3.74542   3
   1  10  -2 -0.5322 2.07821   1
  -1 -10   2 2.04140 2.78483   3
   0  10  -2 2.73095 2.51367   1
   0 -10   2 2.88328 2.24068   3
  -1  10  -2 0.72468 2.28463   1
   1 -10   2 2.43202 2.49950   3
  -2  10  -2 101.694 9.64364   1
   2 -10   2 89.9013 9.82625   3
  -3  10  -2 18.6972 4.72582   1
   3 -10   2 19.6666 4.86567   3
  -4  10  -2 63.5206 8.62219   1
   4 -10   2 88.8130 10.4858   3
  -5  10  -2 4.78226 3.69079   1
   5 -10   2 0.60386 2.67897   3
  -6  10  -2 5.13745 3.84215   1
   6 -10   2 12.8868 4.77393   3
   3   9  -2 2.10508 2.42312   1
   2   9  -2 162.774 9.30438   1
  -2  -9   2 160.837 10.8762   3
   1   9  -2 1.49161 2.14363   1
  -1  -9   2 -2.8372 2.06425   3
   0   9  -2 0.74145 2.03040   1
   0  -9   2 2.01568 2.51005   3
  -1   9  -2 40.9726 5.82338   1
   1  -9   2 43.5855 6.40081   3
   1  -9   2 37.1028 7.75801   1
  -2   9  -2 47.7639 6.72597   1
   2  -9   2 55.0729 7.25441   3
   2  -9   2 54.7909 8.60872   1
  -3   9  -2 3.29118 2.60875   1
   3  -9   2 9.07698 4.48212   1
   3  -9   2 -0.5584 1.80232   3
  -4   9  -2 50.9252 7.52144   1
   4  -9   2 56.8987 8.22978   3
   4  -9   2 71.6587 10.8518   1
  -5   9  -2 152.933 13.6928   1
   5  -9   2 150.688 13.8214   3
   5  -9   2 156.003 16.1018   1
  -6   9  -2 2.86962 3.94019   1
   6  -9   2 -3.0559 2.16448   3
   6  -9   2 3.76451 4.28055   1
  -7   9  -2 3.89671 4.96629   1
   7  -9   2 1.37096 3.79314   3
   7  -9   2 -1.3661 4.29854   1
   4   8  -2 2.58599 2.53179   1
   3   8  -2 27.6712 4.83949   1
   2   8  -2 58.6124 6.62034   1
  -2  -8   2 58.7778 7.43368   3
   1   8  -2 47.3220 5.84814   1
  -1  -8   2 48.1543 6.97300   1
  -1  -8   2 48.1870 6.29802   3
   0   8  -2 8.12822 3.02200   1
   0  -8   2 9.12636 2.94028   3
   0  -8   2 10.2129 3.61159   1
  -1   8  -2 104.797 6.68632   1
  -1   8  -2 114.936 7.86693   1
   1  -8   2 108.020 9.43575   3
   1  -8   2 119.133 11.1430   1
  -2   8  -2 67.1814 7.44755   1
  -2   8  -2 63.9181 6.92422   1
   2  -8   2 76.3638 8.26223   3
   2  -8   2 60.7160 8.55727   1
  -3   8  -2 72.5605 8.23606   1
   3  -8   2 94.9161 11.0470   1
   3  -8   2 87.6365 9.27262   3
  -4   8  -2 101.003 10.3735   1
   4  -8   2 101.798 11.8322   1
   4  -8   2 117.831 10.8995   3
  -5   8  -2 8.53106 4.26274   1
   5  -8   2 13.2086 4.31065   3
   5  -8   2 19.0946 5.72315   1
  -6   8  -2 39.5265 7.54236   1
   6  -8   2 48.9115 8.09051   3
   6  -8   2 38.1255 8.52677   1
  -7   8  -2 2.18754 4.00807   1
   7  -8   2 0.71025 4.08737   1
   7  -8   2 4.05535 3.69476   3
   5   7  -2 2.59869 2.63724   1
   4   7  -2 -0.0036 1.83687   1
   3   7  -2 1.07790 1.75225   1
   2   7  -2 624.771 21.0279   1
  -2  -7   2 617.346 22.1130   1
  -2  -7   2 635.451 22.0648   3
  -1  -7   2 173.502 9.40781   3
   0   7  -2 1.37704 1.53142   1
   0   7  -2 4.57193 2.21155   1
   0   7  -2 7.97289 2.05714   3
   0  -7   2 1.77813 1.68032   3
   0  -7   2 1.84253 2.34341   1
  -1   7  -2 2.29111 1.79440   1
  -1   7  -2 2.44437 1.99809   1
  -1   7  -2 6.73315 2.13588   3
   1  -7   2 0.76162 1.59768   3
   1  -7   2 4.45433 2.73369   1
  -2   7  -2 366.495 15.3645   1
  -2   7  -2 359.900 15.0087   1
   2  -7   2 377.831 15.0486   3
   2  -7   2 374.994 17.1977   1
  -3   7  -2 3.03268 2.44395   1
  -3   7  -2 0.56857 2.00722   1
   3  -7   2 0.31331 1.92573   1
   3  -7   2 3.55545 2.22557   3
  -4   7  -2 97.3235 9.96188   1
   4  -7   2 82.3876 10.4016   1
   4  -7   2 91.3482 9.57699   3
  -5   7  -2 20.8698 5.19662   1
   5  -7   2 24.0136 5.55121   3
   5  -7   2 34.7753 7.62473   1
  -6   7  -2 -0.4104 2.64656   1
   6  -7   2 -3.6352 2.49797   1
   6  -7   2 -0.6859 2.17560   3
  -7   7  -2 4.64118 4.26386   1
   7  -7   2 11.7333 5.83106   1
   7  -7   2 7.15899 4.04102   3
   6   6  -2 15.4574 4.41385   1
   5   6  -2 5.45626 2.94123   1
   4   6  -2 22.8153 4.34330   1
   3   6  -2 0.48572 1.57020   1
  -3  -6   2 -2.7090 1.69859   1
   2   6  -2 713.512 20.5779   1
   2   6  -2 753.982 22.6495   1
   2   6  -2 588.135 19.1095   3
  -2  -6   2 736.245 22.9101   1
  -2  -6   2 737.594 23.1286   3
   1   6  -2 242.741 9.23273   1
   1   6  -2 246.613 8.74023   3
   1   6  -2 247.485 10.7243   1
  -1  -6   2 223.074 10.3687   3
  -1  -6   2 232.096 11.0160   1
   0   6  -2 -0.0333 1.37404   1
   0   6  -2 0.30731 1.14988   3
   0   6  -2 -0.4844 1.05792   1
   0  -6   2 1.37462 1.61147   1
   0  -6   2 0.12372 1.18703   3
  -1   6  -2 62.3345 5.99983   1
  -1   6  -2 62.7500 6.41207   1
   1  -6   2 69.3355 6.41643   3
   1  -6   2 65.5885 7.20367   1
  -2   6  -2 52.7375 6.26487   1
  -2   6  -2 64.3762 6.89651   1
   2  -6   2 70.5406 8.07695   1
   2  -6   2 50.7982 5.72845   3
  -3   6  -2 3.66780 2.62699   1
  -3   6  -2 1.46296 1.90761   1
   3  -6   2 0.53406 1.81241   1
   3  -6   2 5.20497 2.48400   3
  -4   6  -2 2.67044 2.55948   1
   4  -6   2 4.79881 2.37085   3
   4  -6   2 1.78646 2.60330   1
  -5   6  -2 306.103 15.7365   1
   5  -6   2 301.601 17.1079   1
   5  -6   2 289.079 14.8443   3
  -6   6  -2 22.8551 5.44786   1
   6  -6   2 15.7548 4.55694   3
   6  -6   2 24.3162 6.36176   1
  -7   6  -2 -2.8999 2.58577   1
   7  -6   2 6.16606 4.41979   1
   7  -6   2 2.17960 2.95718   3
   6   5  -2 -2.4876 1.90687   2
   6   5  -2 3.52999 2.71743   1
   5   5  -2 13.4989 3.66154   1
   5   5  -2 15.1671 3.61878   2
   4   5  -2 19.3933 3.59773   2
   4   5  -2 12.6004 3.10292   1
  -4  -5   2 13.8763 3.55172   1
   3   5  -2 12.3515 2.55495   3
   3   5  -2 13.5739 2.96051   1
   3   5  -2 12.0419 3.08930   1
  -3  -5   2 10.1422 2.92781   1
   2   5  -2 456.698 16.1782   1
   2   5  -2 459.473 14.1777   3
   2   5  -2 478.745 14.9348   1
  -2  -5   2 474.269 16.5853   3
  -2  -5   2 472.928 16.2585   1
   1   5  -2 1663.34 40.2358   3
   1   5  -2 1631.16 42.4984   1
   1   5  -2 1676.99 40.7710   1
  -1  -5   2 1608.80 42.6697   1
  -1  -5   2 1664.67 42.4022   3
   0   5  -2 521.673 16.8184   1
   0   5  -2 510.624 15.7394   1
   0   5  -2 535.823 15.3995   3
   0  -5   2 486.321 17.0632   1
   0  -5   2 508.015 16.3523   3
  -1   5  -2 10.2514 2.47087   1
  -1   5  -2 8.87226 2.35450   1
   1  -5   2 9.29983 2.76224   1
   1  -5   2 17.1456 2.99709   3
  -2   5  -2 720.193 23.5226   1
  -2   5  -2 712.500 23.0602   1
   2  -5   2 744.931 24.6578   1
   2  -5   2 716.352 22.0348   3
  -3   5  -2 26.0827 4.57442   1
  -3   5  -2 26.2042 5.65123   1
   3  -5   2 29.8085 4.39032   3
   3  -5   2 24.9148 5.00782   1
  -4   5  -2 98.3371 9.39642   1
   4  -5   2 74.7296 9.06135   1
   4  -5   2 75.5540 7.94103   3
  -5   5  -2 168.075 11.1230   1
   5  -5   2 168.220 10.7057   3
   5  -5   2 160.191 14.2739   1
  -6   5  -2 128.096 12.5124   1
   6  -5   2 122.106 11.8679   3
   6  -5   2 145.879 14.4384   1
  -7   5  -2 6.93804 3.88446   1
   7  -5   2 11.6449 5.06804   1
   7  -5   2 8.64265 4.35196   3
  -8   5  -2 -2.1901 2.89512   1
   8  -5   2 0.05808 3.47263   1
   7   4  -2 -0.8612 1.95907   1
   6   4  -2 -0.0911 1.93929   2
   6   4  -2 0.99983 2.32269   1
   5   4  -2 7.08050 2.69549   2
   5   4  -2 4.18397 2.45351   1
  -5  -4   2 8.76544 3.42935   1
   4   4  -2 15.9086 3.20804   3
   4   4  -2 12.5021 3.11466   1
   4   4  -2 13.4977 2.85849   2
   4   4  -2 10.8309 3.15680   1
  -4  -4   2 10.3782 2.95640   1
   3   4  -2 81.5870 5.72856   1
   3   4  -2 77.7232 5.49404   1
   3   4  -2 79.8406 4.96993   2
   3   4  -2 79.2731 4.92015   3
  -3  -4   2 87.7731 5.90203   1
   2   4  -2 1632.95 39.5542   3
   2   4  -2 1617.16 41.6076   1
   2   4  -2 1576.06 40.1543   1
  -2  -4   2 1605.15 41.1964   1
  -2  -4   2 1659.63 42.1423   3
   1   4  -2 32.2050 3.84724   1
   1   4  -2 32.6665 3.35227   1
   1   4  -2 35.2462 3.28225   3
  -1  -4   2 27.5061 3.09529   2
  -1  -4   2 25.3716 3.32733   3
  -1  -4   2 34.9418 3.91464   1
  -1  -4   2 29.9102 3.56870   3
   0   4  -2 86.7810 5.15209   1
   0   4  -2 76.5447 4.60308   1
   0   4  -2 83.0686 4.46499   3
   0  -4   2 78.5173 5.13074   1
   0  -4   2 81.7024 4.76075   3
  -1   4  -2 39.6592 4.47357   1
  -1   4  -2 46.2507 4.79892   1
   1  -4   2 44.2437 5.06348   1
   1  -4   2 37.9536 4.15662   3
  -2   4  -2 6.37105 2.24853   1
  -2   4  -2 2.80834 1.74440   1
   2  -4   2 5.69000 2.03027   3
   2  -4   2 6.43266 2.37541   1
  -3   4  -2 989.418 30.3134   1
   3  -4   2 999.524 31.6407   1
   3  -4   2 1062.64 29.6290   3
  -4   4  -2 1.79572 1.99250   1
   4  -4   2 4.56402 2.09322   3
   4  -4   2 3.32033 2.52011   1
  -5   4  -2 771.060 27.2682   1
   5  -4   2 766.178 28.0889   1
   5  -4   2 789.972 26.6605   3
  -6   4  -2 12.9466 4.38208   1
   6  -4   2 12.0476 4.53590   1
   6  -4   2 12.3815 4.10486   3
  -7   4  -2 -1.2107 2.59136   1
   7  -4   2 1.77128 3.02647   1
   7  -4   2 1.76563 3.09879   3
  -8   4  -2 16.9787 5.82609   1
   8  -4   2 8.23593 4.78059   1
   7   3  -2 82.4365 9.92690   1
   7   3  -2 80.9478 8.79508   2
   6   3  -2 -1.7228 1.45577   2
  -6  -3   2 -2.0680 1.89123   1
   5   3  -2 10.5678 2.84263   2
   5   3  -2 12.0309 3.13281   3
  -5  -3   2 7.61084 3.07056   1
   4   3  -2 34.1599 4.14675   2
   4   3  -2 32.1942 4.67056   1
   4   3  -2 25.8683 4.40324   1
   4   3  -2 33.1867 4.46468   3
  -4  -3   2 31.9273 4.60496   1
   3   3  -2 238.004 10.3804   1
   3   3  -2 242.426 8.90801   2
   3   3  -2 237.640 9.99735   1
   3   3  -2 249.748 9.22692   3
  -3  -3   2 249.248 10.0663   1
   2   3  -2 17.1871 2.49254   1
   2   3  -2 14.2693 2.61644   1
   2   3  -2 16.7342 2.42977   3
  -2  -3   2 21.9454 2.99414   1
  -2  -3   2 12.4284 2.19228   2
   1   3  -2 4834.26 109.361   3
   1   3  -2 4769.68 110.744   1
   1   3  -2 4908.35 109.703   1
  -1  -3   2 4890.68 110.525   1
  -1  -3   2 4853.68 108.983   2
  -1  -3   2 4883.03 110.567   3
  -1  -3   2 4759.21 110.901   1
  -1  -3   2 4740.09 110.070   3
   0   3  -2 -0.4280 0.67775   1
   0   3  -2 0.40936 0.78455   1
   0  -3   2 1.23151 1.11814   1
   0  -3   2 0.86403 0.92283   1
   0  -3   2 1.03995 0.95763   3
  -1   3  -2 17.0288 2.85360   1
  -1   3  -2 15.9318 2.66384   1
   1  -3   2 12.7163 2.58058   1
   1  -3   2 13.8864 2.43381   1
   1  -3   2 13.2119 2.27622   3
  -2   3  -2 3448.78 81.2562   1
  -2   3  -2 3319.37 82.1104   1
   2  -3   2 3450.69 79.8753   3
   2  -3   2 3340.13 81.1830   1
   2  -3   2 3345.05 82.0789   1
  -3   3  -2 12.9722 3.12824   1
   3  -3   2 10.4597 2.57004   3
   3  -3   2 5.96636 2.33876   1
  -4   3  -2 300.697 13.7102   1
   4  -3   2 304.506 14.0862   1
   4  -3   2 288.199 12.7448   3
  -5   3  -2 194.293 11.4545   1
   5  -3   2 200.646 11.1420   3
   5  -3   2 197.765 12.1178   1
  -6   3  -2 3.63470 2.90221   1
   6  -3   2 4.75282 3.24999   3
   6  -3   2 5.03974 2.98487   1
  -7   3  -2 -1.0625 2.70193   1
   7  -3   2 -3.0592 2.22076   1
  -8   3  -2 2.76697 4.15971   1
   8  -3   2 -1.3507 2.82845   1
   7   2  -2 1.53863 2.45059   2
  -7  -2   2 -3.0542 2.82293   1
   6   2  -2 17.9725 4.01319   2
  -6  -2   2 10.4118 3.77704   1
   5   2  -2 148.729 13.4740   1
   5   2  -2 141.450 8.29979   3
   5   2  -2 151.380 8.17097   2
  -5  -2   2 143.860 8.83209   1
   4   2  -2 25.7215 4.08099   1
   4   2  -2 30.7511 3.89167   2
   4   2  -2 38.0929 4.84283   3
  -4  -2   2 28.9296 4.20495   1
   3   2  -2 12.9624 2.10757   2
   3   2  -2 12.4712 2.36381   3
   3   2  -2 13.6878 2.68966   1
  -3  -2   2 7.29928 1.99416   1
   2   2  -2 680.394 18.6181   1
   2   2  -2 683.713 18.0612   3
   2   2  -2 679.331 19.4692   1
   2   2  -2 690.579 17.2181   2
  -2  -2   2 655.074 18.6539   1
  -2  -2   2 695.633 20.0320   1
  -2  -2   2 671.419 17.7423   2
   1   2  -2 2160.52 50.4692   1
   1   2  -2 2104.03 49.7173   1
   1   2  -2 2114.64 49.5209   3
  -1  -2   2 2087.45 50.1334   1
  -1  -2   2 2169.59 48.4259   2
  -1  -2   2 2074.21 50.4779   1
  -1  -2   2 2153.04 50.4859   3
  -1  -2   2 2159.11 49.9564   3
   0   2  -2 744.444 19.3264   1
   0   2  -2 715.692 19.2403   1
   0  -2   2 710.465 19.1827   1
   0  -2   2 738.117 18.8961   3
   0  -2   2 706.308 19.4296   1
  -1   2  -2 2039.56 49.7828   1
  -1   2  -2 2025.35 50.3337   1
   1  -2   2 2128.72 49.0665   3
   1  -2   2 2069.35 50.5257   1
   1  -2   2 2039.14 49.6012   1
  -2   2  -2 1855.01 48.7720   1
  -2   2  -2 1969.16 48.0148   1
   2  -2   2 1962.07 48.7241   1
   2  -2   2 1813.28 47.6707   1
   2  -2   2 1942.61 46.8767   3
  -3   2  -2 2769.34 68.4667   1
   3  -2   2 2657.18 68.6703   1
   3  -2   2 2890.31 67.4675   3
   3  -2   2 2739.65 68.7516   1
  -4   2  -2 12.0163 3.27613   1
   4  -2   2 13.7497 3.54769   3
   4  -2   2 11.9966 3.40123   1
   4  -2   2 13.3676 3.56028   1
  -5   2  -2 11.2037 3.82390   1
   5  -2   2 8.35759 3.32189   3
   5  -2   2 15.2380 3.79324   1
  -6   2  -2 3.29354 2.67348   1
   6  -2   2 0.09236 1.99312   1
   6  -2   2 1.32146 2.25258   3
  -7   2  -2 12.8060 4.61974   1
   7  -2   2 14.6259 4.76396   1
   7   1  -2 142.828 9.74513   2
  -7  -1   2 154.869 10.7807   1
   6   1  -2 3.58532 2.26155   2
   6   1  -2 7.09548 2.86749   3
  -6  -1   2 3.93548 2.69337   1
   5   1  -2 -1.2076 1.08418   3
   5   1  -2 1.12702 1.39671   1
   5   1  -2 2.88727 1.77811   2
  -5  -1   2 0.09660 1.75471   1
   4   1  -2 88.5732 7.49987   1
   4   1  -2 88.3987 5.34506   2
   4   1  -2 108.114 6.45228   1
   4   1  -2 87.9833 5.71670   3
  -4  -1   2 85.9486 5.79868   1
   3   1  -2 1194.57 30.6963   3
   3   1  -2 1226.66 30.0323   2
   3   1  -2 1162.00 31.3640   1
   3   1  -2 1180.18 31.6430   1
  -3  -1   2 1239.40 31.2396   1
   2   1  -2 103.081 4.80520   1
   2   1  -2 105.072 4.57267   3
   2   1  -2 107.889 3.78971   2
  -2  -1   2 106.494 5.01333   1
  -2  -1   2 103.891 4.82269   1
   1   1  -2 8091.73 174.768   1
   1   1  -2 7825.44 174.061   3
   1   1  -2 7738.69 173.936   1
  -1  -1   2 7578.79 174.070   3
  -1  -1   2 7695.94 174.031   1
  -1  -1   2 7697.54 173.739   3
   0   1  -2 245.536 7.28543   3
   0   1  -2 244.993 7.71487   1
   0   1  -2 244.009 7.54467   1
   0  -1   2 218.894 7.61298   1
   0  -1   2 239.775 7.35454   1
   0  -1   2 241.535 7.22800   3
  -1   1  -2 7265.20 162.171   1
  -1   1  -2 6925.34 161.386   3
  -1   1  -2 7205.46 162.294   1
   1  -1   2 7463.24 162.044   1
   1  -1   2 7252.37 161.059   3
   1  -1   2 6958.28 161.254   1
  -2   1  -2 1663.37 40.8426   3
  -2   1  -2 1730.54 45.0013   1
  -2   1  -2 1658.52 42.0015   1
   2  -1   2 1718.05 42.1446   1
   2  -1   2 1609.11 41.8651   1
   2  -1   2 1631.94 40.8587   3
  -3   1  -2 32.9524 4.60997   1
   3  -1   2 25.0200 3.74982   1
   3  -1   2 26.0875 4.02153   1
   3  -1   2 30.2022 4.00381   3
  -4   1  -2 25.0893 4.09846   1
   4  -1   2 21.4293 3.70989   3
   4  -1   2 17.5095 3.45083   1
   4  -1   2 19.4431 4.25014   1
  -5   1  -2 145.781 9.48164   1
   5  -1   2 142.708 9.17013   1
   5  -1   2 131.228 12.7982   1
   5  -1   2 133.668 8.79995   3
  -6   1  -2 45.4584 7.14720   1
   6  -1   2 56.0547 7.28257   1
   7  -1   2 -1.7421 2.30388   1
   7  -1   2 8.21961 4.83041   2
   8   0  -2 25.1662 6.16215   2
   8   0  -2 29.1111 6.34952   1
  -8   0   2 16.7411 5.39640   1
   7   0  -2 19.6833 4.90605   1
   7   0  -2 31.3217 5.70594   2
   7   0  -2 16.8440 4.60690   3
  -7   0   2 23.6469 5.49485   1
   6   0  -2 12.0876 3.39089   3
   6   0  -2 20.0918 4.21822   2
   6   0  -2 14.2248 3.97796   1
  -6   0   2 15.1212 4.00706   1
   5   0  -2 20.8747 3.96275   3
   5   0  -2 20.6221 3.93960   1
  -5   0   2 20.8446 3.86036   1
   4   0  -2 34.0786 4.45575   1
   4   0  -2 37.5143 4.68858   3
  -4   0   2 31.3615 4.11270   1
   3   0  -2 64.6455 4.40911   1
   3   0  -2 66.1442 4.09218   3
   3   0  -2 54.6062 4.88852   1
  -3   0   2 73.0380 4.43076   1
  -3   0   2 66.1375 4.74047   1
   2   0  -2 256.835 7.99870   3
   2   0  -2 255.837 8.40365   1
   2   0  -2 240.057 8.42469   1
  -2   0   2 258.032 8.23432   1
  -2   0   2 234.331 8.58746   1
   1   0  -2 799.684 19.4964   1
   1   0  -2 794.348 18.3929   2
   1   0  -2 806.001 19.4071   3
   1   0  -2 818.261 19.6687   1
  -1   0   2 803.180 19.6661   1
  -1   0   2 800.124 19.5811   1
  -1   0   2 824.045 19.5428   3
   0   0  -2 674.844 15.9131   1
   0   0  -2 677.464 15.7634   3
   0   0  -2 644.452 16.2797   1
   0   0   2 623.878 16.1106   1
   0   0   2 645.863 16.5790   2
  -1   0  -2 10.7257 1.54039   3
  -1   0  -2 13.0463 1.94580   1
  -1   0  -2 7.33415 1.43129   1
   1   0   2 8.03699 1.27302   3
   1   0   2 13.5027 1.78532   1
   1   0   2 12.4286 1.66521   1
  -2   0  -2 1319.95 32.3758   3
  -2   0  -2 1292.21 33.3271   1
   2   0   2 1266.48 33.2492   1
   2   0   2 1323.58 32.3180   3
   2   0   2 1290.71 32.6320   1
  -3   0  -2 157.490 8.05019   1
   3   0   2 168.797 8.47624   1
   3   0   2 171.288 7.70330   3
   3   0   2 171.970 7.88809   1
  -4   0  -2 0.52376 1.69769   1
   4   0   2 0.28801 1.52693   2
   4   0   2 2.86028 2.03338   1
   4   0   2 -0.5932 0.94101   1
   4   0   2 -0.1031 1.16398   3
  -5   0  -2 36.8782 5.93342   1
   5   0   2 42.4298 6.41876   2
   5   0   2 38.6254 5.41627   1
   5   0   2 42.1777 5.93869   3
  -6   0  -2 7.19139 3.61859   1
   6   0   2 9.43841 3.23419   1
   6   0   2 11.5094 4.20924   2
   7   0   2 4.98999 3.82086   2
   7   0   2 7.94775 3.47687   1
   8  -1  -2 22.3248 6.22238   1
   8  -1  -2 10.9518 4.17925   2
  -8   1   2 9.11802 4.49841   1
   7  -1  -2 54.5627 7.87564   1
   7  -1  -2 49.8249 7.73232   3
  -7   1   2 40.3486 6.35943   1
   6  -1  -2 116.250 10.3991   1
   6  -1  -2 116.440 10.4240   3
  -6   1   2 96.4771 9.06185   1
   5  -1  -2 12.4950 3.13898   3
   5  -1  -2 16.7132 3.69958   1
  -5   1   2 20.3637 4.05093   1
   4  -1  -2 91.3870 5.61770   3
   4  -1  -2 92.8721 7.70018   1
  -4   1   2 68.2998 6.04922   1
   3  -1  -2 50.5270 4.89980   1
   3  -1  -2 54.2990 3.64768   3
  -3   1   2 50.0810 5.10910   1
  -3   1   2 52.0282 3.71910   1
   2  -1  -2 311.356 10.2318   1
   2  -1  -2 323.646 9.40413   3
   2  -1  -2 327.485 10.0372   1
  -2   1   2 309.448 10.5246   1
  -2   1   2 326.871 9.64427   1
   1  -1  -2 300.708 8.01576   1
   1  -1  -2 308.466 8.40504   2
   1  -1  -2 296.271 8.41420   1
   1  -1  -2 312.026 7.91714   3
  -1   1   2 288.193 7.79690   3
  -1   1   2 331.177 8.05245   1
   0  -1  -2 3170.72 72.9963   2
   0   1   2 3187.21 72.7147   2
  -1  -1  -2 116.391 4.61350   1
  -1  -1  -2 114.574 4.19644   3
  -1  -1  -2 111.733 4.47391   1
  -1  -1  -2 117.308 5.83735   2
   1   1   2 134.549 4.27422   1
   1   1   2 110.677 5.55851   2
   1   1   2 119.599 3.78125   1
  -2  -1  -2 11.6341 1.93528   3
  -2  -1  -2 11.4857 2.16198   1
   2   1   2 11.6404 1.73787   1
   2   1   2 13.7787 2.66705   2
  -3  -1  -2 345.479 11.8518   3
  -3  -1  -2 354.957 12.8734   1
   3   1   2 329.963 11.6049   3
   3   1   2 340.293 12.8526   1
   3   1   2 321.067 11.3233   1
   3   1   2 361.313 14.0731   2
  -4  -1  -2 60.9800 6.82492   1
   4   1   2 61.4041 5.73016   1
   4   1   2 66.3790 7.11556   1
   4   1   2 60.4593 6.00854   3
   4   1   2 53.1671 6.62969   2
  -5  -1  -2 -0.0277 2.40801   1
   5   1   2 3.10164 2.48189   2
   5   1   2 0.53008 1.93432   1
   6   1   2 0.99754 2.74006   2
   7   1   2 -0.7959 2.97315   2
   8  -2  -2 2.61849 3.33096   3
   8  -2  -2 -0.0016 3.04650   1
  -8   2   2 1.42721 3.01792   1
   7  -2  -2 105.242 10.7059   1
   7  -2  -2 74.8058 8.91222   3
  -7   2   2 85.8340 9.30370   1
   6  -2  -2 87.3212 9.26284   1
   6  -2  -2 88.0455 8.81540   3
  -6   2   2 70.0655 7.91379   1
   5  -2  -2 26.3918 4.90457   1
   5  -2  -2 31.7443 4.84573   3
  -5   2   2 25.0088 4.34993   1
   4  -2  -2 65.1796 6.08494   3
   4  -2  -2 63.5584 6.33193   1
  -4   2   2 49.9497 6.43019   1
  -4   2   2 61.6265 5.68246   1
   3  -2  -2 756.137 22.4905   1
   3  -2  -2 779.779 21.0908   3
  -3   2   2 751.624 23.1691   1
  -3   2   2 769.511 21.3267   1
   2  -2  -2 52.5213 3.26648   1
   2  -2  -2 59.0914 3.08592   3
   2  -2  -2 65.6561 3.88958   1
  -2   2   2 53.6324 3.67473   1
  -2   2   2 57.5073 3.04750   1
   1  -2  -2 832.365 19.3358   1
   1  -2  -2 800.880 20.7058   2
   1  -2  -2 816.134 19.9850   1
   0  -2  -2 671.202 18.5946   2
   0   2   2 678.682 18.2157   2
  -1  -2  -2 43.4728 2.34524   1
  -1  -2  -2 42.5586 2.44447   1
   1   2   2 45.7479 4.44659   2
  -2  -2  -2 25.6295 2.87867   3
  -2  -2  -2 23.4682 3.05868   1
   2   2   2 21.5556 3.40973   2
   2   2   2 26.0536 2.84996   1
  -3  -2  -2 7.68009 2.03837   3
  -3  -2  -2 5.66597 1.95063   1
   3   2   2 1.65911 1.62805   2
   3   2   2 4.08256 1.78661   1
   3   2   2 1.92836 1.19999   3
  -4  -2  -2 -2.4568 1.38300   1
   4   2   2 0.44660 1.34458   1
   4   2   2 1.72223 1.94582   2
   5   2   2 1.19672 2.03877   2
   6   2   2 33.2968 6.34918   2
   8  -3  -2 3.82798 3.29687   1
   8  -3  -2 1.65537 3.14967   3
  -8   3   2 3.65326 3.54676   1
   7  -3  -2 16.1225 4.35276   3
   7  -3  -2 22.3332 5.56178   1
  -7   3   2 14.0091 4.49838   1
   6  -3  -2 17.1383 4.47230   3
   6  -3  -2 13.0865 4.18189   1
  -6   3   2 14.9652 4.00994   1
   5  -3  -2 61.5343 7.11194   1
   5  -3  -2 48.0926 5.79586   3
  -5   3   2 46.6179 5.80301   1
   4  -3  -2 19.6657 3.64421   3
   4  -3  -2 29.1036 4.73666   1
  -4   3   2 23.6157 4.67177   1
  -4   3   2 19.1824 3.31196   1
   3  -3  -2 114.018 6.55241   1
   3  -3  -2 112.054 5.53625   3
  -3   3   2 99.1480 5.46282   1
  -3   3   2 116.683 6.89641   1
   2  -3  -2 85.3970 4.97625   1
   2  -3  -2 91.9766 4.14061   3
  -2   3   2 94.0627 4.06073   1
   1  -3  -2 298.116 8.71080   1
   1  -3  -2 286.262 8.25138   1
   0   3   2 486.895 14.7256   2
  -1  -3  -2 170.926 5.36751   3
  -1  -3  -2 166.845 5.69811   1
   1   3   2 154.899 7.43629   2
  -2  -3  -2 0.59703 0.90186   3
  -2  -3  -2 -1.0495 0.85159   1
   2   3   2 2.10279 1.48445   2
   2   3   2 1.42272 0.94691   1
   2   3   2 0.34749 0.64548   1
  -3  -3  -2 41.4937 4.29744   3
  -3  -3  -2 42.8813 4.74620   1
   3   3   2 42.3690 3.94055   1
   3   3   2 41.6351 4.34680   1
   3   3   2 43.5674 5.55396   2
  -4  -3  -2 2.40795 2.13318   1
   4   3   2 -0.2511 1.42021   1
   4   3   2 5.04257 1.81590   1
   4   3   2 6.37468 2.83905   2
   5   3   2 3.09365 1.77812   1
   5   3   2 -0.0460 2.27854   2
   6   3   2 17.0904 5.01628   2
   6   3   2 23.6773 4.47897   1
   8  -4  -2 -2.6827 2.94053   1
   8  -4  -2 6.15000 4.11336   3
  -8   4   2 1.13936 3.10324   1
   7  -4  -2 56.6375 8.45684   1
   7  -4  -2 34.6177 6.71666   3
  -7   4   2 53.9585 7.34179   1
   6  -4  -2 64.1078 7.94897   3
   6  -4  -2 75.1509 8.82426   1
  -6   4   2 63.7185 7.59892   1
   5  -4  -2 40.9023 5.95556   3
   5  -4  -2 57.3064 7.26974   1
  -5   4   2 31.8025 6.14216   1
  -5   4   2 33.7817 4.98110   1
   4  -4  -2 62.3209 6.09516   3
   4  -4  -2 56.2282 6.53919   1
  -4   4   2 51.3435 5.18397   1
  -4   4   2 54.2422 6.77207   1
   3  -4  -2 884.338 26.2444   1
   3  -4  -2 866.088 24.0380   3
  -3   4   2 893.800 23.8235   1
  -3   4   2 848.494 25.6809   1
   2  -4  -2 7.05682 1.59225   3
   2  -4  -2 9.21314 2.26538   1
  -2   4   2 5.60548 1.48172   1
  -2   4   2 4.17956 1.12052   1
   1  -4  -2 28.4299 2.86986   1
   0  -4  -2 124.141 4.34082   1
  -1  -4  -2 6.46162 1.30989   1
  -1  -4  -2 3.75864 1.20270   3
   1   4   2 3.32107 1.60136   2
  -2  -4  -2 50.6683 3.40943   3
  -2  -4  -2 49.1111 4.21877   1
   2   4   2 48.4362 5.69281   2
  -3  -4  -2 29.3267 4.00440   1
   3   4   2 22.5507 4.49179   2
   3   4   2 28.4812 3.25900   1
   3   4   2 26.4630 2.80744   1
   4   4   2 4.78596 2.69555   2
   4   4   2 11.7935 2.43077   1
   5   4   2 38.6586 6.61512   2
   5   4   2 27.3694 4.05162   1
   6   4   2 6.09658 3.70474   2
   6   4   2 0.31097 2.36830   1
   8  -5  -2 -1.5705 3.26542   1
   8  -5  -2 2.74995 3.02702   3
  -8   5   2 3.11402 3.39963   1
   7  -5  -2 38.1537 6.82599   3
   7  -5  -2 30.7359 6.70776   1
  -7   5   2 35.8366 6.49402   1
   6  -5  -2 2.40356 2.34505   3
   6  -5  -2 3.31297 2.68494   1
  -6   5   2 2.89482 2.59852   1
   5  -5  -2 92.1393 8.92943   3
   5  -5  -2 88.1629 9.29545   1
  -5   5   2 77.3206 7.37621   1
  -5   5   2 76.0217 9.05736   1
   4  -5  -2 11.8453 2.98557   3
   4  -5  -2 16.5864 3.82404   1
  -4   5   2 11.9808 3.67874   1
  -4   5   2 11.4231 2.72373   1
   3  -5  -2 350.937 12.4364   3
   3  -5  -2 339.181 14.1083   1
  -3   5   2 359.279 11.8390   1
   2  -5  -2 6.58877 2.13039   1
   2  -5  -2 4.81482 1.59030   3
  -2   5   2 2.87531 0.98810   1
  -2   5   2 5.06448 1.26329   1
   1  -5  -2 215.372 8.24068   1
   0  -5  -2 347.783 10.5410   1
  -1  -5  -2 4.91649 1.62262   3
  -1  -5  -2 1.45168 0.99743   3
  -1  -5  -2 6.88810 1.59972   1
   1   5   2 1.78498 1.69759   2
  -2  -5  -2 41.1423 3.93166   3
  -2  -5  -2 42.5051 4.14159   1
   2   5   2 47.4690 5.76583   2
   3   5   2 79.3150 8.05702   2
   4   5   2 -1.6075 1.68618   2
   5   5   2 2.39770 1.85930   1
   5   5   2 2.99443 3.15190   2
   8  -6  -2 25.3851 6.79205   3
   8  -6  -2 18.0642 6.22332   1
  -8   6   2 8.33989 4.44654   1
   7  -6  -2 5.65106 3.50726   1
   7  -6  -2 7.61771 3.44311   3
  -7   6   2 3.61411 3.12024   1
   6  -6  -2 5.38683 3.45325   1
   6  -6  -2 1.39722 2.22800   3
  -6   6   2 3.87721 2.88581   1
   5  -6  -2 62.9712 7.46724   3
   5  -6  -2 54.1805 8.03900   1
  -5   6   2 62.4796 6.81993   1
   4  -6  -2 -1.6145 1.42892   1
   4  -6  -2 0.12664 1.36738   3
  -4   6   2 0.09045 1.77909   1
  -4   6   2 1.94953 1.81514   1
   3  -6  -2 66.5161 6.21894   3
   3  -6  -2 56.0572 6.56706   1
  -3   6   2 66.7520 5.89204   1
  -3   6   2 47.5441 4.26773   1
   2  -6  -2 6.35450 2.35436   1
   2  -6  -2 4.73556 1.67000   3
  -2   6   2 7.35477 1.22554   1
  -2   6   2 4.98114 1.08272   1
   1  -6  -2 72.6453 5.90383   1
   1  -6  -2 66.8036 4.11091   3
   0  -6  -2 131.530 5.96615   3
   0  -6  -2 132.756 6.27870   1
  -1  -6  -2 37.5448 3.94277   1
  -1  -6  -2 34.8021 3.49889   3
  -1  -6  -2 41.5087 4.31445   3
   2   6   2 10.8149 3.35222   2
   3   6   2 17.1798 4.29729   2
   4   6   2 14.1831 4.26287   2
   5   6   2 10.3020 4.22938   2
   8  -7  -2 4.54596 3.62237   3
  -8   7   2 12.5428 4.85241   1
   7  -7  -2 13.1226 4.55063   3
   7  -7  -2 13.9616 5.49903   1
  -7   7   2 17.4175 4.90364   1
   6  -7  -2 -0.2797 1.84493   3
   6  -7  -2 2.15210 2.98647   1
  -6   7   2 2.89452 2.56693   1
   5  -7  -2 121.726 10.9754   3
   5  -7  -2 124.477 12.1854   1
  -5   7   2 131.361 8.38710   1
   4  -7  -2 437.558 18.8180   1
   4  -7  -2 418.867 16.5590   3
  -4   7   2 419.896 14.9204   1
   3  -7  -2 49.8751 5.62496   3
   3  -7  -2 51.1144 6.84106   1
  -3   7   2 45.6016 4.17492   1
  -3   7   2 49.4276 4.57985   1
   2  -7  -2 16.0438 4.05520   1
   2  -7  -2 17.9614 3.28873   3
   1  -7  -2 117.165 6.17018   3
   1  -7  -2 114.098 7.12197   1
   0  -7  -2 1.89417 1.54636   3
  -1  -7  -2 -0.9375 1.28192   3
   7  -8  -2 5.10833 3.60971   3
  -7   8   2 6.81665 3.79623   1
   6  -8  -2 5.27155 3.18122   3
  -6   8   2 6.31144 3.58929   1
   5  -8  -2 138.858 12.1407   3
  -5   8   2 148.589 8.97294   1
   4  -8  -2 2.43709 2.12601   3
  -4   8   2 3.38446 2.03159   1
   3  -8  -2 363.494 14.6765   3
  -3   8   2 363.266 11.0236   1
  -3   8   2 345.956 11.2171   1
   2  -8  -2 13.9238 3.11446   3
   1  -8  -2 45.3408 5.10772   3
   0  -8  -2 44.3312 5.03905   3
  -1  -8  -2 6.13293 2.47149   3
   7  -9  -2 1.17724 3.05232   3
  -7   9   2 9.13617 4.53024   1
   6  -9  -2 7.88175 3.70259   3
  -6   9   2 2.85194 3.07493   1
   5  -9  -2 0.63304 2.37586   3
  -5   9   2 -2.9395 1.96487   1
   4  -9  -2 407.808 17.5650   3
  -4   9   2 402.702 13.7139   1
   3  -9  -2 4.89871 2.32742   3
   2  -9  -2 30.4664 4.56899   3
   1  -9  -2 8.12801 2.91782   3
   0  -9  -2 30.8736 4.61719   3
  -1  -9  -2 3.06723 2.07349   3
   6 -10  -2 45.7088 8.10709   3
  -6  10   2 44.3377 6.27077   1
   5 -10  -2 1.59646 2.35307   3
  -5  10   2 2.41872 2.50002   1
   4 -10  -2 29.1778 5.89472   3
  -4  10   2 21.3603 2.89237   1
   3 -10  -2 103.365 9.72571   3
   2 -10  -2 5.52349 2.72866   3
   1 -10  -2 20.5699 4.62856   3
   0 -10  -2 5.18341 2.43207   3
  -1 -10  -2 19.6268 4.03091   3
   5 -11  -2 8.14932 4.06854   3
  -5  11   2 0.81850 2.11226   1
   4 -11  -2 14.3369 4.86087   3
   3 -11  -2 72.8948 8.63800   3
   2 -11  -2 4.25851 3.16384   3
   1 -11  -2 1.50619 2.30840   3
  -1  12  -3 25.1122 5.81028   1
   1 -12   3 21.5582 5.85832   3
  -2  12  -3 2.35633 3.21199   1
   2 -12   3 1.21262 2.95917   3
  -3  12  -3 1.47450 3.34525   1
   3 -12   3 -0.0726 3.43660   3
   1  11  -3 4.07752 3.00512   1
  -1 -11   3 4.47732 2.97075   3
   0  11  -3 -2.2903 2.65527   1
   0 -11   3 7.30778 3.53906   3
  -1  11  -3 80.4063 9.05821   1
   1 -11   3 59.6566 8.78998   3
  -2  11  -3 18.3075 4.90540   1
   2 -11   3 15.6691 4.91780   3
  -3  11  -3 21.7427 5.59226   1
   3 -11   3 20.8351 5.76386   3
  -4  11  -3 34.4793 7.09697   1
   4 -11   3 36.2912 7.25017   3
  -5  11  -3 4.89393 4.10828   1
   5 -11   3 8.88375 4.30282   3
   3  10  -3 2.06072 3.10964   1
   2  10  -3 56.0759 7.27626   1
  -2 -10   3 36.0254 7.27411   3
   1  10  -3 -3.0650 2.12235   1
  -1 -10   3 8.96735 3.76450   3
   0  10  -3 49.6814 7.29205   1
   0 -10   3 58.4278 8.31558   3
  -1  10  -3 1.49631 2.95713   1
   1 -10   3 16.8336 4.67052   3
  -2  10  -3 21.5305 5.16265   1
   2 -10   3 19.4155 5.08595   3
  -3  10  -3 -3.7306 2.37341   1
   3 -10   3 -0.8626 2.35333   3
  -4  10  -3 16.8438 4.94050   1
   4 -10   3 14.4202 4.36037   3
   4 -10   3 -1.4729 7.22068   1
  -5  10  -3 3.36909 4.25113   1
   5 -10   3 4.55450 3.56406   3
   5 -10   3 4.80151 6.62631   1
  -6  10  -3 3.80950 4.48903   1
   6 -10   3 8.96914 4.86725   3
   4   9  -3 3.57393 2.95686   1
   3   9  -3 94.5618 9.80918   1
   2   9  -3 121.911 10.6417   1
  -2  -9   3 103.813 10.6810   3
   1   9  -3 6.99167 3.15505   1
  -1  -9   3 4.08513 2.72651   3
   0   9  -3 2.38616 2.35648   1
   0  -9   3 6.68214 4.18181   1
   0  -9   3 2.77737 2.45745   3
  -1   9  -3 317.675 15.1266   1
   1  -9   3 324.267 15.2427   3
   1  -9   3 306.645 17.1374   1
  -2   9  -3 10.8399 3.61139   1
   2  -9   3 21.1391 5.98791   1
   2  -9   3 16.1583 4.26862   3
  -3   9  -3 22.0883 5.33238   1
   3  -9   3 16.8929 4.70807   3
   3  -9   3 27.1730 6.53198   1
  -4   9  -3 5.71854 3.60862   1
   4  -9   3 0.73009 3.88357   1
   4  -9   3 4.08614 2.99792   3
  -5   9  -3 0.46185 2.83610   1
   5  -9   3 -0.4648 3.75589   1
   5  -9   3 0.88242 2.74458   3
  -6   9  -3 -4.3887 2.96295   1
   6  -9   3 0.53159 2.71128   3
   6  -9   3 4.45981 4.74733   1
   4   8  -3 3.03890 2.52204   1
   3   8  -3 102.705 9.69510   1
   2   8  -3 80.5061 8.50116   1
  -2  -8   3 47.9939 6.77262   3
   1   8  -3 70.1879 7.91925   1
  -1  -8   3 64.0223 8.15525   1
  -1  -8   3 55.2676 7.00850   3
   0   8  -3 66.2302 7.55996   1
   0  -8   3 71.1443 8.70493   1
   0  -8   3 73.0041 8.02526   3
  -1   8  -3 3.46500 2.32114   1
  -1   8  -3 13.2347 3.39786   1
  -1   8  -3 9.50920 2.79918   3
   1  -8   3 9.84833 3.16665   3
   1  -8   3 10.2598 4.07310   1
  -2   8  -3 228.197 12.7042   1
   2  -8   3 221.722 13.8968   1
   2  -8   3 235.189 12.2204   3
  -3   8  -3 52.7036 7.46721   1
   3  -8   3 44.5716 6.77962   3
   3  -8   3 51.6495 8.38302   1
  -4   8  -3 185.385 12.4154   1
   4  -8   3 194.644 17.5359   1
   4  -8   3 172.057 11.4532   3
  -5   8  -3 5.93381 3.56419   1
   5  -8   3 6.53404 4.53882   1
   5  -8   3 3.98932 3.15794   3
  -6   8  -3 4.92748 3.86844   1
   6  -8   3 -2.6033 3.18232   1
   6  -8   3 3.55667 3.29590   3
  -7   8  -3 16.3201 5.61008   1
   7  -8   3 22.1973 7.22388   1
   7  -8   3 9.99119 4.87558   3
   5   7  -3 -1.4496 1.90444   1
   4   7  -3 3.22875 2.70106   1
   3   7  -3 137.110 9.05291   1
  -3  -7   3 112.430 10.5691   1
   2   7  -3 1038.88 31.8217   1
  -2  -7   3 1080.34 32.6753   3
  -2  -7   3 1033.81 32.7571   1
   1   7  -3 28.8927 4.80001   1
   1   7  -3 22.2545 3.68206   1
   1   7  -3 28.3271 3.83219   3
  -1  -7   3 25.5719 4.57269   3
  -1  -7   3 28.9955 5.45145   1
   0   7  -3 43.4836 5.88854   1
   0   7  -3 39.8153 4.83538   3
   0   7  -3 38.6910 4.85275   1
   0  -7   3 43.0653 6.27560   1
   0  -7   3 52.2156 6.32438   3
  -1   7  -3 504.622 19.1135   1
  -1   7  -3 502.661 18.1376   1
   1  -7   3 506.220 18.4810   3
   1  -7   3 527.255 20.8522   1
  -2   7  -3 18.8793 4.19223   1
  -2   7  -3 19.6085 4.29660   1
   2  -7   3 19.3803 5.04837   1
   2  -7   3 24.9664 4.60199   3
  -3   7  -3 10.0828 3.70637   1
   3  -7   3 15.2448 3.98915   3
   3  -7   3 5.74673 3.35064   1
  -4   7  -3 66.2765 8.59272   1
   4  -7   3 75.1132 8.73082   3
   4  -7   3 77.5444 10.0320   1
  -5   7  -3 8.43648 3.90980   1
   5  -7   3 18.0811 5.05635   3
   5  -7   3 14.8149 4.96104   1
  -6   7  -3 13.0648 4.93549   1
   6  -7   3 9.03526 4.29553   3
   6  -7   3 14.2875 5.60586   1
  -7   7  -3 11.0394 5.23886   1
   7  -7   3 5.74514 4.45573   3
   7  -7   3 3.16405 4.32925   1
   6   6  -3 2.73599 2.84217   1
   5   6  -3 9.98468 3.74845   1
   4   6  -3 0.60922 1.80785   1
  -4  -6   3 7.55990 3.26535   1
   3   6  -3 120.205 8.20537   1
  -3  -6   3 134.565 8.82954   1
   2   6  -3 71.8587 7.37270   1
   2   6  -3 66.5657 6.04833   1
   2   6  -3 81.0741 5.01201   3
  -2  -6   3 76.6212 7.66243   1
  -2  -6   3 89.4704 8.35795   3
   1   6  -3 82.9745 5.09632   3
   1   6  -3 87.3706 5.54663   1
   1   6  -3 83.0844 7.68007   1
  -1  -6   3 84.7283 7.45121   3
  -1  -6   3 103.613 8.78491   1
   0   6  -3 11.4037 2.69573   3
   0   6  -3 5.00523 2.06500   1
   0   6  -3 7.57343 2.24466   1
   0  -6   3 8.38301 2.65445   3
   0  -6   3 11.9549 3.20373   1
  -1   6  -3 28.8239 4.66211   1
  -1   6  -3 29.7652 4.46613   1
   1  -6   3 30.0941 5.22255   1
   1  -6   3 29.9408 4.45430   3
  -2   6  -3 796.569 26.2933   1
  -2   6  -3 807.782 26.2213   1
   2  -6   3 774.494 24.8333   3
   2  -6   3 800.515 27.8842   1
  -3   6  -3 9.55393 3.26869   1
   3  -6   3 9.99833 2.89443   3
   3  -6   3 9.01022 3.57855   1
  -4   6  -3 193.899 12.1444   1
   4  -6   3 216.296 11.8125   3
   4  -6   3 196.396 13.2103   1
  -5   6  -3 -2.3904 2.26948   1
   5  -6   3 1.32905 2.28260   3
   5  -6   3 3.16832 3.07835   1
  -6   6  -3 17.7425 5.53705   1
   6  -6   3 10.8601 4.73104   1
   6  -6   3 20.1915 5.16674   3
  -7   6  -3 142.796 15.0641   1
   7  -6   3 113.116 12.3237   3
   7  -6   3 116.976 13.8991   1
   6   5  -3 6.30964 3.15657   1
   5   5  -3 47.3099 6.60970   1
  -5  -5   3 51.2631 7.25398   1
   4   5  -3 97.8791 8.92183   1
  -4  -5   3 91.3360 8.76472   1
   3   5  -3 90.8050 8.07676   1
   3   5  -3 88.0682 5.56496   3
   3   5  -3 69.6921 6.37375   1
  -3  -5   3 86.4094 7.71903   1
   2   5  -3 1181.58 33.0847   1
   2   5  -3 1187.00 30.5094   3
   2   5  -3 1157.77 31.2193   1
  -2  -5   3 1152.85 32.8024   1
  -2  -5   3 1156.02 33.0552   3
   1   5  -3 -0.5538 1.06114   1
   1   5  -3 0.09248 1.09793   1
   1   5  -3 0.77388 1.23910   3
  -1  -5   3 1.04718 1.34978   3
  -1  -5   3 6.23237 2.18138   1
   0   5  -3 32.2046 4.02153   1
   0   5  -3 35.1199 4.19080   3
   0   5  -3 37.5378 5.01770   1
   0  -5   3 28.9773 4.14244   3
   0  -5   3 32.3845 4.65688   1
  -1   5  -3 166.475 8.78073   1
  -1   5  -3 169.576 8.94765   1
   1  -5   3 172.265 9.62428   1
   1  -5   3 170.018 8.31200   3
  -2   5  -3 -0.5229 1.30297   1
  -2   5  -3 1.18230 1.91624   1
   2  -5   3 0.07583 1.18464   3
   2  -5   3 -0.2718 1.44536   1
  -3   5  -3 150.548 9.62373   1
   3  -5   3 166.271 10.8429   1
   3  -5   3 179.088 9.52097   3
  -4   5  -3 60.5336 7.93906   1
   4  -5   3 67.8751 9.18146   1
   4  -5   3 56.7247 7.00313   3
  -5   5  -3 125.810 12.0617   1
   5  -5   3 142.829 12.5809   3
   5  -5   3 98.6434 11.3183   1
  -6   5  -3 37.6948 6.99032   1
   6  -5   3 30.3479 6.33545   3
   6  -5   3 34.6019 7.34373   1
  -7   5  -3 -0.2853 3.18674   1
   7  -5   3 3.70221 3.79871   1
   7   4  -3 2.71773 2.87719   1
   6   4  -3 52.9370 5.93828   2
   6   4  -3 44.3415 6.86677   1
  -6  -4   3 45.6580 7.04764   1
   5   4  -3 37.9408 4.60803   2
   5   4  -3 44.5434 6.14289   1
  -5  -4   3 51.0302 6.65687   1
   4   4  -3 27.3709 4.48539   1
   4   4  -3 25.8123 4.00191   3
   4   4  -3 34.1445 3.89235   2
   4   4  -3 30.0938 4.62696   1
  -4  -4   3 34.2721 4.89882   1
   3   4  -3 10.3025 2.67969   1
   3   4  -3 9.65139 2.45776   1
   3   4  -3 12.1130 2.58936   3
  -3  -4   3 10.4860 2.77348   1
   2   4  -3 283.294 11.5559   1
   2   4  -3 289.131 10.5989   1
   2   4  -3 293.518 10.1549   3
  -2  -4   3 269.529 9.67955   2
  -2  -4   3 293.877 11.5247   1
  -2  -4   3 283.462 11.6228   3
   1   4  -3 3.32639 1.49644   3
   1   4  -3 3.49438 1.68787   1
   1   4  -3 3.85293 1.57819   1
  -1  -4   3 2.36607 1.57566   1
  -1  -4   3 1.16857 1.26728   3
   0   4  -3 79.1295 5.09056   1
   0   4  -3 71.0675 6.37933   1
   0  -4   3 75.4306 4.85822   3
   0  -4   3 83.6193 5.67288   1
  -1   4  -3 111.185 6.71046   1
  -1   4  -3 108.696 6.72877   1
   1  -4   3 124.210 7.51570   1
   1  -4   3 116.178 6.28401   3
  -2   4  -3 498.001 17.8407   1
   2  -4   3 509.592 16.9056   3
   2  -4   3 493.294 18.6889   1
  -3   4  -3 3.15409 2.11345   1
   3  -4   3 6.47918 2.80860   1
   3  -4   3 3.17425 1.85313   3
  -4   4  -3 195.823 11.4981   1
   4  -4   3 204.761 12.2592   1
   4  -4   3 201.900 10.7327   3
  -5   4  -3 32.2505 6.40992   1
   5  -4   3 21.2477 5.04020   1
   5  -4   3 33.5392 5.63466   3
  -6   4  -3 69.4998 9.65385   1
   6  -4   3 48.7557 7.86743   1
   6  -4   3 75.5913 9.50173   3
  -7   4  -3 33.7874 7.23935   1
   7  -4   3 32.0739 7.05889   1
   7   3  -3 14.9150 4.63090   1
   6   3  -3 79.8566 7.10005   2
  -6  -3   3 72.0205 8.18462   1
   5   3  -3 75.1797 5.24452   2
   5   3  -3 64.7256 6.97309   3
  -5  -3   3 73.0131 7.87031   1
   4   3  -3 100.401 8.37097   1
   4   3  -3 95.9088 6.09911   3
   4   3  -3 95.7188 5.20047   2
   4   3  -3 94.5643 8.44912   1
  -4  -3   3 101.013 7.02190   1
   3   3  -3 8.87394 2.30713   1
   3   3  -3 6.87536 1.91500   3
   3   3  -3 5.11465 1.90933   1
   3   3  -3 12.8878 1.91610   2
  -3  -3   3 10.6762 2.06123   2
  -3  -3   3 8.08455 2.51281   1
   2   3  -3 1519.98 38.1367   1
   2   3  -3 1560.69 37.7812   3
   2   3  -3 1523.30 39.3576   1
  -2  -3   3 1524.22 38.9728   1
  -2  -3   3 1516.79 39.6730   3
  -2  -3   3 1503.18 36.4846   2
   1   3  -3 212.372 8.69673   1
   1   3  -3 212.470 8.20440   1
   1   3  -3 209.353 7.92594   3
  -1  -3   3 213.437 8.71857   1
  -1  -3   3 209.810 8.42228   3
  -1  -3   3 221.009 8.83403   1
   0   3  -3 285.623 10.4573   1
   0   3  -3 294.995 10.6617   1
   0  -3   3 294.149 10.4519   1
   0  -3   3 285.794 10.0719   3
   0  -3   3 259.659 10.5769   1
  -1   3  -3 34.9700 4.48765   1
  -1   3  -3 29.3082 3.79600   1
   1  -3   3 31.9902 3.90486   3
   1  -3   3 33.7382 4.37222   1
   1  -3   3 38.4048 4.43981   1
  -2   3  -3 311.250 12.4555   1
   2  -3   3 278.364 11.9361   1
   2  -3   3 301.184 12.9510   1
   2  -3   3 309.512 11.5071   3
  -3   3  -3 1096.24 32.5277   1
   3  -3   3 1084.74 33.1392   1
   3  -3   3 1094.73 32.6373   1
   3  -3   3 1103.25 31.0314   3
  -4   3  -3 144.947 9.58570   1
   4  -3   3 153.199 9.81769   1
   4  -3   3 161.346 9.19379   3
  -5   3  -3 150.953 10.4603   1
   5  -3   3 151.032 10.6301   1
   5  -3   3 134.537 9.39483   3
  -6   3  -3 5.38362 3.30189   1
   6  -3   3 10.0570 3.90917   3
   6  -3   3 7.42760 3.38472   1
  -7   3  -3 2.76677 3.64268   1
   7  -3   3 7.08067 3.87580   1
   7   2  -3 84.6108 11.4698   2
  -7  -2   3 83.0882 9.60109   1
   6   2  -3 15.6246 4.09454   3
   6   2  -3 10.9835 2.90594   2
  -6  -2   3 24.3801 4.85676   1
   5   2  -3 0.30513 1.61876   3
   5   2  -3 6.62947 2.15783   2
  -5  -2   3 6.47137 2.59574   1
   4   2  -3 7.94527 1.85226   2
   4   2  -3 4.63844 1.83522   3
  -4  -2   3 5.54037 2.26331   1
   3   2  -3 9.83068 2.24187   1
   3   2  -3 5.58712 1.71664   3
   3   2  -3 6.76908 1.34707   2
  -3  -2   3 5.49895 1.87699   1
   2   2  -3 247.039 9.64201   1
   2   2  -3 242.553 8.57754   3
   2   2  -3 248.238 8.89344   1
  -2  -2   3 249.721 7.14310   2
  -2  -2   3 240.008 9.10703   1
   1   2  -3 60.4626 3.89950   1
   1   2  -3 64.0257 3.82890   1
   1   2  -3 63.2094 3.66691   3
  -1  -2   3 72.6296 4.11617   3
  -1  -2   3 65.4224 3.99909   1
  -1  -2   3 64.4562 4.07888   1
   0   2  -3 1.95805 1.04723   1
   0   2  -3 2.03851 1.16282   1
   0  -2   3 2.44565 1.20506   1
   0  -2   3 1.43160 0.91864   1
   0  -2   3 1.51203 0.78189   3
  -1   2  -3 591.021 17.8507   1
  -1   2  -3 586.924 18.3924   1
   1  -2   3 589.825 16.9703   3
   1  -2   3 622.670 18.6585   1
   1  -2   3 594.324 17.6236   1
  -2   2  -3 196.785 9.15897   1
   2  -2   3 202.866 9.12807   1
   2  -2   3 199.704 9.47303   1
   2  -2   3 192.442 8.22655   3
  -3   2  -3 3.91714 2.13621   1
   3  -2   3 1.83926 1.56291   1
   3  -2   3 3.42372 1.97072   1
   3  -2   3 7.25473 2.20578   3
  -4   2  -3 40.2112 5.92188   1
   4  -2   3 36.7555 5.60818   1
   4  -2   3 39.5094 5.24678   3
   4  -2   3 22.4584 4.49907   1
  -5   2  -3 66.9755 8.17024   1
   5  -2   3 73.5045 8.26693   1
   5  -2   3 85.2177 8.99346   3
  -6   2  -3 5.21973 3.69944   1
   6  -2   3 4.72327 2.84031   1
   7  -2   3 -1.1300 2.16890   1
  -8  -1   3 3.08959 4.21948   1
   7   1  -3 97.8672 8.94181   2
  -7  -1   3 88.7564 9.71036   1
   6   1  -3 9.11304 3.23846   3
   6   1  -3 9.90402 2.84794   2
  -6  -1   3 12.7984 3.74639   1
   5   1  -3 1.99437 1.33097   2
   5   1  -3 1.33044 1.70911   3
  -5  -1   3 0.29635 1.87386   1
   4   1  -3 128.812 5.86412   2
   4   1  -3 127.165 6.82406   3
  -4  -1   3 128.095 7.18600   1
   3   1  -3 34.0743 4.03290   1
   3   1  -3 44.3280 2.47957   2
   3   1  -3 45.9790 4.22893   3
  -3  -1   3 39.9004 4.12681   1
   2   1  -3 811.055 21.6856   1
   2   1  -3 832.626 21.4123   3
  -2  -1   3 834.367 22.1144   1
  -2  -1   3 815.082 21.7821   1
   1   1  -3 3403.22 77.3671   1
   1   1  -3 3350.20 76.7545   3
   1   1  -3 3346.63 76.9519   1
   1   1  -3 3366.75 77.2183   3
  -1  -1   3 3253.59 77.1806   1
  -1  -1   3 3396.07 77.2547   3
   0   1  -3 256.949 8.39145   3
   0   1  -3 266.964 8.80514   1
   0   1  -3 272.172 9.11177   1
   0  -1   3 265.651 9.18838   1
   0  -1   3 268.161 8.29077   3
   0  -1   3 281.085 8.62857   1
  -1   1  -3 927.210 24.3713   3
  -1   1  -3 951.540 25.9303   1
  -1   1  -3 965.073 25.2702   1
   1  -1   3 946.682 24.7945   1
   1  -1   3 969.614 25.5604   1
   1  -1   3 954.232 24.1668   3
  -2   1  -3 159.661 7.66563   1
  -2   1  -3 142.887 6.68613   3
   2  -1   3 154.141 6.70207   3
   2  -1   3 142.378 7.18411   1
   2  -1   3 156.638 7.42637   1
  -3   1  -3 108.946 7.04267   1
   3  -1   3 110.653 6.23564   3
   3  -1   3 99.9662 6.54436   1
   3  -1   3 105.945 6.90046   1
  -4   1  -3 49.3083 6.19419   1
   4  -1   3 56.0656 6.15854   1
   4  -1   3 39.0385 5.52579   3
   4  -1   3 49.3054 6.39822   1
  -5   1  -3 66.3541 8.39703   1
   5  -1   3 51.3775 6.88016   3
   5  -1   3 34.6443 5.45413   1
  -6   1  -3 56.4386 8.13052   1
   6  -1   3 60.8996 8.90796   2
   6  -1   3 50.5697 6.77525   1
   7  -1   3 3.86107 3.90565   2
   7  -1   3 2.63474 2.80479   1
  -8   0   3 20.8370 5.78591   1
   7   0  -3 36.1271 5.59477   2
   7   0  -3 41.1011 6.89658   1
   7   0  -3 32.7429 5.87998   3
  -7   0   3 41.0719 6.83399   1
   6   0  -3 118.430 8.34407   3
   6   0  -3 135.820 8.05497   2
   6   0  -3 131.096 9.26470   1
  -6   0   3 123.627 8.67159   1
   5   0  -3 165.666 9.45653   1
   5   0  -3 177.655 9.19948   3
  -5   0   3 163.103 8.91830   1
   4   0  -3 250.182 10.7026   1
   4   0  -3 240.947 9.96456   3
  -4   0   3 245.268 10.1580   1
   3   0  -3 1.12534 1.03680   1
   3   0  -3 2.28957 1.20836   3
  -3   0   3 2.30540 1.26964   1
  -3   0   3 2.82648 1.20566   1
   2   0  -3 61.5862 3.59977   1
   2   0  -3 60.6632 3.27641   3
   2   0  -3 59.8569 3.42692   1
  -2   0   3 56.8028 3.56871   1
  -2   0   3 59.6323 3.42885   1
   1   0  -3 1220.24 28.6161   3
   1   0  -3 1176.00 28.6864   1
   1   0  -3 1210.00 28.0241   2
  -1   0   3 1156.94 28.3883   1
  -1   0   3 1197.99 27.6858   2
  -1   0   3 1203.43 28.8601   1
   0   0  -3 305.636 8.87187   1
   0   0  -3 314.691 8.72414   3
   0   0  -3 305.276 9.35675   1
   0   0   3 313.693 9.72562   2
   0   0   3 313.391 9.12288   1
  -1   0  -3 270.141 9.77676   1
  -1   0  -3 296.258 9.66617   1
  -1   0  -3 295.043 9.05664   3
   1   0   3 284.734 10.4692   2
   1   0   3 303.147 9.19050   1
  -2   0  -3 72.7282 4.86212   1
  -2   0  -3 82.1945 4.54879   3
   2   0   3 73.4126 4.63527   1
   2   0   3 74.5118 4.11888   3
   2   0   3 76.5310 5.43034   2
   2   0   3 83.8581 4.56377   1
  -3   0  -3 252.518 10.9070   1
  -3   0  -3 231.397 9.76040   3
   3   0   3 238.625 11.4715   2
   3   0   3 245.282 9.55399   3
   3   0   3 244.065 10.6154   1
   3   0   3 233.799 9.72571   1
  -4   0  -3 53.7183 6.73032   1
   4   0   3 37.6329 5.48866   1
   4   0   3 36.2213 5.96867   2
   4   0   3 49.4001 5.57321   3
   4   0   3 47.6576 5.38007   1
  -5   0  -3 245.365 13.0169   1
   5   0   3 230.083 11.3683   1
   5   0   3 241.188 13.9198   2
   6   0   3 55.6191 8.37021   2
   6   0   3 59.0751 7.02711   1
   7   0   3 1.08253 2.57629   2
   7   0   3 -1.5581 2.15047   1
   8  -1  -3 9.59101 4.61778   3
   8  -1  -3 6.30873 3.87833   1
  -8   1   3 5.57739 3.79604   1
   7  -1  -3 -1.3742 1.88489   1
   7  -1  -3 1.29827 2.37269   3
  -7   1   3 1.16375 2.65168   1
   6  -1  -3 29.5297 5.53400   1
   6  -1  -3 28.8614 5.21039   3
  -6   1   3 15.4599 3.97907   1
   5  -1  -3 163.576 9.34390   1
   5  -1  -3 165.735 8.83193   3
  -5   1   3 160.598 8.84224   1
   4  -1  -3 121.214 7.12495   1
   4  -1  -3 119.208 6.50105   3
  -4   1   3 115.415 6.51261   1
  -4   1   3 133.241 8.09646   1
   3  -1  -3 1.46701 1.06300   3
   3  -1  -3 0.59905 0.95791   1
  -3   1   3 1.28217 1.31055   1
  -3   1   3 2.16467 1.30247   1
   2  -1  -3 1099.28 27.8067   1
   2  -1  -3 1134.78 27.3853   3
   2  -1  -3 1155.76 28.5621   1
  -2   1   3 1138.09 28.8547   1
  -2   1   3 1129.80 27.6598   1
   1  -1  -3 1546.29 35.2555   1
   1  -1  -3 1505.81 35.2531   1
   1  -1  -3 1521.99 35.1161   3
   1  -1  -3 1497.06 36.0569   2
  -1   1   3 1513.50 35.0963   1
  -1   1   3 1528.72 35.8016   2
  -1   1   3 1537.81 35.2042   1
   0  -1  -3 317.485 8.38660   1
   0  -1  -3 308.841 10.4184   2
   0  -1  -3 307.975 7.97753   1
   0   1   3 306.825 10.0183   2
  -1  -1  -3 284.458 8.52536   3
  -1  -1  -3 289.401 9.11499   1
   1   1   3 291.170 7.74836   1
   1   1   3 292.507 7.49134   1
   1   1   3 281.138 10.7165   2
  -2  -1  -3 68.7426 4.56293   1
  -2  -1  -3 80.3203 4.33120   3
   2   1   3 74.0735 4.25275   1
   2   1   3 75.6548 6.89352   2
   2   1   3 81.0150 3.82929   1
   2   1   3 77.8489 3.70930   3
  -3  -1  -3 169.922 7.57000   3
  -3  -1  -3 164.982 8.17156   1
   3   1   3 124.381 6.35365   3
   3   1   3 170.816 9.48345   2
   3   1   3 168.609 6.98950   1
  -4  -1  -3 83.8134 7.90989   1
   4   1   3 72.4011 5.09423   1
   4   1   3 47.8309 5.95004   1
   4   1   3 69.9044 7.95349   2
   5   1   3 83.9741 7.51369   1
   5   1   3 71.1327 9.06046   2
   6   1   3 39.3681 7.09642   2
   7   1   3 -4.1606 2.88605   2
   8  -2  -3 1.18182 3.10876   1
   8  -2  -3 5.20588 3.47433   3
  -8   2   3 2.03197 3.15489   1
   7  -2  -3 50.9144 7.76818   1
   7  -2  -3 50.6572 7.44008   3
  -7   2   3 65.2633 8.34086   1
   6  -2  -3 536.216 20.5920   3
   6  -2  -3 579.853 21.9662   1
  -6   2   3 595.706 20.9493   1
   5  -2  -3 -0.0244 1.11166   3
   5  -2  -3 4.58679 2.45288   1
  -5   2   3 -0.1650 1.73618   1
   4  -2  -3 99.9078 5.97988   3
   4  -2  -3 108.835 6.87087   1
  -4   2   3 112.257 9.36337   1
  -4   2   3 103.707 6.06376   1
   3  -2  -3 92.8642 4.81518   3
   3  -2  -3 87.7278 5.40415   1
  -3   2   3 88.1228 4.70410   1
  -3   2   3 100.140 6.14102   1
   2  -2  -3 19.0712 2.46739   1
   2  -2  -3 11.4100 1.61624   3
  -2   2   3 14.0301 1.72978   1
   1  -2  -3 1655.84 39.9830   2
   1  -2  -3 1645.69 37.9310   1
   1  -2  -3 1641.28 37.3823   1
   0   2   3 81.2545 4.57755   2
  -1  -2  -3 34.5041 2.40790   1
   1   2   3 40.8206 4.52581   2
  -2  -2  -3 270.534 9.77473   1
  -2  -2  -3 267.294 9.19509   3
   2   2   3 279.396 8.38880   1
   2   2   3 272.835 11.7376   2
  -3  -2  -3 37.4212 4.32061   3
  -3  -2  -3 39.6400 4.74704   1
   3   2   3 36.6562 5.48195   2
   3   2   3 34.1129 4.03785   1
  -4  -2  -3 5.42029 2.58510   1
   4   2   3 9.21370 3.31388   2
   4   2   3 10.6721 2.91590   1
   5   2   3 29.3600 6.14146   2
   6   2   3 86.4446 10.9151   2
   8  -3  -3 -1.4944 2.17376   3
   8  -3  -3 -0.2983 3.11064   1
  -8   3   3 -0.5392 2.69823   1
   7  -3  -3 20.6335 5.54606   1
   7  -3  -3 19.6427 4.93416   3
  -7   3   3 16.5843 4.56760   1
   6  -3  -3 5.70289 2.92150   1
   6  -3  -3 9.13195 3.19634   3
  -6   3   3 6.47869 2.95397   1
   5  -3  -3 509.509 17.9496   3
   5  -3  -3 506.927 19.2697   1
  -5   3   3 524.017 17.8565   1
  -5   3   3 500.682 20.8993   1
   4  -3  -3 168.823 8.82236   1
   4  -3  -3 166.565 7.84535   3
  -4   3   3 148.411 9.14530   1
  -4   3   3 146.727 7.41922   1
   3  -3  -3 319.652 12.1763   1
   3  -3  -3 334.941 10.8529   3
  -3   3   3 313.261 12.1841   1
  -3   3   3 317.310 10.4141   1
   2  -3  -3 2243.00 52.0625   3
   2  -3  -3 2236.96 53.9220   1
  -2   3   3 2288.66 52.8805   1
  -2   3   3 2251.62 51.4536   1
   1  -3  -3 574.069 13.9339   1
   1  -3  -3 583.706 14.5725   1
   0   3   3 18.1887 2.74895   2
  -1  -3  -3 26.0582 2.44306   1
   1   3   3 31.0476 4.13220   2
  -2  -3  -3 148.319 6.23071   3
  -2  -3  -3 152.168 6.72002   1
   2   3   3 156.861 8.63527   2
  -3  -3  -3 94.5307 6.31914   1
  -3  -3  -3 105.316 6.05559   3
   3   3   3 110.225 7.95615   2
   3   3   3 116.077 5.29977   1
   3   3   3 111.427 4.80089   1
   4   3   3 1.60009 2.25158   1
   4   3   3 3.63951 2.66926   2
   4   3   3 0.27537 1.17987   1
   5   3   3 39.0097 4.75390   1
   5   3   3 44.9649 7.33013   2
   6   3   3 4.90287 3.95101   2
   6   3   3 2.57307 2.37699   1
   8  -4  -3 0.13960 3.73858   1
   8  -4  -3 2.98909 3.27049   3
  -8   4   3 2.23536 3.20956   1
   7  -4  -3 31.1385 6.14724   3
   7  -4  -3 28.6226 6.45881   1
  -7   4   3 25.0267 5.30652   1
   6  -4  -3 283.047 13.9335   3
   6  -4  -3 298.128 15.0995   1
  -6   4   3 292.579 13.4820   1
   5  -4  -3 19.6677 4.32629   1
   5  -4  -3 25.5544 4.23365   3
  -5   4   3 12.6750 3.95075   1
  -5   4   3 11.9661 3.11919   1
   4  -4  -3 223.980 11.1423   1
   4  -4  -3 225.595 9.79870   3
  -4   4   3 243.508 9.64333   1
  -4   4   3 241.165 11.7896   1
   3  -4  -3 1.87577 1.37152   1
   3  -4  -3 -0.7146 0.71862   3
  -3   4   3 0.91688 1.05647   1
  -3   4   3 -0.2444 0.72428   1
   2  -4  -3 58.7893 3.24580   3
   2  -4  -3 62.9064 5.25425   1
   1  -4  -3 365.318 10.4037   1
   0   4   3 22.6047 3.41226   2
  -1  -4  -3 72.2770 3.49860   1
   1   4   3 81.2502 7.08705   2
  -2  -4  -3 53.3607 4.58607   1
  -2  -4  -3 52.9222 3.47553   3
   2   4   3 47.0414 6.04109   2
   3   4   3 50.5087 6.63669   2
   4   4   3 1.25665 2.25509   2
   5   4   3 0.42336 1.56810   1
   5   4   3 5.09820 3.12172   2
   8  -5  -3 -1.1178 3.38986   1
   8  -5  -3 3.22206 3.29407   3
  -8   5   3 2.54227 3.47372   1
   7  -5  -3 1.00943 2.18304   3
   7  -5  -3 5.74187 3.72946   1
  -7   5   3 -2.2458 2.22099   1
   6  -5  -3 20.9316 5.29892   1
   6  -5  -3 15.0957 4.10472   3
  -6   5   3 14.5297 3.81447   1
   5  -5  -3 900.119 29.7197   1
   5  -5  -3 874.330 27.4181   3
  -5   5   3 866.223 26.2958   1
  -5   5   3 859.399 29.8669   1
   4  -5  -3 65.2437 7.32513   1
   4  -5  -3 49.9767 5.54948   3
  -4   5   3 57.9244 5.05690   1
  -4   5   3 58.6926 6.64956   1
   3  -5  -3 13.6298 3.21510   1
   3  -5  -3 13.1901 2.55246   3
  -3   5   3 9.73586 2.28846   1
  -3   5   3 18.1786 2.28937   1
   2  -5  -3 222.059 7.84287   3
   2  -5  -3 216.674 9.17782   1
   1  -5  -3 354.624 11.0266   1
   0  -5  -3 54.6058 2.90255   1
  -1  -5  -3 0.59468 1.04462   1
   1   5   3 2.35448 1.92069   2
  -2  -5  -3 55.7000 4.89097   3
   2   5   3 58.2747 6.91435   2
   3   5   3 20.4575 4.71000   2
   4   5   3 -1.6453 2.02758   2
   5   5   3 -1.0752 2.83053   2
   8  -6  -3 1.23313 3.10183   3
   8  -6  -3 -2.7965 3.08764   1
  -8   6   3 3.39481 3.73348   1
   7  -6  -3 51.4356 8.04794   1
   7  -6  -3 37.0608 6.76020   3
  -7   6   3 36.2720 5.96043   1
   6  -6  -3 152.908 13.4805   1
   6  -6  -3 144.178 9.97616   3
  -6   6   3 139.775 9.07070   1
   5  -6  -3 58.6678 7.92727   1
   5  -6  -3 44.6547 6.13846   3
  -5   6   3 43.5118 5.55260   1
   4  -6  -3 487.610 17.2743   3
   4  -6  -3 485.332 19.2894   1
  -4   6   3 506.096 15.6217   1
   3  -6  -3 68.7196 6.99162   1
   3  -6  -3 65.6348 5.93971   3
  -3   6   3 65.8587 3.47165   1
  -3   6   3 71.7589 4.22208   1
   2  -6  -3 774.269 21.0566   3
   2  -6  -3 749.364 22.8486   1
   1  -6  -3 40.9490 4.27986   1
   0  -6  -3 245.451 8.68381   1
   2   6   3 -0.3391 1.68966   2
   3   6   3 31.2076 5.76117   2
   4   6   3 0.93996 2.92430   2
   8  -7  -3 16.2051 5.37488   3
  -8   7   3 17.6309 5.41452   1
   7  -7  -3 7.43991 3.46709   3
  -7   7   3 8.03018 3.71268   1
   6  -7  -3 0.78820 1.96334   3
  -6   7   3 0.60333 2.16800   1
   5  -7  -3 408.170 17.4056   3
  -5   7   3 443.010 15.5592   1
   4  -7  -3 168.202 10.9576   1
   4  -7  -3 178.809 9.62210   3
  -4   7   3 176.250 8.91341   1
  -4   7   3 188.742 7.83447   1
   3  -7  -3 -0.0716 1.44577   3
   3  -7  -3 -1.0349 1.72690   1
   2  -7  -3 187.819 9.89943   1
   2  -7  -3 201.914 8.63527   3
   1  -7  -3 576.676 17.0278   3
   7  -8  -3 62.9878 9.36872   3
  -7   8   3 55.5280 7.44721   1
   6  -8  -3 3.80153 2.79285   3
  -6   8   3 3.41250 2.90707   1
   5  -8  -3 146.424 10.0464   3
  -5   8   3 146.285 8.03210   1
   4  -8  -3 197.326 10.9148   3
  -4   8   3 198.837 7.72102   1
   3  -8  -3 228.452 10.8029   3
   2  -8  -3 166.555 8.32773   3
   1  -8  -3 3.26181 1.87475   3
   0  -8  -3 65.8663 5.85296   3
   7  -9  -3 4.00847 3.52444   3
  -7   9   3 0.38783 3.13751   1
   6  -9  -3 -0.7468 2.23474   3
  -6   9   3 -0.5692 2.53972   1
   5  -9  -3 20.7324 5.28595   3
  -5   9   3 19.3984 3.52819   1
   4  -9  -3 359.076 16.0361   3
   3  -9  -3 2.32175 2.17913   3
   2  -9  -3 12.2650 3.07203   3
   1  -9  -3 9.24826 2.86081   3
   0  -9  -3 -0.0788 1.83487   3
  -1  -9  -3 4.19078 2.25949   3
   6 -10  -3 12.1382 4.98713   3
  -6  10   3 5.59628 2.93789   1
   5 -10  -3 69.1783 8.96755   3
  -5  10   3 81.1014 5.05063   1
   4 -10  -3 -0.0974 2.16416   3
   3 -10  -3 47.4244 6.67580   3
   2 -10  -3 9.84772 3.15329   3
   1 -10  -3 10.6626 3.34871   3
   0 -10  -3 -3.8638 1.53220   3
   4 -11  -3 67.8134 8.54640   3
   3 -11  -3 8.79939 3.57361   3
   2 -11  -3 2.62566 3.05934   3
  -1  12  -4 20.9471 5.76385   1
   1 -12   4 21.4612 6.16255   3
  -2  12  -4 0.70878 3.48301   1
   2 -12   4 3.76950 3.22159   3
  -3  12  -4 0.25200 3.53109   1
   3 -12   4 7.86782 4.39615   3
   1  11  -4 4.86247 3.77932   1
  -1 -11   4 0.73871 2.94282   3
   0  11  -4 23.3422 5.87510   1
   0 -11   4 31.0914 6.43185   3
  -1  11  -4 0.71722 3.21759   1
   1 -11   4 2.28222 2.96600   3
  -2  11  -4 30.0960 6.37846   1
   2 -11   4 27.5554 6.45622   3
  -3  11  -4 43.5390 7.79920   1
   3 -11   4 51.6005 8.34369   3
  -4  11  -4 11.4064 5.09710   1
   4 -11   4 16.9781 5.80584   3
  -5  11  -4 10.5198 5.50092   1
   5 -11   4 7.78303 4.73794   3
   3  10  -4 36.5072 6.75547   1
   2  10  -4 40.2652 7.29013   1
  -2 -10   4 30.9726 6.35604   3
   1  10  -4 1.02620 2.58316   1
  -1 -10   4 -0.9444 2.14985   3
   0  10  -4 -2.0938 2.30042   1
   0 -10   4 2.60942 2.71089   3
  -1  10  -4 26.6297 5.98452   1
   1 -10   4 24.0409 5.58985   3
  -2  10  -4 10.2113 4.07080   1
   2 -10   4 10.2171 3.99133   3
   2 -10   4 6.10366 4.52862   1
  -3  10  -4 15.4274 4.92010   1
   3 -10   4 14.2672 4.84718   3
   3 -10   4 8.78940 5.07089   1
  -4  10  -4 3.58887 3.67659   1
   4 -10   4 -0.8584 4.29589   1
   4 -10   4 2.51648 2.79398   3
  -5  10  -4 -2.0207 3.09039   1
   5 -10   4 1.85962 3.10765   3
   5 -10   4 6.16242 4.86151   1
  -6  10  -4 15.2015 6.49413   1
   6 -10   4 29.6354 9.48574   1
   4   9  -4 18.3967 4.92781   1
   3   9  -4 254.133 14.1388   1
   2   9  -4 -0.0442 2.23323   1
  -2  -9   4 0.99651 2.20783   3
   1   9  -4 6.14042 2.94747   1
  -1  -9   4 -2.2819 1.87513   3
   0   9  -4 17.0290 4.49933   1
   0  -9   4 16.5761 5.75541   1
   0  -9   4 20.8199 4.94513   3
  -1   9  -4 29.6235 5.95802   1
   1  -9   4 19.6062 5.13724   3
   1  -9   4 24.6298 6.49982   1
  -2   9  -4 20.2596 5.20765   1
   2  -9   4 19.4259 5.09467   3
   2  -9   4 15.9369 5.57376   1
  -3   9  -4 4.65074 3.08965   1
   3  -9   4 6.36746 4.37849   1
   3  -9   4 4.56239 2.99975   3
  -4   9  -4 4.92733 3.89637   1
   4  -9   4 14.4743 5.92330   1
   4  -9   4 9.25526 3.91242   3
  -5   9  -4 7.10198 4.75112   1
   5  -9   4 9.79900 5.49311   1
   5  -9   4 2.63248 3.11654   3
  -6   9  -4 9.02051 4.93734   1
   6  -9   4 1.20745 3.89884   1
   6  -9   4 6.34141 4.10937   3
   5   8  -4 10.3011 4.05059   1
   4   8  -4 1.34955 2.40583   1
   3   8  -4 3.04362 2.49331   1
   2   8  -4 13.0320 4.09591   1
  -2  -8   4 12.0551 3.88092   3
  -2  -8   4 14.3421 4.71699   1
   1   8  -4 -0.3688 1.86924   1
  -1  -8   4 -2.6643 2.35018   1
  -1  -8   4 -2.5011 1.60250   3
   0   8  -4 20.5540 4.76517   1
   0   8  -4 11.6246 3.13836   3
   0  -8   4 19.3678 4.46862   3
   0  -8   4 15.5875 4.69668   1
  -1   8  -4 204.052 10.5834   3
  -1   8  -4 238.088 12.9099   1
   1  -8   4 214.873 11.7889   3
   1  -8   4 196.768 13.2396   1
  -2   8  -4 13.8225 4.02677   1
   2  -8   4 17.1174 4.44385   3
   2  -8   4 18.4596 5.34852   1
  -3   8  -4 62.1708 8.53121   1
   3  -8   4 39.3976 6.50159   3
   3  -8   4 56.7239 9.07566   1
  -4   8  -4 3.66819 3.01929   1
   4  -8   4 1.39437 2.29232   3
   4  -8   4 -1.2577 2.82735   1
  -5   8  -4 -0.1142 3.29967   1
   5  -8   4 -1.6024 2.07172   3
   5  -8   4 -2.4187 3.19048   1
  -6   8  -4 35.0618 7.98742   1
   6  -8   4 21.0063 7.07013   1
   6  -8   4 29.3950 6.63408   3
  -7   8  -4 5.98434 4.49726   1
   5   7  -4 5.58614 3.13114   1
   4   7  -4 -0.9462 1.83152   1
   3   7  -4 178.970 10.9095   1
  -3  -7   4 166.188 11.2405   1
   2   7  -4 193.806 11.1296   1
   2   7  -4 173.900 8.88816   3
  -2  -7   4 216.364 11.7737   3
  -2  -7   4 223.296 12.6318   1
   1   7  -4 13.9463 3.09738   3
   1   7  -4 4.25262 2.23776   1
   1   7  -4 9.43466 3.22014   1
  -1  -7   4 10.3375 3.45702   3
  -1  -7   4 5.09079 3.32882   1
   0   7  -4 3.18900 2.08434   1
   0   7  -4 4.29321 2.06240   3
   0   7  -4 3.68294 2.39194   1
   0  -7   4 6.50708 2.58491   3
   0  -7   4 2.03600 2.69103   1
  -1   7  -4 14.6201 3.85203   1
  -1   7  -4 13.0506 3.49291   1
   1  -7   4 16.0498 4.53305   1
   1  -7   4 15.3813 3.76079   3
  -2   7  -4 46.0841 6.79217   1
   2  -7   4 58.0776 8.37438   1
   2  -7   4 52.1835 6.68575   3
  -3   7  -4 0.08260 1.84325   1
   3  -7   4 1.00486 3.12470   1
   3  -7   4 2.03416 2.11081   3
  -4   7  -4 1.55812 2.99953   1
   4  -7   4 1.59817 2.27227   3
   4  -7   4 1.20410 2.90939   1
  -5   7  -4 1.62459 3.14703   1
   5  -7   4 -2.2897 2.82920   1
   5  -7   4 0.95989 2.56345   3
  -6   7  -4 7.07997 4.45323   1
   6  -7   4 10.0964 4.23440   3
   6  -7   4 1.34165 3.97525   1
  -7   7  -4 10.6796 5.50303   1
   7  -7   4 21.2323 6.87979   1
   6   6  -4 1.34804 2.57595   1
   5   6  -4 3.08115 2.59494   1
   4   6  -4 2.65187 2.21651   1
  -4  -6   4 0.83919 2.67155   1
   3   6  -4 294.271 14.0503   1
   3   6  -4 308.601 12.0462   3
  -3  -6   4 317.230 14.6957   1
   2   6  -4 16.9397 3.32642   3
   2   6  -4 14.3175 3.70080   1
   2   6  -4 9.97721 2.72826   1
  -2  -6   4 5.10713 2.94737   1
  -2  -6   4 12.4998 3.34272   3
   1   6  -4 10.7937 2.72328   3
   1   6  -4 5.69522 2.26832   1
   1   6  -4 6.65491 2.28541   1
  -1  -6   4 8.85645 3.08745   1
  -1  -6   4 10.4314 3.16768   3
   0   6  -4 9.48459 2.85613   1
   0   6  -4 7.62389 2.35609   3
   0   6  -4 11.7189 2.92329   1
   0  -6   4 16.7961 4.14274   1
   0  -6   4 9.44969 2.88396   3
  -1   6  -4 46.1629 6.05303   1
  -1   6  -4 42.7571 6.00915   1
   1  -6   4 42.7263 5.78384   3
   1  -6   4 45.5049 6.52576   1
  -2   6  -4 49.0563 6.73372   1
   2  -6   4 39.5368 6.66020   1
   2  -6   4 65.2456 7.52285   3
  -3   6  -4 2.96762 2.48911   1
   3  -6   4 4.02351 3.16747   1
   3  -6   4 7.56683 3.07881   3
  -4   6  -4 3.29775 2.83154   1
   4  -6   4 4.08555 2.63511   3
   4  -6   4 7.02652 3.91243   1
  -5   6  -4 4.78715 3.60929   1
   5  -6   4 -0.2030 2.07413   3
   5  -6   4 3.78273 3.31859   1
  -6   6  -4 8.91677 4.42337   1
   6  -6   4 13.6352 5.57056   1
   6  -6   4 15.8085 5.06766   3
  -7   6  -4 38.7810 8.53342   1
   7  -6   4 46.0208 9.51147   1
   6   5  -4 1.86235 2.49915   1
   5   5  -4 70.9640 8.40233   1
  -5  -5   4 78.6327 8.90433   1
   4   5  -4 113.396 6.99991   3
   4   5  -4 104.216 9.55846   1
  -4  -5   4 110.441 9.87540   1
   3   5  -4 313.215 13.9081   1
   3   5  -4 289.059 12.3698   1
   3   5  -4 314.476 11.8828   3
  -3  -5   4 347.334 14.3393   1
   2   5  -4 361.563 13.8012   1
   2   5  -4 395.605 13.6622   3
   2   5  -4 412.079 15.6854   1
  -2  -5   4 395.919 15.3910   3
  -2  -5   4 425.638 16.0345   1
   1   5  -4 27.9721 4.28458   1
   1   5  -4 30.8057 4.15393   3
   1   5  -4 36.9167 4.59542   1
  -1  -5   4 41.9788 5.01264   3
  -1  -5   4 42.5240 5.52517   1
   0   5  -4 215.417 10.1588   1
   0   5  -4 219.793 10.6000   1
   0  -5   4 240.948 10.4261   3
   0  -5   4 217.248 11.0985   1
  -1   5  -4 15.9346 3.60706   1
  -1   5  -4 11.8731 3.62444   1
   1  -5   4 8.52237 2.98177   1
   1  -5   4 10.8394 2.84019   3
  -2   5  -4 375.002 15.8233   1
   2  -5   4 352.085 14.4015   3
   2  -5   4 384.210 16.8945   1
  -3   5  -4 -1.1452 1.65442   1
   3  -5   4 -0.3424 1.36831   3
   3  -5   4 -0.9700 1.38871   1
  -4   5  -4 4.82018 2.86116   1
   4  -5   4 3.91042 2.63611   3
   4  -5   4 3.21721 3.02709   1
  -5   5  -4 5.41863 3.33346   1
   5  -5   4 14.9569 4.31682   3
   5  -5   4 17.4510 5.30809   1
  -6   5  -4 39.5713 7.47109   1
   6  -5   4 51.3848 7.82638   3
   6  -5   4 26.7798 6.30721   1
  -7   5  -4 22.6318 6.62077   1
   7  -5   4 19.3847 6.21579   1
   7   4  -4 10.1778 3.99323   1
   6   4  -4 90.5167 9.85957   1
  -6  -4   4 91.1519 9.82343   1
   5   4  -4 22.8032 4.34184   3
   5   4  -4 33.2833 5.87258   1
  -5  -4   4 32.7406 5.67176   1
   4   4  -4 73.1458 6.57894   3
   4   4  -4 64.0222 7.47070   1
  -4  -4   4 62.7718 7.03902   1
   3   4  -4 76.0903 5.03427   3
   3   4  -4 71.5421 7.07793   1
   3   4  -4 65.5776 6.19148   1
  -3  -4   4 77.7210 7.21318   1
  -3  -4   4 71.8797 4.48011   2
   2   4  -4 164.670 7.73784   1
   2   4  -4 156.440 8.45062   1
   2   4  -4 169.223 7.48864   3
  -2  -4   4 153.302 6.13190   2
  -2  -4   4 156.668 8.36944   3
  -2  -4   4 165.292 8.59831   1
   1   4  -4 144.758 7.13393   1
   1   4  -4 131.719 7.50079   1
   1   4  -4 142.414 6.88253   3
  -1  -4   4 106.710 6.54729   3
  -1  -4   4 139.545 7.70414   1
   0   4  -4 4.56269 1.82829   1
   0   4  -4 4.59337 1.85442   1
   0  -4   4 3.79624 1.80940   1
   0  -4   4 6.71418 2.18427   3
  -1   4  -4 2.42120 1.71744   1
   1  -4   4 2.12426 1.48200   3
   1  -4   4 1.63887 1.70241   1
  -2   4  -4 5.17418 2.34060   1
   2  -4   4 3.48438 2.17594   1
   2  -4   4 1.49033 1.28750   3
  -3   4  -4 2.45863 2.17742   1
   3  -4   4 12.8040 3.28661   3
   3  -4   4 6.25922 2.75435   1
  -4   4  -4 113.899 10.7267   1
   4  -4   4 107.833 9.41610   3
   4  -4   4 98.9749 10.5245   1
  -5   4  -4 64.8833 8.77370   1
   5  -4   4 46.5408 7.45556   1
   5  -4   4 40.0719 6.34207   3
  -6   4  -4 5.71146 4.03104   1
   6  -4   4 11.7708 4.62986   1
  -7   4  -4 10.9871 5.06574   1
   7  -4   4 11.0931 4.61936   1
   7   3  -4 1.32977 2.77983   1
  -7  -3   4 4.18475 3.34080   1
   6   3  -4 16.1582 3.09045   2
   6   3  -4 7.60581 3.48157   1
  -6  -3   4 8.08892 3.65653   1
   5   3  -4 267.701 12.1741   3
   5   3  -4 269.350 13.8774   1
   5   3  -4 267.083 9.79453   2
  -5  -3   4 278.839 13.1878   1
   4   3  -4 7.90943 2.77312   1
   4   3  -4 2.48926 1.11492   2
   4   3  -4 3.34266 1.93956   3
  -4  -3   4 2.67946 2.06061   1
   3   3  -4 119.275 7.87467   1
   3   3  -4 124.025 7.60214   1
   3   3  -4 144.336 6.74861   3
  -3  -3   4 122.277 7.23015   1
   2   3  -4 444.904 13.7144   3
   2   3  -4 430.951 14.9569   1
   2   3  -4 411.255 13.9353   1
  -2  -3   4 423.991 14.6561   1
  -2  -3   4 422.185 14.9820   3
  -2  -3   4 421.006 11.3845   2
   1   3  -4 584.049 17.5244   1
   1   3  -4 558.987 17.0917   3
   1   3  -4 569.921 18.0067   1
  -1  -3   4 567.956 17.9159   1
  -1  -3   4 580.635 18.2623   1
  -1  -3   4 601.928 17.8600   3
   0   3  -4 920.489 26.0782   1
   0   3  -4 922.468 26.0811   1
   0  -3   4 913.336 25.5693   1
   0  -3   4 931.701 26.8127   1
   0  -3   4 919.660 25.2652   3
  -1   3  -4 0.39166 1.06904   1
   1  -3   4 1.20523 1.36373   1
   1  -3   4 -0.5485 0.76905   3
   1  -3   4 1.25420 1.17146   1
  -2   3  -4 72.9088 7.43409   1
   2  -3   4 84.2183 5.53228   3
   2  -3   4 84.1246 8.06886   1
   2  -3   4 83.7063 7.55821   1
  -3   3  -4 111.781 9.68281   1
   3  -3   4 91.3185 7.69352   3
   3  -3   4 88.6359 8.77666   1
   3  -3   4 89.7019 8.67797   1
  -4   3  -4 151.283 12.7556   1
   4  -3   4 126.736 11.0330   1
   4  -3   4 126.054 8.38662   3
   4  -3   4 113.439 14.7222   1
  -5   3  -4 179.934 12.0586   1
   5  -3   4 202.084 12.4999   1
   5  -3   4 175.792 10.9773   3
  -6   3  -4 8.22238 4.00980   1
   6  -3   4 7.06811 3.63728   1
   7  -3   4 14.8511 4.73148   1
  -8  -2   4 1.87246 4.05641   1
  -7  -2   4 70.1740 8.60106   1
   6   2  -4 62.5153 5.70588   2
   6   2  -4 64.8129 7.82816   3
  -6  -2   4 52.7622 7.05307   1
   5   2  -4 67.0554 6.62852   3
   5   2  -4 76.7305 4.51603   2
  -5  -2   4 69.1744 7.24561   1
   4   2  -4 74.4547 3.63152   2
   4   2  -4 81.3568 5.47394   3
  -4  -2   4 75.4259 7.01933   1
   3   2  -4 36.0250 3.91189   3
  -3  -2   4 34.1584 4.24364   1
   2   2  -4 1541.89 39.2751   1
   2   2  -4 1524.95 38.1295   1
   2   2  -4 1487.22 37.5910   3
  -2  -2   4 1514.24 38.6199   1
   1   2  -4 1491.91 37.8504   1
   1   2  -4 1512.50 38.3138   1
   1   2  -4 1578.57 37.8297   3
  -1  -2   4 1539.81 38.0866   3
  -1  -2   4 1531.75 38.2577   1
  -1  -2   4 1443.88 38.3298   1
   0   2  -4 8.89758 2.10617   1
   0   2  -4 11.9040 2.59247   1
   0  -2   4 9.81555 2.39725   1
   0  -2   4 7.58697 1.94909   1
   0  -2   4 13.2391 2.33652   3
  -1   2  -4 371.931 13.2175   1
   1  -2   4 355.770 13.5172   1
   1  -2   4 384.609 12.3069   3
   1  -2   4 363.059 12.6595   1
  -2   2  -4 31.5121 4.62573   1
   2  -2   4 37.0469 4.59369   1
   2  -2   4 42.1632 5.27556   1
   2  -2   4 46.9445 4.88089   3
  -3   2  -4 9.65406 2.91939   1
   3  -2   4 9.68764 2.64180   1
   3  -2   4 5.62084 1.98103   3
   3  -2   4 8.44447 2.76029   1
  -4   2  -4 158.489 10.2201   1
   4  -2   4 162.066 10.1723   1
   4  -2   4 156.654 9.80937   1
   4  -2   4 165.556 9.25205   3
  -5   2  -4 153.478 10.8840   1
   5  -2   4 155.253 10.2107   1
  -6   2  -4 -0.1281 2.63177   1
   6  -2   4 -0.1344 2.15398   1
   7  -2   4 11.2608 5.46886   2
   7  -2   4 2.86247 2.62277   1
  -8  -1   4 1.00165 3.44011   1
   7   1  -4 -0.9963 2.38465   3
  -7  -1   4 0.68641 2.83583   1
   6   1  -4 48.7185 6.42530   3
   6   1  -4 40.3015 4.61460   2
  -6  -1   4 53.7395 6.83746   1
   5   1  -4 5.43800 2.35919   3
   5   1  -4 10.3098 2.06842   2
  -5  -1   4 6.19828 2.62189   1
   4   1  -4 187.785 6.54650   2
   4   1  -4 178.591 8.41011   3
  -4  -1   4 203.738 9.28477   1
   3   1  -4 18.4135 2.62301   3
  -3  -1   4 26.3709 3.52196   1
  -3  -1   4 17.4848 2.92746   1
   2   1  -4 638.991 19.6161   1
   2   1  -4 670.121 18.2817   3
  -2  -1   4 671.209 18.9744   1
  -2  -1   4 675.182 18.8020   1
   1   1  -4 1776.70 41.8537   3
   1   1  -4 1740.66 42.2465   1
   1   1  -4 1710.69 41.9848   1
   1   1  -4 1658.41 41.8366   3
  -1  -1   4 1746.42 42.0119   3
  -1  -1   4 1728.23 42.4249   1
  -1  -1   4 1744.72 40.1212   2
   0   1  -4 462.773 14.0176   3
   0   1  -4 510.141 15.1140   1
   0   1  -4 515.841 14.8036   1
   0  -1   4 463.923 13.9085   1
   0  -1   4 496.026 13.8136   3
   0  -1   4 502.001 15.2002   1
  -1   1  -4 32.2874 3.92331   1
  -1   1  -4 27.6044 3.29340   3
   1  -1   4 30.6864 3.81240   1
   1  -1   4 33.7375 3.56049   1
   1  -1   4 32.4203 3.26206   3
  -2   1  -4 1292.86 35.1114   1
  -2   1  -4 1267.39 33.7829   3
   2  -1   4 1273.89 33.1367   3
   2  -1   4 1323.05 34.3512   1
   2  -1   4 1302.58 34.5972   1
  -3   1  -4 78.3582 7.45256   1
   3  -1   4 76.1448 5.25016   3
   3  -1   4 69.6472 6.89856   1
   3  -1   4 73.4170 6.79272   1
  -4   1  -4 95.3723 9.08581   1
   4  -1   4 93.3908 8.89918   1
   4  -1   4 102.265 7.08865   1
   4  -1   4 91.8556 7.78049   3
  -5   1  -4 134.414 11.8783   1
   5  -1   4 144.278 9.28150   1
   5  -1   4 156.188 13.9654   2
   6  -1   4 -0.6228 3.34175   2
   6  -1   4 0.27408 1.85200   1
   7  -1   4 5.29284 4.10649   2
   7  -1   4 6.88250 3.33241   1
  -8   0   4 10.9082 4.67276   1
   7   0  -4 167.688 10.8146   3
   7   0  -4 151.796 13.1297   1
   7   0  -4 141.691 8.72226   2
  -7   0   4 156.156 10.8176   1
   6   0  -4 14.3667 3.89111   3
   6   0  -4 14.4325 4.13016   1
   6   0  -4 21.1102 3.52155   2
  -6   0   4 19.0770 4.52616   1
   5   0  -4 193.397 10.3829   1
   5   0  -4 184.616 9.59179   3
  -5   0   4 233.644 10.7363   1
   4   0  -4 349.765 13.4651   1
   4   0  -4 350.813 12.4770   3
  -4   0   4 352.053 12.9303   1
   3   0  -4 394.623 13.2339   1
   3   0  -4 391.557 12.1913   3
  -3   0   4 359.888 13.2146   1
  -3   0   4 382.451 12.6120   1
   2   0  -4 7.36290 1.59516   3
   2   0  -4 7.29131 1.02599   2
  -2   0   4 7.55862 1.70998   1
  -2   0   4 6.49746 1.54322   1
   1   0  -4 40.7695 2.76781   3
   1   0  -4 48.4048 3.01175   1
   1   0  -4 42.1615 2.91566   1
   1   0  -4 43.3929 2.70118   2
  -1   0   4 38.6018 2.41599   2
  -1   0   4 40.5739 2.91069   1
  -1   0   4 40.1916 2.46541   1
   0   0  -4 2358.34 54.6495   1
   0   0  -4 2305.22 54.1899   3
   0   0  -4 2315.65 55.1743   1
   0   0   4 2359.33 55.8348   2
   0   0   4 2390.25 54.6712   1
   0   0   4 2296.24 53.3448   3
  -1   0  -4 1441.93 35.3444   3
  -1   0  -4 1436.85 36.1892   1
   1   0   4 1471.94 37.9317   2
   1   0   4 1441.77 35.2579   1
   1   0   4 1410.99 34.8821   1
   1   0   4 1461.78 34.2818   3
  -2   0  -4 15.9088 3.20135   1
  -2   0  -4 17.2261 2.80446   3
   2   0   4 11.5036 2.88370   2
   2   0   4 12.4177 2.26190   1
  -3   0  -4 24.7354 4.29197   1
  -3   0  -4 29.1468 4.04279   3
   3   0   4 24.0425 4.49043   2
   3   0   4 29.9994 3.81839   1
   3   0   4 26.5796 4.07633   1
  -4   0  -4 5.91931 2.70605   1
   4   0   4 12.9774 3.63764   1
   4   0   4 7.67305 3.20065   2
   4   0   4 6.66388 2.25608   1
   5   0   4 376.708 15.2831   1
   5   0   4 402.231 19.0744   2
   6   0   4 2.08490 3.37879   2
   6   0   4 4.77694 2.75946   1
   8  -1  -4 0.93435 2.95900   1
   8  -1  -4 7.66888 4.01140   3
  -8   1   4 6.40985 4.21116   1
   7  -1  -4 5.03277 2.58998   3
   7  -1  -4 11.4978 4.29343   1
  -7   1   4 2.98678 3.15173   1
   6  -1  -4 107.139 9.59040   3
   6  -1  -4 127.105 10.9626   1
  -6   1   4 105.205 9.26165   1
   5  -1  -4 181.246 9.24857   3
   5  -1  -4 168.479 9.73056   1
  -5   1   4 190.391 9.57663   1
   4  -1  -4 96.1132 5.64317   3
   4  -1  -4 106.023 6.57269   1
  -4   1   4 98.3943 8.46208   1
  -4   1   4 101.560 6.02482   1
   3  -1  -4 1045.13 28.1653   1
   3  -1  -4 1086.68 27.0970   3
  -3   1   4 1032.78 28.8147   1
  -3   1   4 1017.13 27.2172   1
   2  -1  -4 431.644 11.9298   2
   2  -1  -4 426.039 12.7825   1
   2  -1  -4 445.202 12.3073   3
  -2   1   4 424.198 12.4684   1
  -2   1   4 446.279 13.1124   1
   1  -1  -4 290.749 8.69011   1
   1  -1  -4 299.061 9.77896   2
  -1   1   4 291.180 9.26567   2
  -1   1   4 290.070 8.34232   1
  -1   1   4 307.744 8.18238   1
   0  -1  -4 175.843 5.74871   1
   0  -1  -4 178.577 6.18359   1
   0   1   4 174.672 7.43990   2
  -1  -1  -4 42.5853 3.81843   1
  -1  -1  -4 39.7709 2.69883   3
   1   1   4 46.9879 5.11916   2
  -2  -1  -4 823.782 23.4922   1
  -2  -1  -4 801.080 22.2674   3
   2   1   4 831.370 20.6678   1
   2   1   4 814.583 21.3512   1
   2   1   4 801.405 25.4502   2
  -3  -1  -4 4.82854 2.19873   1
  -3  -1  -4 4.67530 1.88265   3
   3   1   4 4.12013 2.39406   2
   3   1   4 6.21961 1.66879   1
   3   1   4 7.12851 2.22356   1
  -4  -1  -4 42.9056 6.02649   1
   4   1   4 40.6112 5.70483   1
   4   1   4 35.0245 6.11744   2
   4   1   4 43.0454 4.54481   1
   5   1   4 13.2043 3.15373   1
   5   1   4 11.9046 4.29937   2
   6   1   4 30.7930 7.45292   2
   8  -2  -4 0.51954 2.86096   1
   8  -2  -4 0.34963 2.49924   3
  -8   2   4 4.63905 3.17985   1
   7  -2  -4 35.3636 6.36037   3
   7  -2  -4 43.8195 7.39661   1
  -7   2   4 30.6400 5.56359   1
   6  -2  -4 5.18570 2.80440   3
   6  -2  -4 4.75454 2.88012   1
  -6   2   4 2.83221 2.50264   1
   5  -2  -4 99.2106 6.74343   3
   5  -2  -4 88.8808 8.42520   1
  -5   2   4 84.7716 7.38996   1
   4  -2  -4 76.3976 6.85803   1
   4  -2  -4 54.8480 5.36825   3
  -4   2   4 64.4325 6.96087   1
  -4   2   4 62.1874 5.48558   1
   3  -2  -4 503.346 16.0877   1
   3  -2  -4 518.530 14.8861   3
  -3   2   4 498.298 16.5141   1
  -3   2   4 495.604 14.6427   1
   2  -2  -4 474.190 13.8389   2
   2  -2  -4 481.198 12.8766   3
   2  -2  -4 485.502 13.9393   1
  -2   2   4 471.759 12.7730   1
  -2   2   4 470.684 13.6931   1
   1  -2  -4 199.672 5.93124   1
   1  -2  -4 201.725 6.00749   1
  -1   2   4 204.043 7.68322   2
   0   2   4 1285.12 33.4517   2
  -1  -2  -4 59.4986 3.48321   1
   1   2   4 57.1499 5.98158   2
  -2  -2  -4 310.726 11.0452   1
  -2  -2  -4 274.612 9.90852   3
   2   2   4 305.535 13.1598   2
  -3  -2  -4 -0.0459 1.49014   1
  -3  -2  -4 -0.9255 1.05883   3
   3   2   4 2.40796 2.14135   2
   3   2   4 -0.7939 1.00119   1
   4   2   4 -0.1077 2.02754   2
   5   2   4 250.538 15.0826   2
   6   2   4 1.42858 3.15335   2
   8  -3  -4 24.4527 5.77996   3
   8  -3  -4 45.9795 8.17030   1
  -8   3   4 27.4027 5.97299   1
   7  -3  -4 13.8330 4.35341   1
   7  -3  -4 11.7872 3.88231   3
  -7   3   4 16.1198 4.25135   1
   6  -3  -4 255.862 12.5363   3
   6  -3  -4 236.256 13.2452   1
  -6   3   4 255.676 12.3062   1
   5  -3  -4 35.9628 5.66623   1
   5  -3  -4 24.7227 4.15359   3
  -5   3   4 25.3539 4.10231   1
  -5   3   4 30.2490 5.52855   1
   4  -3  -4 -0.2012 1.16005   1
   4  -3  -4 -0.2680 0.98007   3
  -4   3   4 0.52338 1.19495   1
  -4   3   4 0.64098 1.76957   1
   3  -3  -4 336.393 12.3831   1
   3  -3  -4 359.620 11.3081   3
  -3   3   4 365.969 11.0091   1
   2  -3  -4 1352.39 32.1687   3
   2  -3  -4 1364.54 33.8005   1
   0   3   4 5.39319 1.80551   2
  -1  -3  -4 497.500 14.0936   1
   1   3   4 541.688 17.9538   2
  -2  -3  -4 96.7104 5.60046   1
  -2  -3  -4 103.273 5.08343   3
   2   3   4 116.047 7.72397   2
   3   3   4 104.428 9.59296   2
   4   3   4 0.48468 1.25648   1
   4   3   4 1.96395 2.41529   2
   5   3   4 3.83992 1.78803   1
   5   3   4 1.01411 3.55209   2
   8  -4  -4 4.34011 3.35204   1
   8  -4  -4 0.78267 2.35672   3
  -8   4   4 -0.1036 3.10688   1
   7  -4  -4 13.2238 4.58509   1
   7  -4  -4 9.49770 3.73331   3
  -7   4   4 4.82785 3.25994   1
   6  -4  -4 114.194 10.8102   1
   6  -4  -4 88.6072 8.98906   3
  -6   4   4 70.3812 7.26796   1
   5  -4  -4 354.899 14.2814   3
   5  -4  -4 361.001 15.6986   1
  -5   4   4 383.168 14.0110   1
  -5   4   4 359.247 16.5922   1
   4  -4  -4 5.73889 2.30405   1
   4  -4  -4 2.30637 1.61341   3
  -4   4   4 0.70060 1.32869   1
  -4   4   4 2.08643 1.80590   1
   3  -4  -4 812.394 24.0939   1
   3  -4  -4 851.147 22.4443   3
  -3   4   4 806.904 22.9322   1
  -3   4   4 844.313 21.2069   1
   2  -4  -4 6.60557 1.29871   3
   2  -4  -4 3.79989 1.52266   1
   0   4   4 240.349 10.5089   2
  -1  -4  -4 60.0594 3.32001   1
   1   4   4 60.3252 6.55295   2
  -2  -4  -4 498.633 14.7948   3
  -2  -4  -4 498.794 17.3751   1
   2   4   4 509.710 19.2243   2
   3   4   4 1.49858 1.98632   2
   4   4   4 2.46097 2.61953   2
   5   4   4 34.1254 6.88474   2
   8  -5  -4 11.3128 4.28079   3
   8  -5  -4 10.3652 4.64875   1
  -8   5   4 6.48778 3.74123   1
   7  -5  -4 1.09987 2.47843   3
   7  -5  -4 -1.6977 2.65575   1
  -7   5   4 2.39681 2.68160   1
   6  -5  -4 100.827 10.2422   1
   6  -5  -4 111.746 10.5801   3
  -6   5   4 126.252 8.32550   1
   5  -5  -4 307.496 14.6804   1
   5  -5  -4 312.450 13.3477   3
  -5   5   4 287.755 11.8673   1
   4  -5  -4 -1.7849 1.22107   1
   4  -5  -4 0.96911 1.11583   3
  -4   5   4 2.14226 1.49703   1
  -4   5   4 1.28060 1.65232   1
   3  -5  -4 184.895 9.06583   1
   3  -5  -4 177.934 7.55041   3
  -3   5   4 183.630 6.69109   1
  -3   5   4 187.155 5.97381   1
   2  -5  -4 428.865 12.3099   3
   2  -5  -4 438.595 14.0456   1
   1  -5  -4 24.0535 2.48691   1
  -1  -5  -4 95.5855 4.33331   1
   1   5   4 87.1364 8.08934   2
   2   5   4 4.22660 2.76373   2
   3   5   4 13.0429 4.08926   2
   4   5   4 11.1431 4.20744   2
   8  -6  -4 17.4254 5.15709   3
  -8   6   4 19.7582 5.32106   1
   7  -6  -4 0.88174 2.23010   3
  -7   6   4 -0.4773 2.42879   1
   6  -6  -4 109.142 11.3257   3
   6  -6  -4 103.280 10.8245   1
  -6   6   4 119.469 7.97508   1
   5  -6  -4 268.152 12.8844   3
   5  -6  -4 295.643 14.9079   1
  -5   6   4 309.898 11.7884   1
   4  -6  -4 150.396 9.33426   1
   4  -6  -4 154.771 8.27129   3
  -4   6   4 150.470 7.87410   1
  -4   6   4 144.469 6.43444   1
   3  -6  -4 11.6372 3.02978   1
   3  -6  -4 8.46476 2.21038   3
   2  -6  -4 -0.7754 1.58978   1
   1  -6  -4 -0.6626 1.25082   1
   2   6   4 42.8477 6.75233   2
   3   6   4 1.25388 2.50659   2
   4   6   4 -0.7252 2.87307   2
   8  -7  -4 1.40229 3.78255   3
  -8   7   4 9.75009 4.39575   1
   7  -7  -4 12.1598 4.55577   3
  -7   7   4 11.4879 4.06930   1
   6  -7  -4 3.58458 2.94970   3
  -6   7   4 2.16146 2.40087   1
   5  -7  -4 152.264 9.66669   3
  -5   7   4 170.933 8.12404   1
   4  -7  -4 57.2829 6.51324   3
  -4   7   4 50.8595 3.46480   1
  -4   7   4 56.9480 4.75596   1
   3  -7  -4 4.16727 2.01743   3
   3   7   4 2.50576 3.71261   2
   7  -8  -4 -1.0591 2.10389   3
  -7   8   4 3.16442 2.93370   1
   6  -8  -4 1.35523 2.40129   3
  -6   8   4 -0.3155 2.15739   1
   5  -8  -4 11.2806 3.76228   3
  -5   8   4 8.87361 2.53192   1
   4  -8  -4 -0.7014 2.06066   3
   3  -8  -4 12.4911 3.08506   3
   2  -8  -4 37.4922 4.51274   3
   7  -9  -4 0.31762 2.92128   3
  -7   9   4 4.59438 3.25692   1
   6  -9  -4 8.03830 4.03701   3
  -6   9   4 8.48009 3.18208   1
   5  -9  -4 5.66160 3.18754   3
  -5   9   4 -2.2578 1.50287   1
   4  -9  -4 18.4665 4.14328   3
   3  -9  -4 22.8954 4.33022   3
   2  -9  -4 28.7244 4.35850   3
  -6  10   4 0.99757 2.24877   1
   5 -10  -4 10.5189 4.10440   3
   4 -10  -4 -3.4979 1.72376   3
   3 -10  -4 4.79525 2.69541   3
   2 -10  -4 -0.1193 1.86800   3
  -1  12  -5 -6.4390 3.06120   1
   1 -12   5 3.46452 3.26947   3
  -2  12  -5 5.37188 4.27754   1
   2 -12   5 11.8312 5.25152   3
  -3  12  -5 3.07746 4.75849   1
   1  11  -5 -4.9035 2.70510   1
  -1 -11   5 -3.2693 2.39435   3
   0  11  -5 1.00905 3.36641   1
   0 -11   5 -0.1208 2.90329   3
  -1  11  -5 7.56453 4.13622   1
   1 -11   5 2.77197 3.01277   3
  -2  11  -5 5.07097 3.63311   1
   2 -11   5 7.60774 3.90431   3
  -3  11  -5 49.9349 8.87969   1
   3 -11   5 49.8884 8.64465   3
  -4  11  -5 1.20537 4.17016   1
   4 -11   5 2.10326 3.90751   3
   3  10  -5 10.0890 4.96371   1
   2  10  -5 7.06345 4.10576   1
  -2 -10   5 2.72500 3.23736   3
   1  10  -5 7.87539 3.73573   1
  -1 -10   5 0.98280 2.52277   3
   0  10  -5 40.7920 7.54926   1
   0 -10   5 45.1847 7.27438   3
  -1  10  -5 8.11105 4.05609   1
   1 -10   5 4.83136 3.68788   3
   1 -10   5 1.82500 3.86396   1
  -2  10  -5 28.7446 6.81495   1
   2 -10   5 29.2682 7.92322   1
   2 -10   5 26.1663 5.99594   3
  -3  10  -5 3.20264 3.87595   1
   3 -10   5 3.61222 3.27314   3
   3 -10   5 2.07858 3.89772   1
  -4  10  -5 -0.0127 3.66660   1
   4 -10   5 0.62289 2.90884   3
   4 -10   5 -1.5145 4.02067   1
  -5  10  -5 -1.8800 3.53729   1
   5 -10   5 -2.6439 4.21776   1
   5 -10   5 -2.4433 2.74692   3
   4   9  -5 17.6228 5.12624   1
   3   9  -5 50.8373 7.69498   1
  -3  -9   5 60.7316 8.92548   3
   2   9  -5 1.01821 2.82227   1
  -2  -9   5 2.48681 2.76722   3
   1   9  -5 18.5068 5.04860   1
  -1  -9   5 28.0148 6.61183   1
  -1  -9   5 25.0717 5.59498   3
   0   9  -5 114.663 11.8006   1
   0  -9   5 94.4388 11.7937   1
   0  -9   5 101.004 10.3559   3
  -1   9  -5 -3.0207 1.86344   1
   1  -9   5 3.63544 3.20095   1
   1  -9   5 -2.1285 1.76279   3
  -2   9  -5 41.4987 7.49541   1
   2  -9   5 42.1363 6.91945   3
   2  -9   5 28.4187 7.50370   1
  -3   9  -5 3.33190 3.02190   1
   3  -9   5 4.72736 3.93591   1
   3  -9   5 -0.4051 2.48984   3
  -4   9  -5 13.1510 5.40196   1
   4  -9   5 2.49811 3.08244   3
   4  -9   5 1.48444 4.05301   1
  -5   9  -5 1.00964 3.40868   1
   5  -9   5 -1.0619 3.77528   1
   5  -9   5 -2.0128 2.44747   3
  -6   9  -5 6.09916 4.47937   1
   6  -9   5 2.20636 3.75524   3
   6  -9   5 5.77040 5.28932   1
   5   8  -5 0.35808 2.43263   1
   4   8  -5 7.10641 3.25503   1
   3   8  -5 -1.0638 1.81609   1
  -3  -8   5 -0.2585 4.23654   1
  -3  -8   5 -0.1335 1.90909   3
   2   8  -5 44.4025 6.86302   1
  -2  -8   5 62.4847 8.91398   1
  -2  -8   5 54.6472 7.66279   3
   1   8  -5 79.8766 9.38621   1
  -1  -8   5 65.7912 8.24913   3
  -1  -8   5 82.2661 10.0634   1
   0   8  -5 23.6344 5.09305   1
   0   8  -5 30.5597 5.17538   3
   0  -8   5 43.3827 7.76374   1
   0  -8   5 37.1554 6.33917   3
  -1   8  -5 66.8980 8.88447   1
   1  -8   5 75.1088 9.90643   1
   1  -8   5 84.7212 9.25005   3
  -2   8  -5 0.89444 2.74261   1
   2  -8   5 0.96909 2.43630   3
   2  -8   5 -3.5116 2.25206   1
  -3   8  -5 3.17673 2.93796   1
   3  -8   5 -2.3521 2.18808   1
   3  -8   5 -1.8990 1.97045   3
  -4   8  -5 0.39768 3.01912   1
   4  -8   5 -2.3693 2.37975   3
   4  -8   5 3.19296 3.86520   1
  -5   8  -5 35.4866 7.73953   1
   5  -8   5 20.3949 6.61880   1
   5  -8   5 22.0591 5.84991   3
  -6   8  -5 5.99620 4.08381   1
   6  -8   5 13.1054 5.83474   1
   6  -8   5 14.7906 5.27691   3
   5   7  -5 1.84024 2.82186   1
   4   7  -5 -0.7890 2.33009   1
  -4  -7   5 3.02125 3.57931   1
   3   7  -5 2.53029 2.69659   1
  -3  -7   5 6.01878 3.91928   1
  -3  -7   5 2.07231 2.34437   3
   2   7  -5 22.2096 4.77865   1
   2   7  -5 30.7173 4.80231   3
  -2  -7   5 35.4274 6.31506   1
  -2  -7   5 33.5926 5.82468   3
   1   7  -5 436.863 16.9333   1
   1   7  -5 460.521 19.0680   1
   1   7  -5 485.955 16.8028   3
  -1  -7   5 484.404 18.6007   3
  -1  -7   5 433.041 19.4971   1
   0   7  -5 76.2383 8.50009   1
   0   7  -5 47.8653 6.05145   3
   0  -7   5 67.5477 9.13705   1
   0  -7   5 79.7873 8.38734   3
  -1   7  -5 82.1686 9.16075   1
   1  -7   5 71.7980 9.18391   1
   1  -7   5 82.0121 8.32965   3
  -2   7  -5 32.3187 6.12999   1
   2  -7   5 39.2934 6.03460   3
   2  -7   5 30.4351 6.75725   1
  -3   7  -5 6.17156 3.76910   1
   3  -7   5 10.7296 4.35020   1
   3  -7   5 17.6634 4.65711   3
  -4   7  -5 62.3128 9.28003   1
   4  -7   5 63.8951 10.0364   1
   4  -7   5 63.2693 8.52161   3
  -5   7  -5 1.44006 2.84974   1
   5  -7   5 0.82765 2.65019   3
   5  -7   5 -3.1833 2.63890   1
  -6   7  -5 0.77207 3.75382   1
   6  -7   5 5.07398 3.49570   3
   6  -7   5 -2.3040 3.46735   1
   6   6  -5 -0.6823 2.54957   1
   5   6  -5 1.37250 2.48576   1
  -5  -6   5 -1.0645 2.87378   1
   4   6  -5 52.0633 7.14756   1
  -4  -6   5 61.2963 8.09371   1
   3   6  -5 121.333 10.8887   1
   3   6  -5 126.865 7.44336   3
  -3  -6   5 124.981 11.1157   1
   2   6  -5 350.743 15.8865   1
   2   6  -5 381.833 13.9118   3
   2   6  -5 366.966 14.6110   1
  -2  -6   5 362.422 16.4315   1
  -2  -6   5 371.727 15.8207   3
   1   6  -5 16.6212 3.48046   3
   1   6  -5 21.4751 4.36055   1
   1   6  -5 17.6630 5.09326   1
  -1  -6   5 19.0609 4.17185   3
  -1  -6   5 15.5178 4.25332   1
   0   6  -5 100.843 6.87044   3
   0   6  -5 104.033 9.55142   1
   0  -6   5 116.198 7.67298   3
   0  -6   5 106.261 10.4000   1
  -1   6  -5 41.2324 6.37131   1
   1  -6   5 44.9694 6.22993   3
   1  -6   5 39.5155 6.94200   1
  -2   6  -5 1.57230 1.85712   1
   2  -6   5 -1.7860 1.48646   3
   2  -6   5 3.40054 3.01812   1
  -3   6  -5 59.3245 8.18909   1
   3  -6   5 60.6905 7.59314   3
   3  -6   5 46.5327 8.02548   1
  -4   6  -5 14.1430 4.84951   1
   4  -6   5 9.58327 3.70104   3
   4  -6   5 20.5684 5.87574   1
  -5   6  -5 6.58738 3.65020   1
   5  -6   5 0.12222 2.62253   1
   5  -6   5 1.58027 2.62244   3
  -6   6  -5 4.46643 3.87075   1
   6  -6   5 2.88213 3.57729   1
  -7   6  -5 -2.8668 3.32058   1
   7  -6   5 -3.9513 3.11618   1
   6   5  -5 -1.0215 2.08324   1
  -6  -5   5 3.22350 3.52519   1
   5   5  -5 2.97988 2.72584   1
  -5  -5   5 9.43005 3.91434   1
   4   5  -5 20.8434 3.93711   3
   4   5  -5 25.0888 5.05337   1
  -4  -5   5 13.9754 4.17032   1
   3   5  -5 147.656 9.41638   1
   3   5  -5 150.122 7.91248   3
  -3  -5   5 133.914 9.19362   1
   2   5  -5 290.755 11.4275   3
   2   5  -5 283.585 12.9405   1
  -2  -5   5 269.914 12.5319   3
  -2  -5   5 274.260 10.4587   2
  -2  -5   5 282.676 13.2039   1
   1   5  -5 47.0694 5.73152   3
   1   5  -5 57.6590 6.65162   1
  -1  -5   5 50.3927 5.94507   3
  -1  -5   5 51.4657 6.66983   1
   0   5  -5 0.36209 1.37080   1
   0  -5   5 0.92945 1.17698   3
   0  -5   5 3.21585 1.98469   1
  -1   5  -5 7.72957 2.93467   1
   1  -5   5 5.63958 2.85518   1
   1  -5   5 3.97442 1.92594   3
  -2   5  -5 34.4585 5.52359   1
   2  -5   5 42.8006 6.15957   3
   2  -5   5 30.3683 5.73956   1
  -3   5  -5 96.9168 10.1487   1
   3  -5   5 116.057 9.71347   3
   3  -5   5 99.8484 10.8961   1
  -4   5  -5 540.757 23.4060   1
   4  -5   5 579.287 22.0846   3
   4  -5   5 595.933 24.9345   1
  -5   5  -5 18.5243 5.36684   1
   5  -5   5 29.6039 5.88418   3
   5  -5   5 30.5955 6.98911   1
  -6   5  -5 13.4070 5.33508   1
   6  -5   5 7.93581 4.61250   1
  -7   5  -5 -1.1127 3.51533   1
   7  -5   5 5.31319 4.27825   1
   7   4  -5 14.9571 4.62874   1
  -7  -4   5 6.07704 3.91467   1
   6   4  -5 1.36566 2.55059   1
  -6  -4   5 1.00325 3.10540   1
   5   4  -5 149.854 10.3466   1
   5   4  -5 136.479 8.42777   3
  -5  -4   5 126.196 11.0516   1
   4   4  -5 90.1431 6.33688   3
   4   4  -5 92.4073 9.08983   1
  -4  -4   5 92.5729 8.77798   1
   3   4  -5 35.3962 5.37468   1
   3   4  -5 36.0650 4.74706   3
  -3  -4   5 39.8659 3.42079   2
  -3  -4   5 34.0560 5.06444   1
   2   4  -5 154.347 7.68861   3
   2   4  -5 169.588 9.05916   1
  -2  -4   5 157.614 8.66798   3
  -2  -4   5 158.775 5.79855   2
  -2  -4   5 158.207 8.97159   1
   1   4  -5 15.9793 3.10416   3
   1   4  -5 10.9832 3.01835   1
  -1  -4   5 14.7247 3.46065   1
  -1  -4   5 15.6077 3.17347   3
   0   4  -5 -0.7535 1.12663   1
   0  -4   5 1.40141 1.70535   1
   0  -4   5 0.74996 1.25589   3
  -1   4  -5 14.3212 3.24451   1
   1  -4   5 13.8466 2.92858   3
   1  -4   5 16.4106 3.77916   1
  -2   4  -5 4.73007 2.64073   1
   2  -4   5 5.80176 2.40333   3
   2  -4   5 9.00627 3.16111   1
  -3   4  -5 83.8450 9.69317   1
   3  -4   5 59.7490 8.38442   1
   3  -4   5 76.1448 7.75183   3
  -4   4  -5 402.459 18.7541   1
   4  -4   5 388.900 18.7423   1
   4  -4   5 395.292 16.9510   3
  -5   4  -5 14.5693 5.02190   1
   5  -4   5 16.9243 4.56062   3
   5  -4   5 25.1397 5.82187   1
  -6   4  -5 0.70730 3.10613   1
   6  -4   5 -1.1519 3.06059   1
   7  -4   5 7.97415 4.36346   1
   7   3  -5 7.05353 3.81479   1
  -7  -3   5 7.63722 4.19928   1
   6   3  -5 96.2368 9.77562   3
   6   3  -5 96.0859 10.4977   1
  -6  -3   5 93.9052 9.75746   1
   5   3  -5 32.2669 5.18762   3
   5   3  -5 29.3828 5.54460   1
  -5  -3   5 36.3135 6.04383   1
   4   3  -5 30.2628 4.23908   3
   4   3  -5 40.9891 6.00646   1
  -4  -3   5 39.4672 5.66877   1
   3   3  -5 37.8008 4.50422   3
   3   3  -5 35.7421 5.04797   1
  -3  -3   5 37.6854 5.15031   1
   2   3  -5 69.1001 4.76155   3
   2   3  -5 70.5244 6.58339   1
  -2  -3   5 61.3401 2.66782   2
  -2  -3   5 85.1892 7.49776   1
  -2  -3   5 72.0600 6.49760   3
   1   3  -5 245.386 9.85251   3
   1   3  -5 264.549 10.7570   1
  -1  -3   5 233.753 10.1208   1
  -1  -3   5 238.827 10.6700   1
  -1  -3   5 232.103 9.92896   3
   0   3  -5 852.682 25.5411   1
   0  -3   5 927.110 26.8080   1
   0  -3   5 836.707 24.8486   1
   0  -3   5 865.351 24.6130   3
  -1   3  -5 500.702 17.6763   1
   1  -3   5 487.642 16.3202   3
   1  -3   5 535.656 18.9601   1
   1  -3   5 498.888 17.1527   1
  -2   3  -5 331.141 14.0601   1
   2  -3   5 291.166 12.9075   1
   2  -3   5 312.221 14.2027   1
   2  -3   5 315.647 12.3966   3
  -3   3  -5 229.722 12.3692   1
   3  -3   5 226.269 12.3779   1
   3  -3   5 254.512 11.3439   3
   3  -3   5 219.377 11.6886   1
  -4   3  -5 402.168 17.9820   1
   4  -3   5 399.455 17.3873   1
   4  -3   5 316.422 18.4531   1
   4  -3   5 352.729 15.5008   3
  -5   3  -5 28.8094 6.48732   1
   5  -3   5 15.7842 4.46319   1
  -6   3  -5 4.88836 3.62601   1
   6  -3   5 1.98424 2.34545   1
   7  -3   5 -4.4516 2.26162   1
  -8  -2   5 5.32502 4.39423   1
   7   2  -5 41.4293 8.40057   3
  -7  -2   5 36.7188 6.81310   1
   6   2  -5 3.78523 2.50621   3
  -6  -2   5 3.91314 2.92802   1
   5   2  -5 49.6099 6.20092   3
   5   2  -5 52.0135 2.95529   2
  -5  -2   5 52.3613 6.44042   1
   4   2  -5 1.49580 1.59139   3
  -4  -2   5 1.19974 1.96214   1
   3   2  -5 1201.07 34.3869   1
   3   2  -5 1227.07 32.4273   3
  -3  -2   5 1262.18 33.8609   1
   2   2  -5 62.1410 5.56941   3
   2   2  -5 53.3426 5.51803   1
  -2  -2   5 62.3368 5.87082   1
   1   2  -5 14.0961 2.70033   1
  -1  -2   5 14.1311 2.61101   3
  -1  -2   5 14.2301 2.60782   1
  -1  -2   5 14.6423 3.02140   1
   0   2  -5 553.435 17.8700   1
   0  -2   5 589.128 18.8690   1
   0  -2   5 575.356 17.3923   1
   0  -2   5 586.899 17.1094   3
  -1   2  -5 148.690 8.00402   1
   1  -2   5 168.231 8.75397   1
   1  -2   5 167.122 7.93030   1
   1  -2   5 166.542 7.39511   3
  -2   2  -5 12.7304 3.13632   1
   2  -2   5 20.1472 3.35165   3
   2  -2   5 15.3031 3.16738   1
   2  -2   5 24.9937 4.30295   1
  -3   2  -5 15.0280 3.70858   1
   3  -2   5 20.0612 3.62440   3
   3  -2   5 10.9378 3.09668   1
   3  -2   5 10.1445 3.12426   1
  -4   2  -5 1226.50 37.4234   1
   4  -2   5 1170.85 34.3592   3
   4  -2   5 1150.57 35.6233   1
  -5   2  -5 54.4307 8.39924   1
   5  -2   5 33.0452 5.46001   1
   6  -2   5 -0.0401 2.39640   1
   6  -2   5 0.40928 3.68100   2
  -8  -1   5 2.70212 3.83477   1
   7   1  -5 60.3432 8.24162   3
  -7  -1   5 89.6065 9.57197   1
   6   1  -5 26.1783 3.34045   2
   6   1  -5 37.7458 6.18579   3
  -6  -1   5 30.5776 5.24925   1
   5   1  -5 0.07934 0.95165   2
   5   1  -5 1.62676 1.75408   3
  -5  -1   5 0.78920 1.95430   1
   4   1  -5 1045.37 28.7503   3
  -4  -1   5 1022.54 29.4642   1
   3   1  -5 163.485 7.32258   3
  -3  -1   5 156.567 7.77084   1
  -3  -1   5 163.256 7.91632   1
   2   1  -5 893.173 23.8898   3
   2   1  -5 909.525 25.1263   1
  -2  -1   5 904.698 24.7904   1
  -2  -1   5 849.344 23.9443   1
   1   1  -5 621.908 18.0019   1
   1   1  -5 621.141 17.7732   3
  -1  -1   5 613.744 16.4545   2
  -1  -1   5 592.707 18.2296   1
   0   1  -5 823.615 22.3193   3
   0   1  -5 827.395 22.9375   1
   0  -1   5 818.437 23.3314   1
   0  -1   5 832.248 21.7380   3
   0  -1   5 802.679 21.8980   1
  -1   1  -5 1409.91 36.6296   3
  -1   1  -5 1459.55 37.7530   1
   1  -1   5 1469.69 36.4875   1
   1  -1   5 1438.86 37.5879   1
   1  -1   5 1424.14 35.7249   3
  -2   1  -5 434.623 15.1954   3
  -2   1  -5 443.205 16.4593   1
   2  -1   5 478.386 15.8736   1
   2  -1   5 449.049 14.3534   3
   2  -1   5 463.055 15.3656   1
  -3   1  -5 33.7772 5.13814   1
   3  -1   5 30.2714 4.46459   1
   3  -1   5 28.1701 4.29019   1
   3  -1   5 34.1897 4.49463   3
  -4   1  -5 66.4272 8.36565   1
   4  -1   5 48.6691 7.37740   2
   4  -1   5 58.8080 6.36826   1
   5  -1   5 92.3955 8.65711   1
   5  -1   5 87.9982 10.6817   2
   6  -1   5 12.7722 5.34830   2
   6  -1   5 5.09087 2.65122   1
   8   0  -5 14.1949 4.83757   3
  -8   0   5 16.7827 5.30331   1
   7   0  -5 5.27080 2.86215   3
  -7   0   5 2.67267 3.06250   1
   6   0  -5 409.974 13.8056   2
   6   0  -5 423.140 17.9205   1
   6   0  -5 411.479 16.8049   3
  -6   0   5 412.102 17.2056   1
   5   0  -5 2.87885 2.11655   1
   5   0  -5 1.87022 1.81303   3
  -5   0   5 2.24108 2.02375   1
   4   0  -5 25.3150 4.10689   1
   4   0  -5 32.7959 4.46581   3
  -4   0   5 30.7663 4.52146   1
  -4   0   5 27.9295 4.02657   1
   3   0  -5 2255.65 54.3004   3
  -3   0   5 2284.24 55.1290   1
  -3   0   5 2225.57 55.7265   1
   2   0  -5 126.760 4.72480   2
   2   0  -5 119.022 5.51898   3
  -2   0   5 120.475 5.93080   1
  -2   0   5 122.990 5.63217   1
   1   0  -5 549.414 16.0263   3
   1   0  -5 581.159 16.3668   1
  -1   0   5 566.318 16.4509   1
  -1   0   5 570.278 15.7846   2
   0   0  -5 3.86449 1.31070   1
   0   0  -5 2.65438 1.11773   3
   0   0   5 3.59546 1.49163   2
   0   0   5 2.34093 1.00153   1
  -1   0  -5 1448.18 37.1832   1
  -1   0  -5 1417.68 36.1020   3
   1   0   5 1453.45 35.5810   1
   1   0   5 1471.22 38.9541   2
   1   0   5 1444.27 35.0727   1
  -2   0  -5 13.3595 2.71605   3
  -2   0  -5 13.2935 2.88907   1
   2   0   5 15.0760 2.49892   1
   2   0   5 11.1985 2.02351   3
   2   0   5 11.8518 2.25224   1
   2   0   5 16.2078 3.91265   2
  -3   0  -5 24.0170 4.38339   1
  -3   0  -5 25.5775 4.17699   3
   3   0   5 26.0602 3.41716   3
   3   0   5 28.1644 4.14067   1
   3   0   5 30.3300 4.01177   1
   3   0   5 27.9845 5.32986   2
  -4   0  -5 282.638 14.1613   1
   4   0   5 282.379 15.2541   2
   4   0   5 299.673 11.9005   1
   5   0   5 1.09299 2.04075   1
   5   0   5 -0.9745 2.38507   2
   6   0   5 2.96771 2.41459   1
   6   0   5 3.91273 4.35403   2
   8  -1  -5 4.95288 3.79354   1
   8  -1  -5 2.23653 3.06892   3
  -8   1   5 -1.4450 3.01014   1
   7  -1  -5 206.387 12.1891   3
   7  -1  -5 196.839 12.6806   1
  -7   1   5 208.838 12.3265   1
   6  -1  -5 5.11571 2.86023   3
   6  -1  -5 9.39995 3.65358   1
  -6   1   5 10.3189 3.39575   1
   5  -1  -5 412.307 16.2055   1
   5  -1  -5 401.557 15.1262   3
  -5   1   5 406.857 15.4474   1
   4  -1  -5 769.294 21.9695   3
   4  -1  -5 728.120 22.7426   1
  -4   1   5 730.934 23.8460   1
  -4   1   5 743.916 21.9928   1
   3  -1  -5 537.456 16.4240   1
   3  -1  -5 512.034 13.8471   2
   3  -1  -5 509.166 15.2094   3
  -3   1   5 526.300 16.7324   1
  -3   1   5 506.292 15.6359   1
   2  -1  -5 1587.78 39.1401   2
   2  -1  -5 1586.86 39.4141   1
   2  -1  -5 1727.41 39.2015   3
  -2   1   5 1578.69 39.2859   1
   1  -1  -5 166.552 7.32758   2
  -1   1   5 167.259 5.52205   1
  -1   1   5 155.766 6.60675   2
  -1   1   5 163.062 5.08270   1
   0  -1  -5 1245.12 30.6435   3
   0  -1  -5 1294.34 31.2757   1
   0   1   5 1281.22 33.6973   2
  -1  -1  -5 39.0774 3.65707   3
  -1  -1  -5 40.6398 4.07621   1
   1   1   5 32.2226 4.58510   2
  -2  -1  -5 101.846 5.71614   3
  -2  -1  -5 107.060 6.39945   1
   2   1   5 106.194 4.56682   1
   2   1   5 105.866 4.21007   1
   2   1   5 108.230 9.54776   2
  -3  -1  -5 38.7504 5.51923   1
   3   1   5 40.2173 4.21221   1
   3   1   5 41.1056 6.52961   2
   3   1   5 48.5913 3.39280   1
   4   1   5 57.8307 8.53423   2
   4   1   5 43.8350 4.48519   1
   5   1   5 17.5580 5.56582   2
   6   1   5 0.72412 3.58788   2
   8  -2  -5 -2.5696 2.94024   1
   8  -2  -5 -2.2647 2.23430   3
  -8   2   5 0.14621 2.84564   1
   7  -2  -5 3.82828 2.59297   3
   7  -2  -5 12.2393 4.02802   1
  -7   2   5 13.9304 4.31501   1
   6  -2  -5 641.084 22.7545   3
   6  -2  -5 642.846 23.8266   1
  -6   2   5 683.971 22.7637   1
   5  -2  -5 2.71288 1.99195   3
   5  -2  -5 1.77199 1.88222   1
  -5   2   5 -0.0061 1.74216   1
  -5   2   5 0.81017 2.11439   1
   4  -2  -5 26.6056 3.99881   1
   4  -2  -5 30.5559 3.77262   3
  -4   2   5 33.5863 4.04408   1
  -4   2   5 23.9764 4.22888   1
   3  -2  -5 354.677 11.0940   3
   3  -2  -5 341.058 10.8753   2
   3  -2  -5 344.587 12.0457   1
  -3   2   5 336.788 11.1375   1
   2  -2  -5 6.60189 1.50366   1
   2  -2  -5 6.70900 1.47711   3
  -2   2   5 8.54061 1.62669   1
  -2   2   5 7.73512 1.41400   1
  -1   2   5 0.22941 0.97530   2
   0  -2  -5 31.8529 2.13117   1
   0   2   5 27.5213 3.89401   2
  -1  -2  -5 598.674 17.1440   1
   1   2   5 614.643 20.3701   2
  -2  -2  -5 15.5539 3.00661   1
  -2  -2  -5 18.7097 2.92808   3
   2   2   5 13.0679 3.35187   2
   3   2   5 132.788 11.7201   2
   4   2   5 3.37310 3.21097   2
   5   2   5 42.8648 7.96595   2
   8  -3  -5 16.9104 4.72499   3
   8  -3  -5 11.9858 4.51506   1
  -8   3   5 2.14911 3.29308   1
   7  -3  -5 8.13074 3.23010   3
   7  -3  -5 10.0160 4.20676   1
  -7   3   5 9.92294 3.79785   1
   6  -3  -5 49.1182 6.91062   1
   6  -3  -5 43.9057 6.05084   3
  -6   3   5 44.1385 5.86823   1
   5  -3  -5 163.192 8.81953   3
   5  -3  -5 171.187 9.90467   1
  -5   3   5 170.908 8.72781   1
  -5   3   5 161.087 10.5441   1
   4  -3  -5 145.672 7.17343   3
   4  -3  -5 141.453 8.01896   1
  -4   3   5 145.527 8.60950   1
  -4   3   5 148.690 7.05998   1
   3  -3  -5 35.8371 4.27059   1
   3  -3  -5 36.8304 3.67165   3
  -3   3   5 30.2311 3.04735   1
  -3   3   5 33.2139 3.79903   1
   2  -3  -5 391.368 11.7364   1
   2  -3  -5 381.761 10.7957   3
   1  -3  -5 0.24600 0.56057   1
  -1   3   5 -0.6039 0.91357   2
   0   3   5 5.08299 1.90703   2
  -1  -3  -5 83.1272 4.38944   1
   1   3   5 94.9062 6.73865   2
  -2  -3  -5 28.3697 3.38537   3
  -2  -3  -5 28.6582 3.88126   1
   2   3   5 28.8759 5.18154   2
   3   3   5 25.3994 5.12545   2
   4   3   5 12.1600 4.43720   2
   5   3   5 1.05163 3.22312   2
   8  -4  -5 9.25487 4.09935   1
   8  -4  -5 6.47237 3.59294   3
  -8   4   5 9.73340 4.15924   1
   7  -4  -5 7.27371 3.29885   3
   7  -4  -5 13.4801 4.52884   1
  -7   4   5 12.2800 3.95310   1
   6  -4  -5 209.380 12.3730   1
   6  -4  -5 202.567 11.1049   3
  -6   4   5 204.416 10.6806   1
   5  -4  -5 89.7043 8.65390   1
   5  -4  -5 86.8378 7.90790   3
  -5   4   5 71.5606 6.39878   1
  -5   4   5 84.7859 8.90763   1
   4  -4  -5 35.8558 4.86935   1
   4  -4  -5 35.3549 4.33639   3
  -4   4   5 33.3979 3.76069   1
  -4   4   5 24.5169 4.11871   1
   3  -4  -5 2.25454 1.30568   3
   3  -4  -5 1.89523 1.48680   1
  -3   4   5 5.73445 1.49110   1
  -3   4   5 3.56348 1.16172   1
   2  -4  -5 41.6946 3.83168   1
   0   4   5 112.248 7.10141   2
  -1  -4  -5 2.45308 1.21776   1
   1   4   5 0.69809 1.56875   2
   2   4   5 42.3164 6.44978   2
   3   4   5 58.1612 8.15707   2
   4   4   5 2.06138 3.01039   2
   8  -5  -5 22.5602 6.01630   3
  -8   5   5 23.1600 5.52541   1
   7  -5  -5 2.97944 3.82876   1
   7  -5  -5 3.20342 2.42666   3
  -7   5   5 2.20504 2.94426   1
   6  -5  -5 51.9657 6.93868   3
   6  -5  -5 65.6283 8.16353   1
  -6   5   5 58.2714 6.64119   1
   5  -5  -5 61.9175 6.79851   3
   5  -5  -5 88.2397 8.75698   1
  -5   5   5 86.0857 5.86047   1
   4  -5  -5 96.3159 6.02992   3
   4  -5  -5 102.525 8.71955   1
  -4   5   5 105.820 5.20252   1
  -4   5   5 101.145 6.23638   1
   3  -5  -5 3.17677 1.49126   1
   3  -5  -5 0.80670 1.05064   3
   2  -5  -5 145.042 6.52487   1
   0   5   5 47.3349 5.90307   2
   1   5   5 150.697 9.45593   2
   2   5   5 114.775 10.9086   2
   3   5   5 17.9822 4.94450   2
   4   5   5 7.25882 4.79024   2
   8  -6  -5 1.18053 2.78433   3
  -8   6   5 -1.0480 2.89295   1
   7  -6  -5 22.0510 5.57210   3
  -7   6   5 13.4879 3.95621   1
   6  -6  -5 39.1700 6.42635   3
  -6   6   5 37.5522 5.08722   1
   5  -6  -5 14.2768 3.46085   3
  -5   6   5 20.8836 3.41665   1
   4  -6  -5 17.9325 3.40153   3
  -4   6   5 16.3650 2.57862   1
  -4   6   5 14.8550 2.14130   1
   3  -6  -5 23.5253 3.34576   3
   1   6   5 3.49667 2.84735   2
   2   6   5 -1.5729 1.84931   2
   3   6   5 2.24563 3.01537   2
   7  -7  -5 -1.3908 1.80085   3
  -7   7   5 4.63378 3.18024   1
   6  -7  -5 2.81575 2.23676   3
  -6   7   5 4.66266 2.59888   1
   5  -7  -5 -2.2456 1.04353   3
  -5   7   5 0.32119 1.64102   1
   4  -7  -5 -1.2553 1.22827   3
   3  -7  -5 38.3271 4.57830   3
   7  -8  -5 2.01319 3.02714   3
  -7   8   5 3.62305 2.97897   1
   6  -8  -5 -0.0753 2.05713   3
  -6   8   5 2.45658 2.27213   1
   5  -8  -5 -2.4896 1.68721   3
   4  -8  -5 -1.3669 1.51269   3
   3  -8  -5 1.07633 1.82008   3
   6  -9  -5 -2.2090 2.16265   3
  -6   9   5 1.30808 2.02294   1
   5  -9  -5 -1.0019 2.23556   3
   4  -9  -5 -2.4515 2.02812   3
   3  -9  -5 8.84935 2.78915   3
   5 -10  -5 4.96017 3.07563   3
   4 -10  -5 0.24362 2.51848   3
   3 -10  -5 1.60047 2.13790   3
  -1  12  -6 1.40902 3.69339   1
  -2  12  -6 -1.6957 3.48428   1
   1  11  -6 5.52497 4.21023   1
  -1 -11   6 0.04448 2.94465   3
   0  11  -6 -1.1890 2.78368   1
   0 -11   6 -2.6246 2.58210   3
  -1  11  -6 0.96217 3.82719   1
   1 -11   6 1.13398 2.94957   3
  -2  11  -6 16.0372 5.26231   1
   2 -11   6 9.98441 4.65182   3
  -3  11  -6 13.9887 5.61546   1
   3 -11   6 4.68652 4.02966   3
   3 -11   6 5.24732 5.66461   1
  -4  11  -6 9.39753 4.91797   1
   4 -11   6 8.17359 4.36051   3
   4 -11   6 5.27550 5.93428   1
   3  10  -6 -2.2430 2.98099   1
  -3 -10   6 0.86035 3.39549   3
   2  10  -6 5.63025 4.16170   1
  -2 -10   6 0.89623 2.52200   3
   1  10  -6 6.61724 4.00853   1
  -1 -10   6 4.01145 3.35882   3
   0  10  -6 16.1760 5.42424   1
   0 -10   6 16.7067 6.11001   1
   0 -10   6 15.6514 4.79180   3
  -1  10  -6 8.56503 4.51042   1
   1 -10   6 2.00829 4.09067   1
   1 -10   6 10.2973 4.47447   3
  -2  10  -6 21.1332 6.27802   1
   2 -10   6 15.5395 6.98567   1
   2 -10   6 24.3834 6.21845   3
  -3  10  -6 34.6335 7.73991   1
   3 -10   6 62.1772 11.5661   1
   3 -10   6 46.1042 8.34602   3
  -4  10  -6 14.6440 6.12727   1
   4 -10   6 2.17269 5.10002   1
   4 -10   6 10.2741 4.36987   3
  -5  10  -6 21.1571 6.80094   1
   5 -10   6 15.7325 7.60882   1
   5 -10   6 10.2429 4.88739   3
   4   9  -6 0.21450 2.56357   1
   3   9  -6 23.8965 5.46120   1
  -3  -9   6 15.5916 5.33961   3
   2   9  -6 13.1233 4.73155   1
  -2  -9   6 17.6617 5.02613   3
  -2  -9   6 18.6152 5.83476   1
   1   9  -6 17.2695 5.08244   1
  -1  -9   6 7.74729 3.83171   3
  -1  -9   6 20.0269 5.61502   1
   0   9  -6 27.6289 6.30845   1
   0  -9   6 21.6474 6.23134   1
   0  -9   6 31.7059 6.07596   3
  -1   9  -6 22.2864 5.85357   1
  -1   9  -6 25.5125 5.32582   3
   1  -9   6 16.3951 5.04870   3
   1  -9   6 20.2321 6.54973   1
  -2   9  -6 8.48428 4.64918   1
   2  -9   6 2.79715 3.10351   3
   2  -9   6 6.57404 4.19853   1
  -3   9  -6 87.1991 11.7435   1
   3  -9   6 102.983 11.5517   3
   3  -9   6 96.3210 13.0666   1
  -4   9  -6 2.32720 3.36782   1
   4  -9   6 -2.6716 2.71482   3
   4  -9   6 6.18052 4.90968   1
  -5   9  -6 0.99018 3.83813   1
   5  -9   6 0.33418 3.15198   3
   5  -9   6 -3.7615 3.98325   1
   5   8  -6 6.72225 3.91298   1
   4   8  -6 3.64474 3.27268   1
   3   8  -6 -0.9076 1.85667   1
  -3  -8   6 2.15338 2.81357   3
  -3  -8   6 -0.7761 2.87929   1
   2   8  -6 15.2261 4.43750   1
  -2  -8   6 20.5901 5.68330   1
  -2  -8   6 26.7752 5.71342   3
   1   8  -6 25.5348 5.91240   1
   1   8  -6 20.0199 4.24453   3
  -1  -8   6 23.3234 5.40971   3
  -1  -8   6 23.2361 5.76145   1
   0   8  -6 160.645 11.3997   1
   0   8  -6 145.509 9.34257   3
   0  -8   6 143.474 10.1921   3
   0  -8   6 161.605 14.9856   1
  -1   8  -6 1.07749 2.45556   1
   1  -8   6 -1.6839 2.72858   1
   1  -8   6 -2.9611 1.37181   3
  -2   8  -6 53.6616 8.50319   1
   2  -8   6 55.7708 9.62714   1
   2  -8   6 48.2521 7.41991   3
  -3   8  -6 4.34088 3.90817   1
   3  -8   6 0.40159 2.14657   3
   3  -8   6 4.88742 4.56576   1
  -4   8  -6 45.0402 8.37005   1
   4  -8   6 46.6159 9.22095   1
   4  -8   6 52.7224 8.36355   3
  -5   8  -6 2.50669 3.73044   1
   5  -8   6 2.40852 3.55765   3
   5  -8   6 3.07890 4.38407   1
  -6   8  -6 0.58842 4.17437   1
   6  -8   6 4.90027 4.57215   1
   5   7  -6 -1.3655 1.98423   1
   4   7  -6 5.30784 3.49673   1
  -4  -7   6 3.38237 3.50471   1
   3   7  -6 18.6059 5.01691   1
  -3  -7   6 12.7839 4.64426   1
  -3  -7   6 11.3508 3.97358   3
   2   7  -6 137.348 8.34549   3
   2   7  -6 131.236 11.9693   1
  -2  -7   6 135.262 11.7667   3
  -2  -7   6 144.484 13.2327   1
   1   7  -6 28.6033 4.82970   3
   1   7  -6 28.8262 5.62859   1
  -1  -7   6 21.5167 4.62433   3
  -1  -7   6 31.0452 6.29118   1
   0   7  -6 4.49279 2.70023   3
   0   7  -6 5.08610 2.92567   1
   0  -7   6 4.56509 3.13834   1
   0  -7   6 3.52643 2.39151   3
  -1   7  -6 8.17572 3.64258   1
   1  -7   6 5.46626 2.91307   3
   1  -7   6 6.61305 3.96431   1
  -2   7  -6 2.57718 2.78530   1
   2  -7   6 0.66403 2.36719   1
   2  -7   6 5.78733 2.73974   3
  -3   7  -6 1013.18 36.0890   1
   3  -7   6 1044.89 38.3074   1
   3  -7   6 1066.91 34.2511   3
  -4   7  -6 7.82189 4.33101   1
   4  -7   6 5.60155 3.30071   3
   4  -7   6 12.5203 5.26525   1
  -5   7  -6 0.76690 2.99088   1
   5  -7   6 0.61515 3.94745   1
   5  -7   6 -2.2945 2.39343   3
  -6   7  -6 0.28907 3.85807   1
   6  -7   6 -4.0836 3.16768   1
   6   6  -6 0.48259 2.53350   1
   5   6  -6 2.37707 2.44941   1
  -5  -6   6 3.65216 3.53171   1
   4   6  -6 81.1540 7.80494   3
   4   6  -6 108.377 10.7733   1
  -4  -6   6 107.101 10.9197   1
   3   6  -6 37.4700 6.30273   1
   3   6  -6 40.4487 5.59248   3
  -3  -6   6 36.7804 6.33922   1
   2   6  -6 1.95710 2.10533   3
   2   6  -6 9.29603 3.54292   1
  -2  -6   6 8.71425 3.96340   1
  -2  -6   6 4.53162 2.53625   3
   1   6  -6 -0.3043 1.52602   3
   1   6  -6 -0.2580 1.59706   1
  -1  -6   6 -0.7011 1.37881   3
  -1  -6   6 0.91876 2.11934   1
   0   6  -6 63.9047 7.75051   1
   0  -6   6 82.6448 8.63746   3
   0  -6   6 74.2399 8.98646   1
  -1   6  -6 316.085 15.5069   1
   1  -6   6 297.516 16.1156   1
   1  -6   6 337.350 14.5697   3
  -2   6  -6 61.2587 8.02173   1
   2  -6   6 65.3913 7.61387   3
   2  -6   6 64.0522 8.83318   1
  -3   6  -6 100.188 11.2470   1
   3  -6   6 141.967 12.4553   3
   3  -6   6 103.583 12.3295   1
  -4   6  -6 233.933 14.9499   1
   4  -6   6 243.940 16.0409   1
   4  -6   6 236.685 13.7624   3
  -5   6  -6 12.9298 4.99664   1
   5  -6   6 4.90770 3.35121   3
   5  -6   6 12.7912 5.02792   1
  -6   6  -6 11.1087 5.66861   1
   6  -6   6 6.36381 4.22206   1
   6   5  -6 3.10565 2.95722   1
  -6  -5   6 2.31955 3.80549   1
   5   5  -6 90.9844 9.85851   1
   5   5  -6 85.6841 8.53954   3
  -5  -5   6 77.9208 9.63972   1
   4   5  -6 4.30610 2.72081   1
   4   5  -6 11.7300 3.32857   3
  -4  -5   6 9.23278 3.70107   1
   3   5  -6 160.713 8.65457   3
   3   5  -6 159.238 10.0828   1
  -3  -5   6 145.610 10.0730   1
  -3  -5   6 145.281 6.30653   2
   2   5  -6 137.856 8.99895   1
   2   5  -6 135.931 7.82080   3
  -2  -5   6 136.538 8.69441   3
  -2  -5   6 147.507 9.60224   1
   1   5  -6 14.7071 3.30970   3
   1   5  -6 23.5302 4.61824   1
  -1  -5   6 19.7934 4.39269   1
  -1  -5   6 23.9681 4.30332   3
   0   5  -6 727.258 25.1205   1
   0  -5   6 752.760 24.0921   3
   0  -5   6 759.779 26.3993   1
  -1   5  -6 37.4256 6.13417   1
   1  -5   6 27.4427 5.58589   1
   1  -5   6 31.2821 5.00947   3
  -2   5  -6 34.9886 6.18706   1
   2  -5   6 39.8969 5.66951   3
   2  -5   6 39.9129 6.69826   1
  -3   5  -6 616.751 24.3151   1
   3  -5   6 577.348 24.5259   1
   3  -5   6 594.117 21.9180   3
  -4   5  -6 27.4470 6.12237   1
   4  -5   6 31.4464 5.94003   3
   4  -5   6 22.3056 6.08215   1
  -5   5  -6 9.70708 4.72157   1
   5  -5   6 11.5588 4.66612   1
  -6   5  -6 -1.2965 2.96148   1
   6  -5   6 10.9488 4.67964   1
   7   4  -6 11.9220 4.80485   1
  -7  -4   6 6.41111 4.39594   1
   6   4  -6 1.00140 2.44846   1
  -6  -4   6 -1.9262 2.51345   1
   5   4  -6 12.1730 3.89638   1
   5   4  -6 13.9079 3.81313   3
  -5  -4   6 10.6432 3.75354   1
   4   4  -6 522.261 20.8952   1
  -4  -4   6 576.042 21.2502   1
   3   4  -6 60.2957 7.07493   1
   3   4  -6 48.0461 5.43273   3
  -3  -4   6 51.4283 6.72807   1
  -3  -4   6 50.1276 2.76472   2
   2   4  -6 23.9328 4.10952   3
   2   4  -6 24.1148 4.31700   1
  -2  -4   6 25.5787 4.48605   3
  -2  -4   6 26.2134 4.65772   1
   1   4  -6 581.067 20.4543   1
   1   4  -6 591.185 19.1514   3
  -1  -4   6 560.013 19.2451   3
  -1  -4   6 579.478 20.7493   1
   0   4  -6 3.66547 1.95989   1
   0  -4   6 1.79251 1.49152   3
   0  -4   6 1.95875 1.72720   1
  -1   4  -6 1188.35 34.8801   1
   1  -4   6 1207.12 33.1812   3
   1  -4   6 1136.16 35.7982   1
   1  -4   6 1117.82 33.7250   1
  -2   4  -6 38.2341 5.89289   1
   2  -4   6 33.5807 6.08683   1
   2  -4   6 33.6731 5.14263   3
   2  -4   6 33.3108 5.38973   1
  -3   4  -6 553.787 22.0267   1
   3  -4   6 489.716 19.0912   3
   3  -4   6 545.522 22.3051   1
  -4   4  -6 97.2863 10.6036   1
   4  -4   6 103.858 11.4637   1
   4  -4   6 112.681 10.4494   3
  -5   4  -6 20.8668 5.92847   1
   5  -4   6 24.0139 5.92947   1
   6  -4   6 -0.0315 2.78669   1
   7   3  -6 10.1393 4.43383   1
  -7  -3   6 2.17888 3.62027   1
   6   3  -6 6.98611 3.40557   1
   6   3  -6 17.0198 4.41767   3
  -6  -3   6 17.8196 5.13397   1
   5   3  -6 72.2918 8.62156   1
   5   3  -6 83.0833 8.42552   3
  -5  -3   6 69.3458 8.26926   1
   4   3  -6 34.2788 5.03159   3
   4   3  -6 31.5325 5.47679   1
  -4  -3   6 29.7507 5.22747   1
   3   3  -6 68.3297 6.54901   3
   3   3  -6 80.2055 8.04337   1
  -3  -3   6 68.7918 7.03891   1
   2   3  -6 100.902 6.71405   1
   2   3  -6 84.0957 5.70139   3
  -2  -3   6 82.6987 7.64523   1
  -2  -3   6 82.0664 7.61977   3
   1   3  -6 125.949 7.59549   1
  -1  -3   6 117.985 7.11597   1
  -1  -3   6 135.917 8.14049   1
  -1  -3   6 139.637 7.45325   3
   0   3  -6 2101.19 53.9529   1
   0  -3   6 2064.03 54.8661   1
   0  -3   6 2094.06 52.2684   3
   0  -3   6 2089.56 52.8145   1
  -1   3  -6 137.577 8.32955   1
   1  -3   6 116.884 7.26825   1
   1  -3   6 125.108 7.12178   3
   1  -3   6 125.026 8.42786   1
  -2   3  -6 220.697 11.5082   1
   2  -3   6 186.700 9.97959   1
   2  -3   6 192.981 11.0166   1
   2  -3   6 182.524 9.32164   3
  -3   3  -6 19.5934 4.51247   1
   3  -3   6 24.7924 4.26972   3
   3  -3   6 26.6123 5.04776   1
   3  -3   6 22.2195 4.78714   1
  -4   3  -6 136.951 12.8856   1
   4  -3   6 128.118 11.7529   1
   4  -3   6 122.551 13.4890   3
  -5   3  -6 29.5201 6.75096   1
   5  -3   6 25.4376 5.62992   1
   6  -3   6 6.73122 3.40969   1
  -8  -2   6 4.17077 4.09296   1
   7   2  -6 108.569 10.7362   3
  -7  -2   6 125.500 11.8214   1
   6   2  -6 10.4524 3.21645   3
  -6  -2   6 18.7718 5.10950   1
   5   2  -6 26.2585 4.71085   3
  -5  -2   6 32.6630 5.34978   1
   4   2  -6 253.149 12.6130   1
   4   2  -6 249.750 10.6083   3
  -4  -2   6 244.276 11.7698   1
   3   2  -6 16.4130 3.49305   1
   3   2  -6 25.6745 4.01675   3
  -3  -2   6 19.2892 3.74829   1
   2   2  -6 1094.56 29.9464   1
   2   2  -6 1038.49 28.4965   3
  -2  -2   6 984.884 29.4991   1
   1   2  -6 29.2888 4.20378   1
  -1  -2   6 25.2716 3.59605   3
  -1  -2   6 22.2189 3.70387   1
  -1  -2   6 20.2109 3.37500   1
   0   2  -6 147.293 7.83925   1
   0  -2   6 149.792 7.23888   1
   0  -2   6 143.009 6.90309   3
   0  -2   6 133.526 7.94419   1
  -1   2  -6 510.914 18.0964   1
   1  -2   6 511.460 18.4117   1
   1  -2   6 531.582 16.5908   3
   1  -2   6 527.512 17.0535   1
  -2   2  -6 293.522 13.3405   1
   2  -2   6 277.341 11.2466   3
   2  -2   6 295.185 13.0694   1
   2  -2   6 286.989 12.0850   1
  -3   2  -6 13.6983 3.75929   1
   3  -2   6 12.3490 3.36228   1
   3  -2   6 12.3919 3.36168   1
   3  -2   6 14.9547 3.48081   3
  -4   2  -6 -4.1314 2.20679   1
   4  -2   6 2.58145 2.23035   1
   5  -2   6 -0.5363 1.87921   1
   6  -2   6 6.91483 4.92642   2
   6  -2   6 0.97950 2.55607   1
  -8  -1   6 23.1892 5.77298   1
   7   1  -6 8.91899 4.32602   3
  -7  -1   6 1.67208 3.55425   1
  -6  -1   6 146.368 9.84294   1
   5   1  -6 19.8269 4.13665   3
  -5  -1   6 25.1124 4.84305   1
   4   1  -6 354.140 12.7931   3
  -4  -1   6 325.860 13.5967   1
   3   1  -6 192.791 8.45513   3
  -3  -1   6 191.240 8.95605   1
  -3  -1   6 196.667 9.20443   1
   2   1  -6 710.066 20.5648   3
   2   1  -6 716.164 21.5774   1
  -2  -1   6 709.158 17.3751   2
  -2  -1   6 680.728 20.2700   1
  -2  -1   6 741.095 21.6328   1
   1   1  -6 94.3375 5.41371   3
   1   1  -6 105.857 5.91480   1
  -1  -1   6 93.1561 5.87376   1
  -1  -1   6 99.8285 5.00925   2
   0   1  -6 44.9681 4.73523   3
   0   1  -6 43.3045 4.70633   1
   0  -1   6 42.8162 4.78671   2
   0  -1   6 45.4327 4.24827   1
   0  -1   6 41.8879 3.96051   3
   0  -1   6 45.3247 5.06695   1
  -1   1  -6 8.38157 2.20684   3
  -1   1  -6 9.21891 2.58594   1
   1  -1   6 4.77361 1.79788   1
   1  -1   6 6.13075 2.28652   2
  -2   1  -6 424.541 15.5917   3
  -2   1  -6 451.448 17.0915   1
   2  -1   6 443.720 15.6246   1
   2  -1   6 464.023 17.9960   2
  -3   1  -6 51.0955 6.74554   1
   3  -1   6 48.3500 7.04659   2
   3  -1   6 26.3505 4.30513   1
   3  -1   6 34.4630 4.71033   1
  -4   1  -6 53.0712 7.70710   1
   4  -1   6 63.9592 8.92751   2
   4  -1   6 68.7754 6.96964   1
   5  -1   6 14.9667 5.51197   2
   5  -1   6 22.9522 4.50085   1
   6  -1   6 6.20441 3.21903   1
   6  -1   6 4.00747 4.75727   2
   8   0  -6 1.90947 3.01700   3
  -8   0   6 -2.2751 3.39559   1
  -7   0   6 195.039 12.2650   1
   6   0  -6 -0.7984 1.74077   3
  -6   0   6 -0.4816 2.27822   1
   5   0  -6 73.5580 6.93024   3
  -5   0   6 71.4918 7.22111   1
   4   0  -6 172.459 8.16878   3
  -4   0   6 179.460 9.43645   1
  -4   0   6 185.130 9.11785   1
   3   0  -6 116.762 4.28469   2
   3   0  -6 121.474 6.23542   3
  -3   0   6 118.208 6.68599   1
  -3   0   6 124.507 6.70077   1
   2   0  -6 16.7649 2.72313   3
   2   0  -6 21.1710 3.23179   3
  -2   0   6 16.7557 1.93699   2
  -2   0   6 21.0518 3.21884   1
  -2   0   6 18.2960 2.68201   1
   1   0  -6 334.255 11.5976   1
   1   0  -6 357.808 11.5568   3
  -1   0   6 335.291 11.3681   2
  -1   0   6 358.160 11.9199   1
   0   0  -6 71.5217 4.69944   1
   0   0  -6 80.3640 4.58449   3
   0   0   6 82.4124 5.49102   2
   0   0   6 81.8619 4.43548   1
  -1   0  -6 1.04463 1.01440   3
  -1   0  -6 0.75376 1.16050   1
   1   0   6 0.31241 0.74013   1
   1   0   6 0.63502 1.12390   2
   1   0   6 1.51275 0.89265   1
  -2   0  -6 395.472 14.0731   3
  -2   0  -6 387.544 15.0733   1
   2   0   6 380.317 16.3366   2
   2   0   6 387.252 12.5702   1
   2   0   6 390.613 12.5245   1
  -3   0  -6 51.5715 6.69899   1
   3   0   6 43.3293 4.71021   1
   3   0   6 48.9094 4.82620   1
   3   0   6 48.4029 7.34048   2
   4   0   6 1.10355 1.39200   1
   4   0   6 4.03058 2.87041   2
   5   0   6 7.28627 3.97109   2
   5   0   6 7.97909 2.66585   1
   6   0   6 2.73476 2.55269   1
   6   0   6 0.87254 4.33911   2
   8  -1  -6 0.58287 2.67181   1
   8  -1  -6 -0.7110 2.32012   3
  -8   1   6 1.44620 3.24927   1
   7  -1  -6 4.75614 3.48441   1
   7  -1  -6 3.79276 2.96008   3
  -7   1   6 6.58381 3.54591   1
   6  -1  -6 148.524 10.1961   1
   6  -1  -6 157.219 9.67113   3
  -6   1   6 162.175 10.0580   1
   5  -1  -6 91.4180 8.42022   1
   5  -1  -6 74.6746 6.94448   3
  -5   1   6 82.2051 8.76018   1
  -5   1   6 74.2189 6.95803   1
   4  -1  -6 23.3820 2.38393   2
   4  -1  -6 20.5803 3.70314   1
   4  -1  -6 18.9174 3.19626   3
  -4   1   6 21.5814 4.05453   1
  -4   1   6 35.0325 4.54431   1
   3  -1  -6 324.299 11.9365   1
   3  -1  -6 333.391 10.4129   2
   3  -1  -6 336.500 11.4439   3
  -3   1   6 349.154 12.3827   1
  -3   1   6 336.025 11.8304   1
   2  -1  -6 192.217 7.89454   2
   2  -1  -6 205.069 7.66084   3
  -2   1   6 191.585 7.32267   1
  -2   1   6 192.983 7.65686   1
   1  -1  -6 163.515 6.53664   3
   1  -1  -6 170.749 6.81126   1
  -1   1   6 165.576 7.30184   2
   0  -1  -6 239.556 8.30651   3
   0  -1  -6 243.486 8.79645   1
   0   1   6 237.941 10.3678   2
  -1  -1  -6 42.0374 4.12929   3
  -1  -1  -6 43.4644 4.55580   1
   1   1   6 38.2896 5.32060   2
  -2  -1  -6 67.6659 6.79747   1
  -2  -1  -6 61.1199 5.74958   3
   2   1   6 82.4486 8.80299   2
   3   1   6 57.8368 7.84897   2
   3   1   6 51.3020 4.30971   1
   4   1   6 56.4739 8.83951   2
   5   1   6 28.6495 6.60973   2
   8  -2  -6 -1.9654 1.87985   3
   8  -2  -6 -2.0395 3.06976   1
  -8   2   6 0.47419 3.41382   1
   7  -2  -6 104.759 10.9743   1
   7  -2  -6 84.6488 9.51444   3
  -7   2   6 88.4015 9.22952   1
   6  -2  -6 104.554 9.86371   3
   6  -2  -6 121.822 10.6410   1
  -6   2   6 90.5777 8.71400   1
   5  -2  -6 89.4571 8.61517   1
   5  -2  -6 74.3596 7.01842   3
  -5   2   6 72.3329 8.08325   1
  -5   2   6 75.4513 6.97560   1
   4  -2  -6 3.92918 1.78231   3
   4  -2  -6 4.40246 1.63658   2
   4  -2  -6 0.68641 1.49499   1
  -4   2   6 4.66368 2.04235   1
  -4   2   6 2.29411 1.79420   1
   3  -2  -6 -1.2642 0.83717   3
   3  -2  -6 0.53849 1.02086   1
  -3   2   6 0.06889 1.02467   1
  -3   2   6 0.01494 1.11895   1
   2  -2  -6 42.2558 3.83316   1
   2  -2  -6 42.0107 3.52952   3
   1  -2  -6 69.7974 3.69864   1
  -1   2   6 74.2248 4.92777   2
   0  -2  -6 9.19971 1.65538   1
   0   2   6 8.29808 2.37266   2
  -1  -2  -6 -0.2446 0.80843   3
  -1  -2  -6 -1.0220 0.72140   1
   1   2   6 -0.2175 1.21738   2
  -2  -2  -6 5.90503 2.30316   1
  -2  -2  -6 6.03546 2.11606   3
   2   2   6 7.32336 2.87302   2
   3   2   6 25.2743 5.29611   2
   4   2   6 30.2876 6.47914   2
   5   2   6 6.18783 4.38513   2
   8  -3  -6 3.36223 3.10912   3
   8  -3  -6 5.93163 4.19414   1
  -8   3   6 13.3310 4.75984   1
   7  -3  -6 17.3660 5.04594   1
   7  -3  -6 21.4708 5.21355   3
  -7   3   6 20.1556 4.75399   1
   6  -3  -6 63.1019 7.51253   3
   6  -3  -6 87.9582 9.19835   1
  -6   3   6 81.0382 7.93886   1
   5  -3  -6 91.7658 8.50382   1
   5  -3  -6 81.2630 7.36533   3
  -5   3   6 65.0501 7.99820   1
  -5   3   6 81.8352 7.01920   1
   4  -3  -6 1.25558 1.42714   1
   4  -3  -6 6.10134 1.98459   3
  -4   3   6 3.63678 1.78111   1
  -4   3   6 -1.0330 1.06778   1
   3  -3  -6 7.25969 2.03930   1
   3  -3  -6 7.96288 1.78952   3
  -3   3   6 9.37855 2.04410   1
  -3   3   6 11.2097 1.98058   1
   2  -3  -6 240.768 8.32419   1
   2  -3  -6 240.566 7.78868   3
  -1   3   6 172.007 8.41176   2
   0  -3  -6 2.08342 0.95797   1
   0   3   6 1.14943 1.39396   2
  -1  -3  -6 0.40944 0.94930   1
   1   3   6 2.23373 1.89781   2
   2   3   6 94.3854 9.69634   2
   3   3   6 261.169 14.6929   2
   4   3   6 27.0548 6.32232   2
   8  -4  -6 15.7229 4.66455   3
  -8   4   6 9.58476 4.45137   1
   7  -4  -6 90.7993 10.2959   1
   7  -4  -6 64.3492 8.42718   3
  -7   4   6 77.3989 8.24936   1
   6  -4  -6 56.5759 6.94844   3
   6  -4  -6 63.7632 7.79378   1
  -6   4   6 69.4985 7.07938   1
   5  -4  -6 -1.1394 1.49214   3
   5  -4  -6 2.52166 2.36153   1
  -5   4   6 2.09970 1.89745   1
   4  -4  -6 4.51210 2.03618   3
   4  -4  -6 7.23749 2.42798   1
  -4   4   6 2.50839 1.87870   1
  -4   4   6 -0.1712 1.23532   1
   3  -4  -6 -0.1009 1.22344   1
   3  -4  -6 1.00955 1.29154   3
   2  -4  -6 -1.9125 0.92894   1
   0   4   6 20.6810 3.95515   2
   1   4   6 128.794 8.90328   2
   2   4   6 1.52213 2.15866   2
   3   4   6 2.03599 2.76225   2
   4   4   6 8.05289 4.31389   2
   8  -5  -6 18.3517 5.04669   3
  -8   5   6 28.1164 6.15444   1
   7  -5  -6 8.05412 3.60657   3
  -7   5   6 14.5846 3.75165   1
   6  -5  -6 -2.5816 1.33145   3
  -6   5   6 1.91193 2.40987   1
   5  -5  -6 -1.2559 1.27841   3
  -5   5   6 -1.1043 1.44866   1
   4  -5  -6 7.34430 3.14818   1
   4  -5  -6 10.1475 2.62694   3
  -4   5   6 11.5687 2.23223   1
  -4   5   6 13.9696 2.14258   1
   3  -5  -6 49.7080 4.37297   3
   3  -5  -6 40.3925 4.54606   1
   2  -5  -6 15.3902 2.31111   1
   0   5   6 51.2299 6.53969   2
   1   5   6 5.55973 2.64559   2
   2   5   6 56.2711 7.72598   2
   3   5   6 39.9973 7.54208   2
   8  -6  -6 0.49223 2.47845   3
  -8   6   6 2.76489 3.63210   1
   7  -6  -6 3.88733 2.67232   3
  -7   6   6 0.65640 2.76564   1
   6  -6  -6 1.25342 1.93481   3
  -6   6   6 3.99441 2.50323   1
   5  -6  -6 22.9693 4.22530   3
  -5   6   6 26.8106 3.45075   1
   4  -6  -6 33.1044 4.20493   3
   3  -6  -6 141.656 6.68310   3
   1   6   6 43.3384 6.83920   2
   2   6   6 -2.7839 2.06865   2
   3   6   6 8.90651 4.62825   2
   7  -7  -6 2.09588 2.66098   3
  -7   7   6 -0.8587 2.53615   1
   6  -7  -6 1.62731 2.16157   3
  -6   7   6 4.66297 2.45489   1
   5  -7  -6 53.7370 6.72508   3
   4  -7  -6 0.04122 1.72653   3
   3  -7  -6 11.0466 2.45399   3
   7  -8  -6 4.36621 3.15316   3
  -7   8   6 5.76291 3.03977   1
   6  -8  -6 2.39018 2.75575   3
  -6   8   6 1.25597 1.88356   1
   5  -8  -6 9.38877 3.19999   3
   4  -8  -6 30.7726 4.84149   3
   6  -9  -6 13.3354 4.36441   3
   5  -9  -6 -2.7525 1.87433   3
   4  -9  -6 1.16588 2.16193   3
   1  11  -7 4.60780 4.42916   1
  -1 -11   7 2.82258 4.02063   3
   0  11  -7 0.82488 3.83826   1
   0 -11   7 -2.5220 2.38083   3
  -1  11  -7 2.47823 3.57728   1
   1 -11   7 -0.7495 2.61726   3
  -2  11  -7 223.862 19.9306   1
   2 -11   7 219.533 21.6613   1
   2 -11   7 243.440 16.2076   3
  -3  11  -7 3.45365 3.68111   1
   3 -11   7 -0.7337 2.93771   3
   3 -11   7 4.08836 5.59081   1
   3  10  -7 5.23300 3.61709   1
  -3 -10   7 0.26325 3.24979   3
   2  10  -7 4.84598 4.10125   1
  -2 -10   7 0.48971 3.02605   3
   1  10  -7 5.99989 4.11211   1
  -1 -10   7 12.8464 5.00088   3
  -1 -10   7 3.02634 4.89297   1
   0  10  -7 27.9675 7.11071   1
   0 -10   7 20.0403 6.94081   1
   0 -10   7 33.0586 7.07598   3
  -1  10  -7 167.774 15.7412   1
   1 -10   7 150.815 14.6395   3
   1 -10   7 138.153 16.3943   1
  -2  10  -7 3.59908 4.24962   1
   2 -10   7 3.45621 5.37274   1
   2 -10   7 1.54602 3.46636   3
  -3  10  -7 195.558 19.0765   1
   3 -10   7 205.577 20.8622   1
   3 -10   7 213.485 14.7685   3
  -4  10  -7 0.27100 4.16968   1
   4 -10   7 -0.3665 3.69944   3
   4 -10   7 1.63290 5.10654   1
   4   9  -7 0.33703 2.78467   1
   3   9  -7 0.22918 2.58282   1
  -3  -9   7 -2.6902 2.60410   3
   2   9  -7 1.35987 2.50294   1
  -2  -9   7 2.96236 4.14495   1
  -2  -9   7 -0.5120 2.13057   3
   1   9  -7 89.1154 11.4948   1
  -1  -9   7 68.4850 9.35685   3
  -1  -9   7 103.533 12.5584   1
   0   9  -7 53.9795 8.96478   1
   0  -9   7 46.7351 7.65825   3
   0  -9   7 46.4946 9.10717   1
  -1   9  -7 17.2741 5.65998   1
   1  -9   7 30.0214 6.64805   3
   1  -9   7 13.6545 5.57709   1
  -2   9  -7 806.747 31.8369   1
   2  -9   7 778.784 29.3462   3
   2  -9   7 713.746 32.8342   1
  -3   9  -7 10.3612 4.95842   1
   3  -9   7 8.78728 5.54869   1
   3  -9   7 9.24305 4.29634   3
  -4   9  -7 2.55749 3.72236   1
   4  -9   7 2.59388 2.82920   3
   4  -9   7 0.48904 3.84159   1
  -5   9  -7 4.13455 4.72503   1
   5  -9   7 -1.4360 4.55105   1
   5  -9   7 -3.5278 3.04585   3
   5   8  -7 11.1608 4.87504   1
   4   8  -7 5.08189 3.76977   1
  -4  -8   7 5.74960 4.43185   1
   3   8  -7 -0.2351 1.78654   1
  -3  -8   7 -2.5306 2.19268   3
  -3  -8   7 -0.4130 2.94804   1
   2   8  -7 89.9814 10.6459   1
  -2  -8   7 113.056 12.7609   1
  -2  -8   7 99.3050 10.9184   3
   1   8  -7 5.11748 2.80284   3
   1   8  -7 6.78628 3.63610   1
  -1  -8   7 3.64015 2.90555   3
  -1  -8   7 1.51537 3.50190   1
   0   8  -7 498.290 19.9556   3
   0   8  -7 498.607 22.3016   1
   0  -8   7 513.746 23.9224   1
   0  -8   7 499.772 20.8872   3
  -1   8  -7 55.8953 8.46661   1
   1  -8   7 48.2809 8.79266   1
   1  -8   7 59.1885 8.21116   3
  -2   8  -7 36.1243 7.15697   1
   2  -8   7 44.4020 7.17803   3
   2  -8   7 29.9471 7.53883   1
  -3   8  -7 227.393 15.6769   1
   3  -8   7 204.091 13.5533   3
   3  -8   7 260.288 17.7807   1
  -4   8  -7 -1.6963 2.41381   1
   4  -8   7 -0.2253 3.75937   1
   4  -8   7 -2.7200 2.43607   3
  -5   8  -7 27.8949 7.67793   1
   5  -8   7 39.6767 9.20422   1
   5  -8   7 41.1940 8.04298   3
   5   7  -7 -1.2005 2.53444   1
  -5  -7   7 5.30398 4.64266   1
   4   7  -7 16.9826 4.86458   1
  -4  -7   7 15.9994 5.23729   1
   3   7  -7 1.31930 2.57541   1
   3   7  -7 3.83204 2.75521   3
  -3  -7   7 4.20288 3.00841   3
  -3  -7   7 8.25095 4.01002   1
   2   7  -7 11.0683 3.31353   3
   2   7  -7 7.63216 3.38319   1
  -2  -7   7 13.9311 4.84155   1
  -2  -7   7 10.4392 3.61536   3
   1   7  -7 477.877 18.6755   3
   1   7  -7 508.109 21.3554   1
  -1  -7   7 493.976 19.9004   3
  -1  -7   7 452.397 21.4444   1
   0   7  -7 -0.3588 2.09330   3
   0   7  -7 0.39286 2.21906   1
   0  -7   7 0.23248 2.09916   3
   0  -7   7 -1.7650 2.38267   1
  -1   7  -7 10.7833 4.20548   1
   1  -7   7 14.3839 5.32139   1
   1  -7   7 18.4005 4.62501   3
  -2   7  -7 153.930 13.7806   1
   2  -7   7 158.171 10.7152   3
   2  -7   7 168.275 16.2577   1
  -3   7  -7 266.153 16.4253   1
   3  -7   7 300.590 18.4548   1
   3  -7   7 268.826 14.9285   3
  -4   7  -7 -3.7680 2.08926   1
   4  -7   7 -1.6361 2.31516   3
   4  -7   7 2.37024 3.70363   1
  -5   7  -7 0.19182 3.54971   1
   5  -7   7 8.00452 5.35441   1
  -6   7  -7 37.0790 9.29943   1
   6  -7   7 14.0233 6.48230   1
   6   6  -7 2.25457 2.97391   1
  -6  -6   7 4.05685 4.23089   1
   5   6  -7 76.3055 10.0030   1
  -5  -6   7 85.8847 10.7606   1
   4   6  -7 35.5042 6.58198   1
   4   6  -7 33.9786 5.42529   3
  -4  -6   7 29.5119 6.47545   1
   3   6  -7 -1.0538 1.76896   3
   3   6  -7 0.90376 2.00165   1
  -3  -6   7 2.57478 2.79386   1
   2   6  -7 67.0010 7.21068   3
   2   6  -7 64.2625 8.29988   1
  -2  -6   7 96.3796 10.9943   1
  -2  -6   7 79.1449 8.68527   3
   1   6  -7 -1.4475 1.62393   3
   1   6  -7 1.92889 2.24329   1
  -1  -6   7 0.77557 1.94090   3
  -1  -6   7 4.88129 2.93946   1
   0   6  -7 275.891 14.5007   1
   0  -6   7 284.735 15.5485   1
   0  -6   7 262.518 13.0260   3
  -1   6  -7 53.7691 7.68721   1
   1  -6   7 77.9037 9.78837   1
   1  -6   7 66.0674 8.07223   3
  -2   6  -7 496.640 21.6695   1
   2  -6   7 489.611 19.6615   3
   2  -6   7 475.690 22.4549   1
  -3   6  -7 43.2947 7.53022   1
   3  -6   7 35.6171 7.75012   1
   3  -6   7 62.1603 8.37859   3
  -4   6  -7 5.92756 3.94926   1
   4  -6   7 3.82204 3.02926   3
   4  -6   7 0.64418 2.99390   1
  -5   6  -7 2.64188 3.94745   1
   5  -6   7 1.81735 3.37954   1
  -6   6  -7 14.9363 6.09141   1
   6  -6   7 14.2587 5.56191   1
   6   5  -7 2.51898 2.84522   1
  -6  -5   7 1.08568 3.16507   1
   5   5  -7 -0.8728 1.88061   3
   5   5  -7 -1.0500 2.07707   1
  -5  -5   7 -4.6187 2.11066   1
   4   5  -7 41.2083 6.53069   1
  -4  -5   7 31.2144 6.15441   1
   3   5  -7 24.4002 4.85920   1
   3   5  -7 25.3783 4.65169   3
  -3  -5   7 31.4564 5.99667   1
   2   5  -7 14.5352 3.87480   3
   2   5  -7 5.86448 2.78696   1
  -2  -5   7 4.46395 2.79340   1
  -2  -5   7 11.0272 3.37660   3
   1   5  -7 92.4724 8.60790   3
   1   5  -7 102.431 9.60917   1
  -1  -5   7 96.4798 10.0452   1
  -1  -5   7 104.720 9.28628   3
   0   5  -7 130.557 9.30829   1
   0  -5   7 149.335 8.82551   3
   0  -5   7 134.140 12.3317   1
  -1   5  -7 57.4352 7.92191   1
   1  -5   7 46.7672 7.81019   1
   1  -5   7 41.1596 6.09596   3
  -2   5  -7 2.45754 2.74009   1
   2  -5   7 5.55979 2.68309   3
   2  -5   7 8.67289 3.72399   1
  -3   5  -7 690.540 27.2323   1
   3  -5   7 710.896 28.2645   1
   3  -5   7 689.514 24.7075   3
  -4   5  -7 1.25933 3.09265   1
   4  -5   7 0.54574 3.05614   1
   4  -5   7 -0.7336 2.30883   3
  -5   5  -7 5.62062 4.11254   1
   5  -5   7 8.79798 4.92715   1
   6  -5   7 24.5855 6.75391   1
   7   4  -7 11.9979 5.02156   1
  -7  -4   7 8.11058 4.85604   1
   6   4  -7 18.0518 4.55600   3
   6   4  -7 22.0984 5.55067   1
  -6  -4   7 23.3522 6.00496   1
   5   4  -7 59.7861 8.45134   1
   5   4  -7 68.0829 7.56727   3
  -5  -4   7 55.4204 7.77595   1
   4   4  -7 9.44240 2.99811   3
   4   4  -7 9.06401 3.20043   1
  -4  -4   7 11.7272 3.78837   1
   3   4  -7 0.39687 1.66130   1
   3   4  -7 1.58398 1.88345   3
  -3  -4   7 1.26012 2.39629   1
   2   4  -7 87.7809 8.09890   3
   2   4  -7 66.6225 7.65904   1
  -2  -4   7 66.0443 7.35760   3
  -2  -4   7 56.8514 7.20370   1
   1   4  -7 408.671 16.7929   1
   1   4  -7 408.434 15.5862   3
  -1  -4   7 416.533 17.3289   1
  -1  -4   7 391.395 15.5735   3
   0   4  -7 14.3289 3.61081   1
   0  -4   7 13.0250 3.82346   1
   0  -4   7 13.8321 3.15196   3
   0  -4   7 13.8701 3.66529   1
  -1   4  -7 34.7686 5.65933   1
   1  -4   7 21.4714 4.14395   1
   1  -4   7 27.5386 4.67471   3
   1  -4   7 20.7391 4.98938   1
  -2   4  -7 86.8365 9.59575   1
   2  -4   7 63.3886 7.44806   1
   2  -4   7 61.3702 7.01656   3
   2  -4   7 67.8742 8.61330   1
  -3   4  -7 3.73577 2.96461   1
   3  -4   7 3.23446 2.91483   1
   3  -4   7 4.51946 2.74152   3
  -4   4  -7 26.9143 6.03317   1
   4  -4   7 26.8215 5.67691   1
  -5   4  -7 2.10519 3.12685   1
   5  -4   7 2.50334 3.15223   1
   6  -4   7 23.0213 5.83811   1
   7   3  -7 49.1487 9.26131   3
   7   3  -7 55.3400 8.81751   1
  -7  -3   7 78.0156 10.2970   1
   6   3  -7 4.91191 3.03719   1
   6   3  -7 3.22187 2.47379   3
  -6  -3   7 2.28481 2.71693   1
   5   3  -7 37.0078 6.09803   1
   5   3  -7 55.6292 6.81171   3
  -5  -3   7 44.9358 7.15333   1
   4   3  -7 152.046 8.66981   3
   4   3  -7 162.022 10.3883   1
  -4  -3   7 168.841 10.2875   1
   3   3  -7 316.036 14.0154   1
   3   3  -7 290.967 12.1788   3
  -3  -3   7 304.523 13.9594   1
   2   3  -7 5.55518 2.49457   3
   2   3  -7 5.96685 2.43084   1
  -2  -3   7 6.87972 2.55057   1
  -2  -3   7 4.73288 2.20589   3
   1   3  -7 18.7590 3.78808   1
  -1  -3   7 20.4141 3.70760   3
  -1  -3   7 19.9305 4.17623   1
  -1  -3   7 21.0837 3.70684   1
   0   3  -7 227.252 11.1774   1
   0  -3   7 199.421 9.81050   1
   0  -3   7 214.035 9.77073   3
   0  -3   7 239.639 12.0065   1
  -1   3  -7 8.53806 2.86735   1
   1  -3   7 12.0029 3.47212   1
   1  -3   7 5.15666 2.22507   1
   1  -3   7 13.6459 3.03424   3
  -2   3  -7 2.76868 1.99087   1
   2  -3   7 7.87840 2.58775   3
   2  -3   7 7.23160 2.90141   1
   2  -3   7 3.17193 2.31479   1
  -3   3  -7 411.372 18.7847   1
   3  -3   7 416.206 18.2302   1
   3  -3   7 391.585 15.9100   3
  -4   3  -7 22.1760 5.87744   1
   4  -3   7 16.2242 4.31247   1
   5  -3   7 31.9675 6.04898   1
   6  -3   7 0.51480 2.53788   1
   6  -3   7 1.28965 4.34491   2
   7   2  -7 25.0137 5.34649   3
  -7  -2   7 19.6639 5.56939   1
   6   2  -7 56.1643 7.03546   3
  -6  -2   7 53.7340 7.76320   1
   5   2  -7 154.832 8.96183   3
   5   2  -7 125.971 11.5763   1
  -5  -2   7 131.887 9.49866   1
   4   2  -7 42.1482 5.14994   3
   4   2  -7 50.9339 6.73368   1
  -4  -2   7 32.0215 5.16261   1
   3   2  -7 92.1063 8.28193   1
   3   2  -7 82.6974 5.82372   3
  -3  -2   7 87.0135 6.19929   1
  -3  -2   7 96.5806 8.62537   1
   2   2  -7 200.906 9.87475   1
   2   2  -7 190.988 9.11242   3
  -2  -2   7 205.643 10.2134   1
  -2  -2   7 199.207 6.49887   2
   1   2  -7 287.391 12.0552   1
  -1  -2   7 275.435 10.1981   2
  -1  -2   7 289.624 11.2988   3
  -1  -2   7 285.556 12.5915   1
   0   2  -7 22.1737 3.94695   1
   0  -2   7 29.1171 4.68269   1
   0  -2   7 32.2312 4.20298   3
   0  -2   7 25.4172 3.60587   1
  -1   2  -7 140.981 8.76579   1
   1  -2   7 168.312 9.41191   1
   1  -2   7 155.865 7.56668   3
   1  -2   7 164.267 8.18981   1
  -2   2  -7 95.3276 9.37065   1
   2  -2   7 83.0550 7.53604   1
   2  -2   7 82.2433 5.69586   3
   2  -2   7 95.0641 8.75898   1
  -3   2  -7 4.90338 3.38171   1
   3  -2   7 4.76166 2.40699   1
   4  -2   7 7.97582 3.95533   2
   4  -2   7 13.2009 3.83956   1
   5  -2   7 0.26214 3.15399   2
   5  -2   7 -1.5142 1.93265   1
   6  -2   7 1.30934 2.78529   1
   6  -2   7 -1.3746 3.58389   2
   8   1  -7 2.08315 3.43644   3
  -8  -1   7 13.5241 5.06066   1
   7   1  -7 107.272 11.1728   3
  -7  -1   7 108.597 11.1274   1
   6   1  -7 50.5271 6.66684   3
  -6  -1   7 68.3858 8.02350   1
   5   1  -7 -1.8273 1.61151   3
  -5  -1   7 0.33725 2.10886   1
   4   1  -7 75.4267 6.60966   3
  -4  -1   7 65.1724 9.34769   1
  -4  -1   7 70.9599 7.03562   1
   3   1  -7 99.8867 6.07378   3
   3   1  -7 99.3988 6.90225   1
  -3  -1   7 96.2227 6.26418   1
  -3  -1   7 97.4832 6.71479   1
   2   1  -7 75.5842 6.76341   1
   2   1  -7 65.9707 5.91479   3
  -2  -1   7 65.0791 5.50140   1
  -2  -1   7 70.1646 6.57824   1
  -2  -1   7 60.3135 3.23527   2
   1   1  -7 205.542 9.26879   3
   1   1  -7 214.011 9.64620   1
  -1  -1   7 235.058 10.3181   1
  -1  -1   7 226.051 8.93481   2
   0   1  -7 12.5837 2.78191   1
   0   1  -7 18.1366 3.33556   3
   0  -1   7 17.5957 3.22935   1
   0  -1   7 19.2533 3.40049   2
  -1   1  -7 35.9003 5.14478   1
  -1   1  -7 35.5860 4.85629   3
   1  -1   7 24.9334 4.43702   2
   1  -1   7 25.0654 3.19023   3
   1  -1   7 36.9578 4.63874   1
  -2   1  -7 43.0104 6.14350   1
  -2   1  -7 51.6717 6.21127   3
   2  -1   7 56.4852 5.89773   1
   2  -1   7 56.4139 7.41633   2
   2  -1   7 42.7959 4.71053   1
   2  -1   7 52.4090 4.92820   3
  -3   1  -7 181.774 11.2589   1
   3  -1   7 178.233 12.0061   2
   3  -1   7 187.316 9.27032   1
   4  -1   7 3.94192 2.21518   1
   4  -1   7 -1.4977 2.15392   2
   5  -1   7 14.9802 5.55027   2
   5  -1   7 2.19780 2.03828   1
   8   0  -7 12.6836 4.45855   3
  -8   0   7 16.1780 5.32895   1
   7   0  -7 58.8199 8.09559   3
  -7   0   7 66.6215 8.83648   1
   6   0  -7 11.8823 3.49102   3
  -6   0   7 7.75248 3.65121   1
   5   0  -7 2.52782 2.22178   3
  -5   0   7 1.93661 2.41902   1
   4   0  -7 28.7887 3.93834   3
  -4   0   7 31.5233 4.56825   1
  -4   0   7 26.8002 4.40390   1
   3   0  -7 2.24354 1.63087   3
  -3   0   7 0.41002 1.28422   1
  -3   0   7 -0.7575 1.03747   1
   2   0  -7 4.59083 1.73800   3
   2   0  -7 5.31949 1.95204   1
   2   0  -7 11.2623 2.56886   3
  -2   0   7 10.2173 2.13744   1
  -2   0   7 7.57195 2.16984   1
  -2   0   7 7.38777 1.63426   2
   1   0  -7 250.098 9.97068   1
   1   0  -7 237.133 9.51372   3
  -1   0   7 245.330 8.35803   1
  -1   0   7 267.590 9.99040   2
  -1   0   7 242.134 9.64130   1
   0   0  -7 18.8061 2.90425   3
   0   0  -7 19.4316 3.15523   1
   0   0   7 15.2667 3.13917   2
   0   0   7 17.0248 2.56137   1
  -1   0  -7 39.3713 4.61523   3
  -1   0  -7 50.5267 5.62295   1
   1   0   7 45.9649 3.11253   1
   1   0   7 55.5354 6.85252   2
   1   0   7 53.1424 4.27557   1
  -2   0  -7 16.4978 3.77693   1
   2   0   7 16.1788 2.43923   1
   2   0   7 16.5424 2.54092   1
   2   0   7 18.5229 4.51621   2
   3   0   7 2.86417 1.60305   1
   3   0   7 -0.4158 2.16994   2
   3   0   7 1.72714 1.59355   1
   4   0   7 2.35119 2.84693   2
   4   0   7 0.48668 1.40869   1
   5   0   7 15.3138 5.77486   2
   5   0   7 12.3316 3.09546   1
   8  -1  -7 -1.9257 2.04454   3
  -8   1   7 1.25786 3.11900   1
   7  -1  -7 3.10331 2.54736   3
  -7   1   7 -0.5561 2.62562   1
   6  -1  -7 2.51746 2.74717   1
   6  -1  -7 -2.2240 1.41672   3
  -6   1   7 4.60681 2.92646   1
   5  -1  -7 44.8553 5.76132   3
   5  -1  -7 45.6896 6.02424   1
  -5   1   7 39.4441 5.51241   1
   4  -1  -7 153.147 5.98482   2
   4  -1  -7 144.000 7.37742   3
  -4   1   7 145.886 8.55992   1
  -4   1   7 157.081 8.23107   1
   3  -1  -7 8.11753 2.16358   3
   3  -1  -7 11.1851 2.00212   2
  -3   1   7 8.78812 2.33168   1
  -3   1   7 2.97810 1.25279   1
   2  -1  -7 49.7326 4.65171   3
   2  -1  -7 47.9243 4.84615   3
  -2   1   7 53.5469 4.75571   1
  -2   1   7 48.6235 4.04168   1
  -2   1   7 49.2814 4.23685   2
   1  -1  -7 2.52164 1.27812   1
   1  -1  -7 1.25396 1.08564   3
  -1   1   7 3.85928 1.59650   2
   0  -1  -7 153.806 7.12613   1
   0  -1  -7 138.325 6.43603   3
   0   1   7 149.356 8.29473   2
  -1  -1  -7 2.49519 1.38015   3
  -1  -1  -7 -1.0441 1.39018   1
   1   1   7 1.98258 1.68217   2
   2   1   7 62.1410 8.17090   2
   3   1   7 129.894 12.2557   2
   4   1   7 12.2149 4.95510   2
   5   1   7 31.3824 8.30863   2
   8  -2  -7 0.38423 2.52855   3
   8  -2  -7 3.51820 3.93268   1
  -8   2   7 -1.9001 2.83113   1
   7  -2  -7 31.5890 6.14756   1
   7  -2  -7 15.6889 4.65102   3
  -7   2   7 32.1338 5.91156   1
   6  -2  -7 235.449 12.7653   1
   6  -2  -7 239.477 12.1001   3
  -6   2   7 226.445 11.8413   1
   5  -2  -7 100.884 6.78457   3
   5  -2  -7 104.709 9.16923   1
  -5   2   7 105.037 7.20529   1
   4  -2  -7 33.8506 4.72793   1
   4  -2  -7 33.5066 4.22279   3
  -4   2   7 41.0338 5.36072   1
  -4   2   7 38.3209 4.54441   1
   3  -2  -7 0.89736 1.03019   1
   3  -2  -7 1.70783 1.40060   3
  -3   2   7 1.76308 1.26603   1
  -3   2   7 1.40630 1.35053   1
   2  -2  -7 66.6107 4.10753   3
   1  -2  -7 236.112 8.44788   1
   1  -2  -7 220.695 8.05657   3
  -1   2   7 219.952 9.84161   2
   0  -2  -7 102.591 5.38715   1
   0   2   7 109.508 7.20033   2
  -1  -2  -7 83.7590 5.43093   1
  -1  -2  -7 77.1843 4.75093   3
   1   2   7 80.1256 8.13333   2
   2   2   7 -0.9309 2.02117   2
   3   2   7 5.70071 3.34922   2
   4   2   7 2.44932 3.20420   2
   8  -3  -7 0.32590 2.57399   3
  -8   3   7 1.70676 3.49001   1
   7  -3  -7 91.5289 10.2043   1
   7  -3  -7 52.1128 7.27494   3
  -7   3   7 47.3654 6.71793   1
   6  -3  -7 -0.2664 2.05186   1
   6  -3  -7 11.3263 3.67963   3
  -6   3   7 6.82066 2.99930   1
   5  -3  -7 84.2192 8.10702   1
   5  -3  -7 65.4614 6.49603   3
  -5   3   7 77.7308 6.96884   1
   4  -3  -7 18.9289 3.36505   3
   4  -3  -7 14.4851 3.20758   1
  -4   3   7 22.3129 3.35018   1
  -4   3   7 11.4488 2.96154   1
   3  -3  -7 3.37951 1.58433   1
   3  -3  -7 3.06273 1.46402   3
   2  -3  -7 12.4899 2.10483   3
   1  -3  -7 18.6336 2.18266   1
  -1   3   7 18.0115 3.58105   2
   0  -3  -7 103.043 5.05000   1
   0   3   7 118.671 7.80859   2
   1   3   7 6.26135 2.80333   2
   2   3   7 1.58723 2.37042   2
   3   3   7 97.5092 11.1661   2
   4   3   7 7.94227 4.43251   2
   8  -4  -7 14.0408 4.90727   3
  -8   4   7 14.1122 4.71438   1
   7  -4  -7 1.99850 2.42969   3
  -7   4   7 -1.1551 2.45149   1
   6  -4  -7 93.9806 9.11399   3
  -6   4   7 117.505 7.84370   1
   5  -4  -7 45.3603 5.69232   3
  -5   4   7 52.6700 5.51479   1
   4  -4  -7 231.588 10.7198   1
   4  -4  -7 259.653 10.1106   3
  -4   4   7 241.656 9.54265   1
  -4   4   7 257.439 8.98498   1
   3  -4  -7 37.9299 3.74540   3
   3  -4  -7 23.7404 3.54830   1
   2  -4  -7 21.0963 2.58980   1
  -1   4   7 227.433 11.0714   2
   0   4   7 15.4539 3.83290   2
   1   4   7 7.43413 3.22238   2
   2   4   7 7.17478 3.43714   2
   3   4   7 15.7530 5.07711   2
   8  -5  -7 -1.9141 1.97882   3
  -8   5   7 -0.8899 3.24373   1
   7  -5  -7 -0.0199 1.91239   3
  -7   5   7 4.68920 3.10289   1
   6  -5  -7 57.0070 6.88788   3
  -6   5   7 61.9640 6.40422   1
   5  -5  -7 5.33348 2.38181   3
  -5   5   7 12.4235 2.69641   1
   4  -5  -7 9.29660 2.32382   3
   3  -5  -7 24.0912 3.01565   3
   0   5   7 388.001 16.9315   2
   1   5   7 2.68155 2.71150   2
   2   5   7 0.41973 2.50289   2
   3   5   7 28.4082 7.08034   2
   7  -6  -7 2.18455 2.13010   3
  -7   6   7 0.51199 2.54551   1
   6  -6  -7 -2.1437 1.37633   3
  -6   6   7 3.51744 2.26227   1
   5  -6  -7 80.9748 7.70301   3
   4  -6  -7 228.395 10.0460   3
   1   6   7 46.7461 7.50023   2
   2   6   7 -0.7209 2.87891   2
   7  -7  -7 21.9315 5.49412   3
  -7   7   7 27.3442 4.71741   1
   6  -7  -7 3.43425 2.40448   3
  -6   7   7 7.18422 2.31643   1
   5  -7  -7 2.96351 1.81750   3
   4  -7  -7 5.40875 2.08600   3
   6  -8  -7 10.3053 3.93138   3
   5  -8  -7 1.76583 2.32653   3
   4  -8  -7 34.1594 5.00599   3
   5  -9  -7 2.85106 2.97598   3
   4  -9  -7 4.31042 2.52414   3
   1  11  -8 0.96634 4.13940   1
  -1 -11   8 -3.9212 3.02839   3
   0  11  -8 5.83876 5.01732   1
   0 -11   8 0.47172 3.00646   3
  -1  11  -8 88.7715 13.1662   1
   1 -11   8 77.4657 13.2952   1
   1 -11   8 71.4301 10.2938   3
  -2  11  -8 16.1362 6.57704   1
   2 -11   8 17.3675 6.50823   3
   2 -11   8 19.0257 8.01175   1
   2  10  -8 -2.1736 3.29675   1
  -2 -10   8 2.61928 3.69305   3
   1  10  -8 74.9167 11.0434   1
  -1 -10   8 69.2640 10.0166   3
  -1 -10   8 52.2979 10.7391   1
   0  10  -8 2.02397 3.90716   1
   0 -10   8 -2.0344 2.69011   3
   0 -10   8 -1.0019 4.12289   1
  -1  10  -8 50.6477 9.22871   1
   1 -10   8 58.0253 10.9596   1
   1 -10   8 62.4966 9.49071   3
  -2  10  -8 67.8733 11.6174   1
   2 -10   8 62.9913 11.3740   1
   2 -10   8 55.6730 9.32570   3
  -3  10  -8 -1.2968 4.03578   1
   3 -10   8 1.69719 3.40467   3
   3 -10   8 3.20726 5.25431   1
  -4  10  -8 7.86599 5.34693   1
   4 -10   8 11.8043 4.83864   3
   4 -10   8 14.9493 7.00197   1
   4   9  -8 2.09651 3.06829   1
   3   9  -8 -4.1698 2.10753   1
  -3  -9   8 6.63819 4.75903   1
  -3  -9   8 -2.1086 2.82801   3
   2   9  -8 21.7036 5.84299   1
  -2  -9   8 44.3384 8.66347   1
  -2  -9   8 35.0079 7.15463   3
   1   9  -8 -1.2420 3.05459   1
  -1  -9   8 5.35953 4.10583   3
  -1  -9   8 1.74169 3.79420   1
   0   9  -8 8.32407 3.81725   3
   0   9  -8 8.93672 4.63346   1
   0  -9   8 13.9087 5.59935   1
   0  -9   8 3.79892 3.28950   3
  -1   9  -8 2.51213 3.48770   1
   1  -9   8 7.09111 4.03775   3
   1  -9   8 1.52176 3.73116   1
  -2   9  -8 273.519 17.7296   1
   2  -9   8 257.668 22.7750   1
   2  -9   8 237.962 15.3257   3
  -3   9  -8 4.73932 3.98391   1
   3  -9   8 7.08019 5.30435   1
   3  -9   8 3.99489 3.69215   3
  -4   9  -8 -4.2366 2.82585   1
   4  -9   8 6.83573 4.53965   3
   4  -9   8 4.53299 4.80233   1
   4   8  -8 20.9108 5.72833   1
  -4  -8   8 32.2998 7.61923   1
   3   8  -8 2.87477 2.94753   1
  -3  -8   8 -1.5968 2.50468   3
  -3  -8   8 1.54337 3.87601   1
   2   8  -8 0.08741 2.38292   3
   2   8  -8 1.95430 2.72155   1
  -2  -8   8 -1.8938 2.04399   3
  -2  -8   8 1.74318 3.06550   1
   1   8  -8 11.0661 4.51001   1
   1   8  -8 13.5158 4.25531   3
  -1  -8   8 21.3394 6.32564   1
  -1  -8   8 8.60545 3.85549   3
   0   8  -8 28.3298 6.36017   1
   0   8  -8 17.9426 4.72254   3
   0  -8   8 33.7754 7.90847   1
   0  -8   8 24.7908 5.71697   3
  -1   8  -8 98.5597 11.8419   1
   1  -8   8 70.4366 10.7596   1
   1  -8   8 98.0481 10.7691   3
  -2   8  -8 64.1789 9.94743   1
   2  -8   8 73.6078 11.3886   1
   2  -8   8 85.5367 10.2095   3
  -3   8  -8 0.86500 3.25948   1
   3  -8   8 3.13186 4.33504   1
   3  -8   8 -1.2844 2.31755   3
  -4   8  -8 23.2177 7.25481   1
   4  -8   8 19.6536 6.51696   1
   4  -8   8 32.5052 7.32572   3
  -5   8  -8 -5.2440 3.57947   1
   5  -8   8 -1.8362 4.39109   1
   5   7  -8 22.5405 5.91882   1
  -5  -7   8 48.1101 9.10286   1
   4   7  -8 5.60234 3.65262   1
  -4  -7   8 0.40638 3.35714   1
   3   7  -8 4.27484 3.08862   3
   3   7  -8 -0.9240 2.13991   1
  -3  -7   8 0.17058 3.20310   1
  -3  -7   8 2.41480 2.96659   3
   2   7  -8 2.20022 2.25933   1
   2   7  -8 0.15935 2.08780   3
  -2  -7   8 1.72804 2.50636   3
  -2  -7   8 -1.3709 2.59543   1
   1   7  -8 49.1665 7.18237   3
   1   7  -8 56.6384 8.43866   1
  -1  -7   8 58.0530 7.98312   3
  -1  -7   8 69.4238 10.1003   1
   0   7  -8 8.30420 3.83180   1
   0  -7   8 9.16281 4.29555   1
   0  -7   8 9.77963 3.74645   3
  -1   7  -8 31.9057 6.38102   1
   1  -7   8 20.7434 5.03657   3
   1  -7   8 29.9928 7.09086   1
  -2   7  -8 207.753 14.2505   1
   2  -7   8 194.493 12.3976   3
   2  -7   8 221.978 18.8961   1
  -3   7  -8 21.6725 6.49423   1
   3  -7   8 19.2505 4.93854   3
   3  -7   8 16.5834 6.30922   1
  -4   7  -8 14.1100 5.47319   1
   4  -7   8 5.38412 4.23521   1
  -5   7  -8 7.17926 4.87265   1
   5  -7   8 13.1256 5.61996   1
   6   6  -8 11.2022 4.77074   1
  -6  -6   8 7.61860 4.62539   1
   5   6  -8 0.86022 2.59760   1
  -5  -6   8 0.19234 3.24053   1
   4   6  -8 60.3701 7.31188   3
   4   6  -8 40.5859 7.46715   1
  -4  -6   8 45.9698 7.94484   1
   3   6  -8 34.9728 6.82564   1
   3   6  -8 22.8929 4.47066   3
  -3  -6   8 25.6631 6.11772   1
   2   6  -8 129.824 8.81940   3
   2   6  -8 137.993 12.5444   1
  -2  -6   8 119.918 12.1765   1
  -2  -6   8 128.997 11.6645   3
   1   6  -8 10.9813 3.96447   1
   1   6  -8 13.9209 3.92058   3
  -1  -6   8 10.2756 3.59665   3
  -1  -6   8 10.2582 4.06261   1
   0   6  -8 -0.7002 2.08424   1
   0  -6   8 -2.5179 1.86568   1
   0  -6   8 -0.5762 1.80536   3
  -1   6  -8 37.5530 6.90780   1
   1  -6   8 47.3369 8.20537   1
   1  -6   8 44.8858 6.87904   3
  -2   6  -8 5.84640 3.37688   1
   2  -6   8 12.9015 4.67504   1
   2  -6   8 5.19480 3.02943   3
  -3   6  -8 21.0749 5.91820   1
   3  -6   8 19.6713 5.96190   1
   3  -6   8 16.2936 4.50126   3
  -4   6  -8 8.78814 4.79434   1
   4  -6   8 7.63578 4.00460   1
  -5   6  -8 -1.5189 3.24059   1
   5  -6   8 0.00675 3.61413   1
   6   5  -8 -2.3447 2.03699   1
  -6  -5   8 -0.8251 3.39569   1
   5   5  -8 9.14205 3.98801   1
   5   5  -8 1.85361 2.87562   3
  -5  -5   8 3.81181 3.73284   1
   4   5  -8 7.82974 3.32882   3
   4   5  -8 8.90088 3.69046   1
  -4  -5   8 7.04055 3.89767   1
   3   5  -8 11.7542 3.68508   3
   3   5  -8 8.65092 3.51533   1
  -3  -5   8 10.7232 3.78261   1
   2   5  -8 32.4323 5.85666   1
   2   5  -8 26.7310 4.84211   3
  -2  -5   8 37.0516 6.25641   3
  -2  -5   8 36.9298 6.49505   1
   1   5  -8 114.813 8.15169   3
   1   5  -8 126.104 11.0940   1
  -1  -5   8 122.318 8.59120   3
  -1  -5   8 116.177 11.7239   1
   0   5  -8 2.81685 2.77415   1
   0  -5   8 4.36351 2.99452   1
   0  -5   8 2.54220 2.09043   3
  -1   5  -8 81.0401 9.63654   1
   1  -5   8 73.0846 9.66359   1
   1  -5   8 69.0418 8.00550   3
  -2   5  -8 100.251 11.3658   1
   2  -5   8 84.7145 8.94926   3
   2  -5   8 70.7502 9.74661   1
  -3   5  -8 8.20376 4.07237   1
   3  -5   8 3.96221 3.40502   1
   3  -5   8 8.38037 3.55186   3
  -4   5  -8 2.46706 3.39610   1
   4  -5   8 7.31815 4.07305   1
   5  -5   8 12.7395 4.97147   1
   7   4  -8 25.7244 6.85309   1
  -7  -4   8 29.2024 7.17802   1
   6   4  -8 2.98059 2.91552   1
   6   4  -8 0.63816 2.49652   3
  -6  -4   8 4.51534 3.91351   1
   5   4  -8 1.66573 2.07660   1
   5   4  -8 3.07094 2.48963   3
  -5  -4   8 -4.3555 1.88177   1
   4   4  -8 0.07838 1.66546   3
   4   4  -8 3.64759 2.50350   1
  -4  -4   8 4.03286 3.04098   1
   3   4  -8 0.74272 2.17997   3
   3   4  -8 5.96773 3.02608   1
  -3  -4   8 4.62419 2.93967   1
   2   4  -8 45.1265 6.42218   1
   2   4  -8 40.5164 5.57945   3
  -2  -4   8 36.7619 5.72177   3
  -2  -4   8 50.5112 7.13601   1
   1   4  -8 1.88001 1.69190   1
  -1  -4   8 -0.1755 1.53058   1
  -1  -4   8 1.87594 1.83513   3
   0   4  -8 57.7584 7.43876   1
   0  -4   8 52.6457 7.39437   1
   0  -4   8 48.6320 6.17597   1
   0  -4   8 59.7248 6.71474   3
  -1   4  -8 268.162 13.9692   1
   1  -4   8 275.110 14.6772   1
   1  -4   8 237.980 12.1880   1
   1  -4   8 242.069 11.7928   3
  -2   4  -8 4.39740 3.22083   1
   2  -4   8 5.77586 2.73403   3
   2  -4   8 14.0559 4.54405   1
  -3   4  -8 7.33151 3.74432   1
   3  -4   8 7.95130 3.82299   1
  -4   4  -8 1.48791 3.08942   1
   4  -4   8 2.40970 2.83890   1
   5  -4   8 3.49697 3.49387   1
   7   3  -8 0.07232 2.76281   3
   7   3  -8 0.82112 2.98823   1
  -7  -3   8 0.37541 3.86713   1
   6   3  -8 0.64642 2.61560   1
   6   3  -8 -2.0089 2.14999   3
  -6  -3   8 0.70392 3.24242   1
   5   3  -8 18.6266 4.90302   1
   5   3  -8 23.8357 4.50284   3
  -5  -3   8 39.1407 6.76637   1
   4   3  -8 4.24728 2.56367   3
   4   3  -8 2.98674 2.32731   1
  -4  -3   8 0.97237 2.51232   1
   3   3  -8 74.0902 7.60882   3
   3   3  -8 92.7641 9.11101   1
  -3  -3   8 84.4867 9.01135   1
   2   3  -8 1.79199 1.54976   1
   2   3  -8 0.32786 1.73104   3
  -2  -3   8 1.07189 0.87538   2
  -2  -3   8 1.58429 1.83411   1
   1   3  -8 9.84784 3.32789   1
  -1  -3   8 9.12434 2.80858   1
  -1  -3   8 11.2840 2.95296   3
  -1  -3   8 8.15786 3.12340   1
   0   3  -8 154.707 9.47355   1
   0  -3   8 142.889 9.57195   1
   0  -3   8 128.669 7.94185   1
   0  -3   8 137.924 7.91645   3
  -1   3  -8 12.4392 3.70873   1
   1  -3   8 6.92701 2.58238   3
   1  -3   8 10.4863 2.92268   1
   1  -3   8 12.5193 3.69924   1
  -2   3  -8 68.8042 8.42073   1
   2  -3   8 52.6242 6.31602   3
   2  -3   8 48.4777 7.05215   1
   3  -3   8 7.95006 3.51192   1
   4  -3   8 90.0145 9.86527   1
   5  -3   8 1.98025 3.65243   2
   5  -3   8 8.17630 3.55226   1
   7   2  -8 1.18983 2.51900   1
   7   2  -8 -2.5780 2.17073   3
  -7  -2   8 0.17735 2.89068   1
   6   2  -8 10.4874 4.28728   1
   6   2  -8 8.10719 3.66686   3
  -6  -2   8 8.29469 3.95154   1
   5   2  -8 7.13505 2.84710   3
   5   2  -8 6.52491 3.22875   1
  -5  -2   8 7.69198 3.42060   1
   4   2  -8 18.5534 4.34441   1
   4   2  -8 25.8144 4.32492   3
  -4  -2   8 22.2354 4.59572   1
   3   2  -8 4.39472 2.22765   1
   3   2  -8 5.44696 2.23841   3
  -3  -2   8 2.98971 2.08790   1
  -3  -2   8 4.14930 2.13155   1
   2   2  -8 408.084 14.7612   3
   2   2  -8 375.396 15.3204   1
  -2  -2   8 386.378 15.7511   1
  -2  -2   8 366.462 11.3730   2
   1   2  -8 62.3569 6.92488   1
  -1  -2   8 54.9614 6.65657   1
  -1  -2   8 59.6847 6.10816   3
  -1  -2   8 62.9889 5.67857   2
   0   2  -8 153.314 9.05587   1
   0  -2   8 124.545 6.99449   3
   0  -2   8 142.113 7.67139   1
   0  -2   8 137.191 8.14417   2
   0  -2   8 158.155 9.35494   1
  -1   2  -8 44.8188 6.25747   1
   1  -2   8 51.8236 6.37345   1
   1  -2   8 46.5711 5.03957   3
   1  -2   8 57.0296 5.87945   1
  -2   2  -8 -0.9750 2.10555   1
   2  -2   8 4.33458 2.31976   1
   2  -2   8 2.93938 2.06367   1
   2  -2   8 4.53626 2.73384   2
   3  -2   8 12.7844 3.53924   1
   3  -2   8 7.76875 3.74966   2
   4  -2   8 3.21229 3.56527   2
   4  -2   8 1.71141 2.09376   1
   5  -2   8 10.0669 5.31207   2
   5  -2   8 3.67605 2.72666   1
   8   1  -8 -3.0106 2.77098   3
  -8  -1   8 2.15304 3.99617   1
   7   1  -8 3.19798 2.89459   3
  -7  -1   8 -1.6185 2.49274   1
   6   1  -8 13.5873 3.95820   3
  -6  -1   8 10.8930 4.30360   1
   5   1  -8 59.5396 6.40285   3
  -5  -1   8 81.4609 8.92168   1
   4   1  -8 54.4938 6.12445   3
   4   1  -8 56.9122 7.17417   1
  -4  -1   8 60.0896 7.19976   1
  -4  -1   8 57.8484 6.69918   1
   3   1  -8 88.5944 6.11375   3
   3   1  -8 89.4038 8.40167   1
  -3  -1   8 104.102 8.75249   1
  -3  -1   8 92.1516 7.61326   1
   2   1  -8 -0.2265 1.31620   1
   2   1  -8 4.73541 1.97761   3
  -2  -1   8 2.17239 1.24954   1
  -2  -1   8 4.22985 1.33052   2
  -2  -1   8 2.13434 1.79732   1
   1   1  -8 460.487 16.4581   3
   1   1  -8 499.907 17.2278   1
  -1  -1   8 472.608 17.1336   1
  -1  -1   8 474.309 15.8012   2
   0   1  -8 63.1417 6.63680   1
   0   1  -8 64.9665 6.56097   3
   0  -1   8 72.3116 6.82652   1
   0  -1   8 68.5833 6.91924   2
  -1   1  -8 8.81544 2.95695   1
  -1   1  -8 4.81223 2.25566   3
   1  -1   8 9.63422 2.30254   1
   1  -1   8 16.9911 3.39115   1
   1  -1   8 11.4914 3.26901   2
  -2   1  -8 82.1177 8.76681   1
   2  -1   8 86.8769 6.00141   1
   2  -1   8 89.7752 5.78558   1
   2  -1   8 90.2849 9.54781   2
   3  -1   8 0.29263 1.57614   1
   3  -1   8 1.98656 2.69985   2
   4  -1   8 61.2535 6.49529   1
   4  -1   8 65.7534 9.83647   2
   5  -1   8 10.4853 3.08045   1
   5  -1   8 10.3071 4.93683   2
   8   0  -8 -2.1760 2.75810   3
  -8   0   8 0.23945 3.24152   1
   7   0  -8 73.0934 9.23120   3
  -7   0   8 70.6109 8.77164   1
   6   0  -8 20.3582 4.54349   3
  -6   0   8 20.4414 4.84022   1
   5   0  -8 224.613 10.7950   3
  -5   0   8 208.419 11.4241   1
   4   0  -8 206.854 9.67829   3
  -4   0   8 203.452 10.4804   1
  -4   0   8 210.579 10.6828   1
   3   0  -8 122.146 6.77453   3
   3   0  -8 106.739 7.25710   1
  -3   0   8 114.371 6.79251   1
  -3   0   8 107.453 7.04349   1
   2   0  -8 868.815 25.6075   1
   2   0  -8 835.060 25.1778   3
   2   0  -8 838.427 24.4442   3
  -2   0   8 861.063 23.0494   2
  -2   0   8 860.592 25.2734   1
   1   0  -8 159.133 8.06940   1
   1   0  -8 142.577 7.45882   3
  -1   0   8 152.663 7.71370   2
  -1   0   8 154.563 6.15066   1
  -1   0   8 139.783 7.16549   1
   0   0  -8 58.1519 6.07731   1
   0   0  -8 63.3556 6.08814   3
   0   0   8 75.2536 7.43477   2
   0   0   8 58.4604 3.91283   1
  -1   0  -8 7.91937 3.12491   1
  -1   0  -8 8.87784 4.14979   3
   1   0   8 8.81690 3.22063   2
   1   0   8 10.1605 1.87545   1
   2   0   8 3.82359 1.39539   1
   2   0   8 5.64158 2.80592   2
   2   0   8 2.54735 1.28352   1
   3   0   8 13.0494 4.55799   2
   3   0   8 12.3552 2.25154   1
   4   0   8 10.3416 2.37798   1
   4   0   8 22.3310 6.52764   2
   5   0   8 3.64211 4.08194   2
   8  -1  -8 2.66142 2.95386   3
  -8   1   8 4.70630 3.87748   1
   7  -1  -8 2.99028 2.85931   3
  -7   1   8 1.48001 2.94378   1
   6  -1  -8 0.00693 1.75755   3
  -6   1   8 -1.2333 2.30433   1
   5  -1  -8 10.0755 3.12601   3
  -5   1   8 8.35976 3.01525   1
   4  -1  -8 184.999 8.82211   3
   4  -1  -8 176.646 7.19795   2
  -4   1   8 180.179 9.69045   1
  -4   1   8 178.573 9.40678   1
   3  -1  -8 15.0623 2.82871   3
   3  -1  -8 14.5200 3.42756   3
  -3   1   8 14.8833 3.05467   1
  -3   1   8 13.0384 2.70636   1
   2  -1  -8 108.235 6.36386   3
   2  -1  -8 115.933 6.25548   3
   2  -1  -8 118.904 6.85809   1
  -2   1   8 126.714 6.31717   2
  -2   1   8 117.904 5.38646   1
  -2   1   8 119.553 5.98961   1
   1  -1  -8 475.126 15.6142   1
   1  -1  -8 476.150 15.1618   3
  -1   1   8 461.240 16.1632   2
   0  -1  -8 121.649 6.98567   1
   0  -1  -8 116.350 6.30064   3
   0   1   8 113.147 7.64964   2
   1   1   8 6.63606 2.81627   2
   2   1   8 105.747 11.1245   2
   3   1   8 -0.9864 2.37265   2
   4   1   8 6.69490 4.05309   2
   8  -2  -8 -1.4696 2.65140   3
  -8   2   8 -2.3458 3.28061   1
   7  -2  -8 4.11677 3.05300   1
   7  -2  -8 -2.7267 1.79433   3
  -7   2   8 4.59483 3.13996   1
   6  -2  -8 3.74211 2.99974   1
   6  -2  -8 7.68830 3.13163   3
  -6   2   8 7.49733 3.21150   1
   5  -2  -8 470.694 17.0515   3
   5  -2  -8 469.382 17.9965   1
  -5   2   8 451.021 16.9498   1
   4  -2  -8 102.197 6.21935   3
  -4   2   8 94.4617 6.68291   1
  -4   2   8 116.557 6.92285   1
   3  -2  -8 8.34708 2.23261   3
  -3   2   8 11.3620 2.32394   1
  -3   2   8 7.45053 2.12163   1
   2  -2  -8 117.191 6.29716   3
   2  -2  -8 111.764 6.37577   1
   2  -2  -8 114.664 5.92713   3
  -2   2   8 121.168 6.74663   2
   1  -2  -8 124.626 5.97995   3
   1  -2  -8 120.272 6.20621   1
  -1   2   8 121.452 7.45068   2
   0   2   8 2.19787 2.13024   2
   1   2   8 54.9599 7.45550   2
   2   2   8 1.72407 2.39116   2
   3   2   8 9.72293 4.27487   2
   4   2   8 25.9360 6.85727   2
   8  -3  -8 64.4059 9.42803   3
  -8   3   8 72.1871 9.68416   1
   7  -3  -8 13.0510 4.39631   3
  -7   3   8 27.0522 5.29703   1
   6  -3  -8 69.1608 7.69853   3
  -6   3   8 85.1982 8.26626   1
   5  -3  -8 0.31353 1.58302   3
  -5   3   8 4.12411 2.21656   1
   4  -3  -8 39.2326 4.63353   3
   4  -3  -8 46.7345 6.22294   1
  -4   3   8 46.6639 5.16417   1
  -4   3   8 47.3274 4.84443   1
   3  -3  -8 48.2614 4.61685   3
   2  -3  -8 0.14769 1.35851   3
  -1   3   8 509.135 18.3061   2
   0   3   8 105.912 9.71079   2
   1   3   8 0.08426 1.97685   2
   2   3   8 33.0329 6.62000   2
   3   3   8 -0.1477 2.88250   2
   8  -4  -8 11.5931 4.25252   3
  -8   4   8 10.3471 4.47474   1
   7  -4  -8 58.9611 8.13454   3
  -7   4   8 67.7082 7.96969   1
   6  -4  -8 22.9655 4.53499   3
  -6   4   8 19.6597 4.32765   1
   5  -4  -8 190.134 9.72575   3
  -5   4   8 197.466 9.08146   1
   4  -4  -8 0.77823 1.50660   3
   3  -4  -8 1.91701 1.41951   3
  -1   4   8 -1.5409 1.67416   2
   0   4   8 170.578 10.6553   2
   1   4   8 18.6305 5.04654   2
   2   4   8 6.65159 3.82285   2
   3   4   8 9.83663 4.50720   2
   7  -5  -8 1.78756 2.84505   3
  -7   5   8 -0.1067 2.53969   1
   6  -5  -8 0.24064 1.75803   3
  -6   5   8 1.14841 2.16260   1
   5  -5  -8 13.0307 3.26657   3
  -5   5   8 11.4752 2.43270   1
   4  -5  -8 8.23262 2.57167   3
   3  -5  -8 161.869 7.02870   3
   0   5   8 1.80272 2.69305   2
   1   5   8 0.97532 2.64284   2
   2   5   8 10.4514 4.93698   2
   7  -6  -8 2.84406 2.63643   3
  -7   6   8 9.33359 3.44893   1
   6  -6  -8 5.59122 2.63882   3
  -6   6   8 9.36031 2.82991   1
   5  -6  -8 -0.0698 1.67688   3
   4  -6  -8 4.54291 2.36096   3
   1   6   8 1.61721 3.30868   2
   6  -7  -8 14.8552 4.35081   3
   5  -7  -8 1.49688 1.97223   3
   4  -7  -8 -2.2163 1.38415   3
   5  -8  -8 7.29621 2.68550   3
   4  -8  -8 10.2831 2.81266   3
   0  11  -9 -0.6163 4.83327   1
  -1  11  -9 69.8809 11.4447   1
   1 -11   9 37.1280 9.78646   1
   2  10  -9 36.4713 8.46679   1
  -2 -10   9 10.8988 5.09500   3
  -2 -10   9 18.1696 7.22375   1
   1  10  -9 -0.1291 4.30217   1
  -1 -10   9 -1.3121 2.97634   3
  -1 -10   9 -1.5216 4.07056   1
   0  10  -9 -1.0423 3.68278   1
   0 -10   9 5.64017 5.19546   1
   0 -10   9 -1.7903 2.90469   3
  -1  10  -9 80.2465 12.6094   1
   1 -10   9 77.1869 13.2149   1
   1 -10   9 77.4380 10.4939   3
  -2  10  -9 -5.7837 3.10850   1
   2 -10   9 0.18836 3.38162   3
   2 -10   9 -0.9410 4.73387   1
  -3  10  -9 27.6028 8.33669   1
   3 -10   9 15.9750 5.94430   3
   3 -10   9 34.1323 9.66357   1
   3   9  -9 -3.0903 2.32430   1
  -3  -9   9 7.72066 4.39190   3
  -3  -9   9 0.77504 4.12521   1
   2   9  -9 5.64158 4.10862   1
  -2  -9   9 9.02813 4.27512   3
  -2  -9   9 10.1825 5.72404   1
   1   9  -9 3.02411 3.39360   1
  -1  -9   9 7.48373 4.52143   1
  -1  -9   9 7.95756 4.52447   3
   0   9  -9 26.7166 7.15622   1
   0   9  -9 18.9820 5.37623   3
   0  -9   9 20.6827 5.58954   3
   0  -9   9 18.7646 6.48330   1
  -1   9  -9 17.7106 6.20211   1
   1  -9   9 27.8442 6.59841   3
   1  -9   9 14.8260 6.21642   1
  -2   9  -9 0.65367 3.62688   1
   2  -9   9 7.11016 3.76276   3
   2  -9   9 7.24579 4.73964   1
  -3   9  -9 8.04946 4.80923   1
   3  -9   9 0.85047 3.33019   3
   3  -9   9 1.24011 4.84511   1
  -4   9  -9 14.7508 6.31201   1
   4  -9   9 9.84044 6.66301   1
   4   8  -9 29.3912 7.04646   1
  -4  -8   9 39.8009 8.95593   1
   3   8  -9 7.38693 4.34598   1
  -3  -8   9 5.74708 4.17849   1
  -3  -8   9 6.22901 3.95690   3
   2   8  -9 -2.9850 2.11963   1
   2   8  -9 1.93407 2.43705   3
  -2  -8   9 1.87003 3.02160   3
  -2  -8   9 1.85533 3.21396   1
   1   8  -9 2.60356 3.10546   3
   1   8  -9 -1.3301 2.41879   1
  -1  -8   9 0.67488 3.47154   1
  -1  -8   9 -1.8130 2.53565   3
   0   8  -9 26.7244 6.01765   3
   0   8  -9 22.0294 6.08098   1
   0  -8   9 27.1305 7.60880   1
   0  -8   9 25.2861 6.36783   3
  -1   8  -9 1.01541 3.10601   1
   1  -8   9 1.28549 3.62489   1
   1  -8   9 -0.5705 2.78484   3
  -2   8  -9 -2.6630 2.54213   1
   2  -8   9 3.65445 3.46166   3
   2  -8   9 -0.5173 3.39848   1
  -3   8  -9 -2.2501 2.76771   1
   3  -8   9 3.14171 2.99996   3
   3  -8   9 0.25525 3.57110   1
  -4   8  -9 1.89132 3.61008   1
   4  -8   9 -0.7441 3.80495   1
   5   7  -9 15.2953 5.57308   1
  -5  -7   9 21.1225 6.86140   1
   4   7  -9 -0.7884 2.38377   1
  -4  -7   9 4.46979 4.30699   1
   3   7  -9 0.29123 2.53150   1
   3   7  -9 -1.8447 2.34956   3
  -3  -7   9 1.19808 3.38828   1
   2   7  -9 29.1820 5.70768   3
   2   7  -9 25.0931 5.70166   1
  -2  -7   9 39.2933 8.02183   1
  -2  -7   9 42.7464 7.32965   3
   1   7  -9 39.9294 7.37785   1
   1   7  -9 46.3214 6.94633   3
  -1  -7   9 49.3105 7.66458   3
  -1  -7   9 73.9168 10.9251   1
   0   7  -9 78.8348 10.4522   1
   0  -7   9 97.1731 10.1275   3
   0  -7   9 128.977 14.7525   1
  -1   7  -9 42.8188 7.76844   1
   1  -7   9 43.4066 8.78474   1
   1  -7   9 40.7539 6.97161   3
  -2   7  -9 14.0871 5.29020   1
   2  -7   9 14.5846 5.51320   1
   2  -7   9 6.72083 3.42285   3
  -3   7  -9 0.27079 3.49938   1
   3  -7   9 1.07503 3.67525   1
  -4   7  -9 0.68334 3.68182   1
   4  -7   9 1.98407 4.87193   1
  -5   7  -9 3.67684 5.88365   1
   6   6  -9 11.1999 4.76414   1
  -6  -6   9 24.3484 7.11224   1
   5   6  -9 7.12724 3.90780   1
   5   6  -9 9.29972 4.27642   3
  -5  -6   9 14.9431 5.79494   1
   4   6  -9 13.5365 4.19297   3
   4   6  -9 9.41565 4.02555   1
  -4  -6   9 15.0516 5.46740   1
   3   6  -9 15.2583 4.62646   1
   3   6  -9 12.3012 3.90687   3
  -3  -6   9 15.0969 5.24443   1
   2   6  -9 13.0064 4.45714   1
   2   6  -9 16.7064 4.00638   3
  -2  -6   9 11.8152 4.73917   1
  -2  -6   9 6.38729 3.36833   3
   1   6  -9 1.16845 1.96292   3
   1   6  -9 0.36266 2.14568   1
  -1  -6   9 1.71744 2.77867   1
  -1  -6   9 0.44666 2.13372   3
   0   6  -9 10.0954 4.06014   1
   0  -6   9 8.91976 3.57526   3
   0  -6   9 6.07658 3.81422   1
  -1   6  -9 30.5629 6.97127   1
   1  -6   9 20.5314 4.98883   3
   1  -6   9 17.1498 5.60504   1
  -2   6  -9 -1.0820 2.18205   1
   2  -6   9 -2.1283 2.72850   1
   2  -6   9 3.92359 2.98172   3
  -3   6  -9 4.80709 4.47639   1
   3  -6   9 3.47218 3.68693   1
  -4   6  -9 -0.0634 3.31113   1
   4  -6   9 -0.1799 3.55749   1
   5  -6   9 3.17621 4.07493   1
   6   5  -9 2.48694 3.46071   1
  -6  -5   9 -1.3412 3.24003   1
   5   5  -9 5.22829 3.54128   1
   5   5  -9 0.97269 2.69974   3
  -5  -5   9 4.39755 3.99180   1
   4   5  -9 1.09448 2.53295   1
   4   5  -9 6.66712 3.12270   3
  -4  -5   9 0.45293 2.82896   1
   3   5  -9 -0.5562 2.00066   1
   3   5  -9 4.85013 3.07040   3
  -3  -5   9 7.00838 4.03812   1
   2   5  -9 20.8000 4.54978   3
   2   5  -9 21.8880 5.23834   1
  -2  -5   9 21.1007 4.84898   3
  -2  -5   9 25.7784 5.81750   1
   1   5  -9 146.905 12.8688   1
   1   5  -9 132.222 9.23233   3
  -1  -5   9 129.817 9.14755   3
  -1  -5   9 140.009 13.1203   1
   0   5  -9 48.8332 7.48535   1
   0  -5   9 53.5164 6.87109   3
   0  -5   9 54.3049 8.51380   1
  -1   5  -9 10.3256 4.38521   1
   1  -5   9 4.49633 2.64181   3
   1  -5   9 12.3219 4.91398   1
  -2   5  -9 27.5151 6.48988   1
   2  -5   9 18.6868 5.57426   1
   2  -5   9 28.1680 6.82497   3
  -3   5  -9 54.8387 9.16295   1
   3  -5   9 62.4313 9.62679   1
   4  -5   9 0.85639 3.37566   1
   5  -5   9 -0.4899 2.63014   1
   7   4  -9 8.73570 4.67647   1
  -7  -4   9 14.6431 5.92573   1
   6   4  -9 -0.0516 2.62211   1
   6   4  -9 2.30941 2.65627   3
  -6  -4   9 6.26402 4.10796   1
   5   4  -9 33.1898 6.62908   1
   5   4  -9 33.8294 5.66367   3
  -5  -4   9 33.7928 7.15212   1
   4   4  -9 25.3703 5.72121   1
   4   4  -9 14.5914 4.02001   3
  -4  -4   9 29.0455 6.15963   1
   3   4  -9 94.7630 10.2894   1
   3   4  -9 62.9877 6.88548   3
  -3  -4   9 68.7100 8.77216   1
   2   4  -9 3.10436 2.32515   1
   2   4  -9 0.57625 1.85273   3
  -2  -4   9 -0.7583 1.78433   3
  -2  -4   9 1.38625 2.33391   1
   1   4  -9 118.362 11.3013   1
  -1  -4   9 138.507 12.7618   1
  -1  -4   9 119.473 10.3082   3
   0   4  -9 108.532 10.8557   1
   0  -4   9 70.9845 7.76905   1
   0  -4   9 94.8043 8.74814   3
   0  -4   9 86.1206 9.84846   1
  -1   4  -9 43.8365 6.89756   1
   1  -4   9 52.6232 6.58617   3
   1  -4   9 43.4186 7.26577   1
  -2   4  -9 -4.2220 2.30368   1
   2  -4   9 -0.7403 2.35980   1
  -3   4  -9 4.16140 3.26962   1
   3  -4   9 -0.4483 2.55528   1
   4  -4   9 6.44139 3.86735   1
   5  -4   9 0.23980 2.72479   1
   7   3  -9 5.65392 4.09735   1
   7   3  -9 6.35086 3.95534   3
  -7  -3   9 9.07615 5.02305   1
   6   3  -9 5.83509 3.32800   3
   6   3  -9 9.91989 4.25685   1
  -6  -3   9 5.07474 3.94151   1
   5   3  -9 15.0227 4.50121   1
   5   3  -9 11.3107 3.89198   3
  -5  -3   9 9.35311 4.31350   1
   4   3  -9 7.76496 3.30118   1
   4   3  -9 6.83568 3.09395   3
  -4  -3   9 7.53246 3.74013   1
   3   3  -9 42.1966 6.58131   1
   3   3  -9 43.5015 6.11094   3
  -3  -3   9 32.0858 5.88792   1
   2   3  -9 42.1613 5.65338   3
   2   3  -9 38.9725 6.28704   1
  -2  -3   9 44.3135 6.69409   1
  -2  -3   9 46.7939 4.25604   2
   1   3  -9 23.4457 4.92005   1
  -1  -3   9 17.1978 3.43863   2
  -1  -3   9 24.0084 4.31894   3
  -1  -3   9 20.9769 5.02938   1
   0   3  -9 233.167 12.7044   1
   0  -3   9 227.157 10.7890   3
   0  -3   9 232.982 13.0173   1
   0  -3   9 207.704 10.7625   1
  -1   3  -9 1.79547 2.20802   1
   1  -3   9 1.11554 1.88587   1
  -2   3  -9 -0.3099 2.64733   1
   2  -3   9 -0.3693 2.21928   1
   3  -3   9 46.6008 7.24845   1
   4  -3   9 5.44960 3.04325   1
   4  -3   9 4.52012 3.87598   2
   5  -3   9 5.13582 4.64690   2
   5  -3   9 8.14800 3.88838   1
   7   2  -9 -0.5548 2.63061   3
   7   2  -9 -3.7208 2.57176   1
  -7  -2   9 1.12696 3.79346   1
   6   2  -9 25.9457 6.11374   1
   6   2  -9 20.0963 4.67516   3
  -6  -2   9 25.5372 6.18920   1
   5   2  -9 37.0636 6.72416   1
   5   2  -9 29.1913 4.93172   3
  -5  -2   9 27.7751 5.69712   1
   4   2  -9 -0.6021 1.78968   3
   4   2  -9 -1.5506 1.43861   1
  -4  -2   9 0.13141 2.14855   1
   3   2  -9 36.8359 5.75931   1
   3   2  -9 24.5279 4.49569   3
  -3  -2   9 42.6805 6.63880   1
  -3  -2   9 31.3619 4.81070   1
   2   2  -9 304.331 14.3121   1
   2   2  -9 336.815 13.8061   3
  -2  -2   9 321.861 10.9167   2
  -2  -2   9 350.300 15.2653   1
   1   2  -9 165.584 10.1859   1
  -1  -2   9 190.762 10.7944   1
  -1  -2   9 174.661 8.72691   2
   0   2  -9 102.296 9.49238   1
   0  -2   9 105.264 9.63893   1
   0  -2   9 94.0339 6.39822   1
   0  -2   9 112.481 7.70565   2
   0  -2   9 100.647 6.39930   3
  -1   2  -9 24.1403 5.05023   1
   1  -2   9 17.7656 4.00154   1
   1  -2   9 17.5962 4.43762   2
   2  -2   9 104.865 9.73611   1
   2  -2   9 124.949 12.0608   2
   3  -2   9 14.6135 3.88417   1
   3  -2   9 15.1454 4.97642   2
   4  -2   9 3.51406 2.39489   1
   4  -2   9 3.05349 3.85638   2
   5  -2   9 4.39506 3.11994   1
   5  -2   9 4.55826 4.28067   2
   7   1  -9 5.23066 3.10652   3
  -7  -1   9 5.16428 3.88595   1
   6   1  -9 59.4864 7.32878   3
  -6  -1   9 55.8843 8.18730   1
   5   1  -9 42.6006 6.78130   1
   5   1  -9 28.4462 4.67469   3
  -5  -1   9 55.1744 7.60478   1
   4   1  -9 180.202 11.0720   1
   4   1  -9 173.471 9.50749   3
  -4  -1   9 176.611 10.7086   1
   3   1  -9 110.900 7.21211   3
   3   1  -9 116.674 8.22849   1
  -3  -1   9 115.017 7.16667   1
  -3  -1   9 130.534 8.58172   1
   2   1  -9 80.9128 7.48573   3
   2   1  -9 72.5526 7.47823   1
  -2  -1   9 74.6119 7.77283   1
  -2  -1   9 59.7534 5.67027   1
  -2  -1   9 55.9965 4.85126   2
   1   1  -9 450.036 17.7901   3
   1   1  -9 515.161 18.6082   1
  -1  -1   9 505.982 16.9330   2
  -1  -1   9 460.327 17.5125   1
   0   1  -9 82.7824 8.34869   1
   0  -1   9 79.6507 8.11552   2
   0  -1   9 90.1165 7.82493   1
  -1   1  -9 94.1095 9.44645   1
   1  -1   9 101.819 6.63037   1
   1  -1   9 119.095 10.7719   2
   1  -1   9 117.672 6.31904   1
   2  -1   9 -1.7516 1.76070   2
   2  -1   9 0.88988 1.74346   1
   3  -1   9 2.10152 1.79395   1
   3  -1   9 3.49706 2.78261   2
   4  -1   9 -0.5226 1.66660   1
   4  -1   9 8.17288 4.92457   2
   8   0  -9 0.38909 2.45374   3
  -8   0   9 1.40917 3.58288   1
   7   0  -9 3.87663 3.04119   3
  -7   0   9 6.45965 4.05602   1
   6   0  -9 6.94200 3.24633   3
  -6   0   9 0.83157 2.59077   1
   5   0  -9 63.6059 7.19995   3
  -5   0   9 54.8718 7.30576   1
   4   0  -9 82.4669 7.50754   3
   4   0  -9 66.4180 8.17584   1
  -4   0   9 79.1351 8.08624   1
   3   0  -9 237.460 11.7851   1
   3   0  -9 237.303 10.4987   3
  -3   0   9 223.219 10.2580   1
  -3   0   9 249.320 11.5220   1
   2   0  -9 298.643 18.3657   3
   2   0  -9 343.217 13.0441   3
   2   0  -9 364.523 14.0821   1
  -2   0   9 335.864 11.8591   2
  -2   0   9 314.519 11.5249   1
  -2   0   9 326.414 13.1411   1
   1   0  -9 82.4459 8.30910   3
   1   0  -9 75.7630 7.09885   1
  -1   0   9 79.9071 4.33760   1
  -1   0   9 88.6171 7.56632   2
  -1   0   9 75.1245 5.13961   1
   0   0  -9 122.486 8.01282   1
   0   0   9 122.798 4.86806   1
   0   0   9 130.745 5.66187   1
   0   0   9 136.413 8.70837   2
   1   0   9 83.8353 9.31117   2
   2   0   9 152.929 13.6547   2
   3   0   9 9.41415 4.17583   2
   4   0   9 0.21119 3.21992   2
   8  -1  -9 -3.6895 2.11109   3
  -8   1   9 0.84244 3.69480   1
   7  -1  -9 10.6517 4.35461   3
  -7   1   9 16.8253 5.22507   1
   6  -1  -9 63.9431 7.58597   3
  -6   1   9 80.2828 8.95504   1
   5  -1  -9 33.9177 5.04149   3
  -5   1   9 27.6376 5.18421   1
   4  -1  -9 677.648 21.6455   3
  -4   1   9 708.848 22.7980   1
   3  -1  -9 3.12390 2.22341   3
   3  -1  -9 -2.4597 1.54263   1
  -3   1   9 3.32596 2.11187   1
  -3   1   9 7.25998 2.16799   1
   2  -1  -9 259.934 11.2835   1
   2  -1  -9 268.396 10.7780   3
  -2   1   9 263.288 9.35214   1
  -2   1   9 259.090 8.72737   1
  -2   1   9 257.547 10.5588   2
   1  -1  -9 302.147 12.3570   1
  -1   1   9 313.121 12.9669   2
   0   1   9 9.47560 3.32366   2
   1   1   9 67.4141 8.58976   2
   2   1   9 2.36198 2.58772   2
   3   1   9 4.66347 3.62244   2
   4   1   9 -1.0554 3.64518   2
   8  -2  -9 8.37661 4.27915   3
  -8   2   9 14.4248 5.22628   1
   7  -2  -9 0.59056 2.51991   3
  -7   2   9 0.86972 3.02440   1
   6  -2  -9 15.7211 4.10429   3
  -6   2   9 13.6721 4.31180   1
   5  -2  -9 28.9200 4.66055   3
  -5   2   9 19.9005 4.11660   1
   4  -2  -9 91.8259 6.23103   3
  -4   2   9 98.2504 6.55620   1
   3  -2  -9 79.8539 5.38821   3
  -3   2   9 75.8540 4.30550   1
   2  -2  -9 14.7483 3.00374   3
  -2   2   9 15.0095 3.41086   2
  -1   2   9 688.538 22.8358   2
   0   2   9 47.8050 6.66865   2
   1   2   9 15.7895 4.47452   2
   2   2   9 36.5531 7.06557   2
   3   2   9 1.88189 3.43913   2
   8  -3  -9 19.5945 5.84674   3
  -8   3   9 13.3280 5.00867   1
   7  -3  -9 23.2768 5.37014   3
  -7   3   9 26.6142 5.91528   1
   6  -3  -9 6.34995 3.02939   3
  -6   3   9 10.7978 3.39022   1
   5  -3  -9 3.36713 2.28101   3
  -5   3   9 1.56455 2.33471   1
   4  -3  -9 215.145 9.50476   3
  -4   3   9 216.582 8.55586   1
  -4   3   9 224.742 8.85673   1
   3  -3  -9 103.819 5.96922   3
   2  -3  -9 393.443 12.9252   3
  -1   3   9 1.56383 2.09538   2
   0   3   9 80.1189 9.01546   2
   1   3   9 16.5391 4.83209   2
   2   3   9 3.94929 3.48767   2
   3   3   9 2.61712 3.82711   2
   7  -4  -9 16.8878 4.48716   3
  -7   4   9 15.0100 4.15706   1
   6  -4  -9 3.10119 2.71826   3
  -6   4   9 4.07759 2.83434   1
   5  -4  -9 4.93213 2.22022   3
  -5   4   9 2.86534 1.87856   1
   4  -4  -9 53.3121 5.43619   3
   3  -4  -9 27.8035 3.58862   3
  -1   4   9 399.898 16.9741   2
   0   4   9 0.96245 2.26109   2
   1   4   9 11.9810 4.34975   2
   2   4   9 6.34892 4.17712   2
   7  -5  -9 15.3855 4.36468   3
  -7   5   9 20.0334 4.50620   1
   6  -5  -9 0.21240 2.34573   3
  -6   5   9 5.15441 2.59955   1
   5  -5  -9 26.3955 4.52653   3
   4  -5  -9 95.2699 6.04642   3
   0   5   9 24.4221 5.55161   2
   1   5   9 -0.2838 2.58783   2
   6  -6  -9 0.02656 2.04171   3
   5  -6  -9 0.43755 1.91860   3
   4  -6  -9 7.46230 2.34201   3
   6  -7  -9 5.64788 2.77360   3
   5  -7  -9 2.12355 2.15709   3
   4  -7  -9 0.93445 1.73081   3
   1  10 -10 11.1361 5.69743   1
  -1 -10  10 4.73770 5.45090   1
  -1 -10  10 6.47464 4.25890   3
   0  10 -10 3.14870 4.06896   1
   0 -10  10 3.55276 4.18110   3
   0 -10  10 9.55396 6.74374   1
  -1  10 -10 3.18561 4.52877   1
   1 -10  10 6.26226 4.69054   3
   1 -10  10 6.18844 5.93165   1
  -2  10 -10 13.4770 6.26020   1
   2 -10  10 -0.5584 5.10554   1
   2 -10  10 -0.6926 3.25748   3
   3   9 -10 11.7954 5.32035   1
  -3  -9  10 13.9920 6.23059   1
   2   9 -10 7.43818 4.34792   1
  -2  -9  10 8.46229 5.23719   1
  -2  -9  10 5.03829 4.37580   3
   1   9 -10 9.61856 4.53434   3
   1   9 -10 11.4146 5.92746   1
  -1  -9  10 8.37011 4.46887   3
  -1  -9  10 5.45882 4.78547   1
   0   9 -10 -3.4211 2.84149   1
   0   9 -10 3.47681 3.41418   3
   0  -9  10 -6.9425 2.61407   1
   0  -9  10 0.50292 3.47924   3
  -1   9 -10 8.34684 4.57486   1
   1  -9  10 -1.4645 4.33733   1
   1  -9  10 1.21274 3.62030   3
  -2   9 -10 0.62590 3.71019   1
   2  -9  10 7.79588 5.68949   1
   2  -9  10 6.05680 3.82298   3
  -3   9 -10 3.70209 4.60515   1
   3  -9  10 3.93173 5.00325   1
   4   8 -10 0.99736 3.10914   1
  -4  -8  10 4.20521 5.15428   1
   3   8 -10 11.6190 5.01614   1
  -3  -8  10 16.2704 6.60341   1
   2   8 -10 5.56433 3.12053   3
   2   8 -10 12.3776 4.63335   1
  -2  -8  10 11.4406 4.90436   3
  -2  -8  10 7.83869 4.98916   1
   1   8 -10 1.71246 2.96489   1
   1   8 -10 -0.2858 2.99020   3
  -1  -8  10 0.11841 2.75209   3
  -1  -8  10 0.54719 3.61746   1
   0   8 -10 34.8768 7.83650   1
   0   8 -10 42.1252 7.84535   3
   0  -8  10 39.5364 8.68131   1
   0  -8  10 42.5616 7.68612   3
  -1   8 -10 7.10099 4.44541   1
   1  -8  10 1.39325 2.77569   3
   1  -8  10 1.88513 4.41488   1
  -2   8 -10 0.97729 3.79420   1
   2  -8  10 1.69271 3.59033   1
  -3   8 -10 11.6337 5.83663   1
   3  -8  10 2.91951 4.56047   1
   5   7 -10 5.63935 4.35094   1
  -5  -7  10 8.61055 5.30956   1
   4   7 -10 68.1663 10.2149   1
   4   7 -10 71.1404 9.16080   3
  -4  -7  10 91.3682 12.5150   1
   3   7 -10 6.19605 3.75444   1
   3   7 -10 5.97535 3.45978   3
  -3  -7  10 14.8374 5.63739   1
   2   7 -10 1.44757 2.71236   1
   2   7 -10 1.53710 2.75991   3
  -2  -7  10 -0.5274 2.65020   3
  -2  -7  10 3.61584 3.75755   1
   1   7 -10 12.6889 4.67126   1
   1   7 -10 13.2147 4.62768   3
  -1  -7  10 10.0452 4.99357   1
  -1  -7  10 10.4985 4.39094   3
   0   7 -10 11.8644 5.01455   1
   0  -7  10 9.28171 5.03105   1
   0  -7  10 9.14035 4.06863   3
  -1   7 -10 33.1788 7.51451   1
   1  -7  10 32.4283 6.32633   3
   1  -7  10 27.5811 7.74685   1
  -2   7 -10 27.3278 7.02511   1
   2  -7  10 17.1007 6.47098   1
  -3   7 -10 0.81302 3.77813   1
   3  -7  10 7.50846 5.12758   1
  -4   7 -10 -2.9762 3.54111   1
   4  -7  10 -0.2799 3.90183   1
   5   6 -10 3.85102 3.46072   1
   5   6 -10 2.60308 3.07637   3
  -5  -6  10 3.86898 4.02202   1
   4   6 -10 7.13967 3.79982   3
   4   6 -10 1.41554 2.69671   1
  -4  -6  10 2.12004 3.82076   1
   3   6 -10 184.375 16.3010   1
   3   6 -10 170.535 10.9560   3
  -3  -6  10 152.340 14.9223   1
   2   6 -10 8.09712 3.75214   1
   2   6 -10 9.09312 4.00699   3
  -2  -6  10 8.02048 4.15629   1
  -2  -6  10 7.90319 3.72563   3
   1   6 -10 51.4940 8.33701   1
   1   6 -10 46.9692 7.59270   3
  -1  -6  10 35.9729 6.51057   3
  -1  -6  10 53.3369 9.15693   1
   0   6 -10 118.400 12.5024   1
   0  -6  10 113.417 10.8877   3
   0  -6  10 116.657 13.5785   1
  -1   6 -10 104.098 12.3199   1
   1  -6  10 72.9613 10.7125   1
   1  -6  10 71.0881 9.46540   3
  -2   6 -10 0.90958 3.19323   1
   2  -6  10 -2.7052 2.35281   1
  -3   6 -10 3.09454 4.43525   1
   3  -6  10 2.89061 4.08510   1
   4  -6  10 3.69824 3.80265   1
   6   5 -10 6.45279 4.04453   1
   6   5 -10 1.17431 2.72092   3
  -6  -5  10 4.99591 4.90254   1
   5   5 -10 16.3267 5.37185   1
   5   5 -10 12.4073 4.26994   3
  -5  -5  10 10.5557 5.28015   1
   4   5 -10 94.3382 9.99879   3
   4   5 -10 101.259 11.4304   1
  -4  -5  10 100.153 11.8780   1
   3   5 -10 6.64110 3.15704   3
   3   5 -10 6.82566 3.35935   1
  -3  -5  10 1.79062 3.27073   1
   2   5 -10 130.449 11.5328   3
   2   5 -10 124.473 12.3230   1
  -2  -5  10 117.848 12.4907   1
  -2  -5  10 127.550 11.7156   3
   1   5 -10 68.3585 8.28504   3
   1   5 -10 89.3561 10.4303   1
  -1  -5  10 76.2981 8.68659   3
  -1  -5  10 90.4465 11.1311   1
   0   5 -10 11.5834 4.35423   1
   0  -5  10 15.2497 4.19260   3
   0  -5  10 17.2200 5.22041   1
  -1   5 -10 28.1879 6.79688   1
   1  -5  10 31.1108 6.97926   1
  -2   5 -10 13.6372 4.85184   1
   2  -5  10 5.55049 3.59006   1
   3  -5  10 3.82361 3.73828   1
   4  -5  10 13.3340 5.50982   1
   6   4 -10 8.11827 4.30617   1
   6   4 -10 12.9264 4.33797   3
  -6  -4  10 11.7688 5.07591   1
   5   4 -10 -0.7532 2.45335   1
   5   4 -10 -3.2049 1.72748   3
  -5  -4  10 4.42205 3.43718   1
   4   4 -10 20.9131 5.42354   1
   4   4 -10 14.4617 4.25551   3
  -4  -4  10 15.0293 5.04678   1
   3   4 -10 266.712 13.4482   3
   3   4 -10 284.111 15.4339   1
  -3  -4  10 309.529 16.5039   1
   2   4 -10 1.57766 2.55265   3
   2   4 -10 -0.2542 2.42615   1
  -2  -4  10 2.34104 1.63567   2
  -2  -4  10 -0.3838 2.36927   1
   1   4 -10 2.17857 2.74316   1
  -1  -4  10 5.99165 2.74927   3
  -1  -4  10 0.16662 2.28010   1
   0   4 -10 150.948 13.6866   1
   0  -4  10 139.640 13.3236   1
  -1   4 -10 673.295 26.7919   1
   1  -4  10 638.609 26.2036   1
  -2   4 -10 3.55081 3.41302   1
   2  -4  10 4.13088 3.11854   1
   3  -4  10 2.68064 3.21661   1
   4  -4  10 3.39000 3.24803   1
   7   3 -10 59.2236 8.45989   3
   7   3 -10 60.5554 9.78792   1
  -7  -3  10 65.5123 10.0189   1
   6   3 -10 28.8076 5.95698   3
   6   3 -10 23.9918 6.25944   1
  -6  -3  10 20.1014 5.68121   1
   5   3 -10 81.5227 10.0640   1
   5   3 -10 58.5153 7.64556   3
  -5  -3  10 59.4629 8.99591   1
   4   3 -10 59.2744 7.46935   3
   4   3 -10 67.2797 8.60169   1
  -4  -3  10 73.3252 9.49573   1
   3   3 -10 255.760 14.1388   1
   3   3 -10 268.576 12.7803   3
  -3  -3  10 251.744 14.3326   1
   2   3 -10 236.953 13.2607   1
   2   3 -10 239.951 12.2287   3
  -2  -3  10 226.071 9.12778   2
  -2  -3  10 219.003 13.2827   1
   1   3 -10 30.7653 6.16261   1
  -1  -3  10 43.2200 5.53288   2
  -1  -3  10 42.6638 7.24440   1
   0   3 -10 367.041 17.3903   1
   0  -3  10 345.953 15.4518   2
   0  -3  10 366.800 17.3085   1
  -1   3 -10 0.53763 3.02922   1
   1  -3  10 3.14922 2.67710   1
   1  -3  10 4.83352 3.16803   2
   2  -3  10 76.2480 10.1169   2
   2  -3  10 70.1516 8.72925   1
   3  -3  10 0.85240 2.56005   1
   3  -3  10 -0.5117 2.83633   2
   4  -3  10 12.7558 4.32308   1
   4  -3  10 10.0019 5.41194   2
   7   2 -10 -2.1406 2.72799   1
   7   2 -10 -0.9008 2.20310   3
  -7  -2  10 -0.2400 3.22076   1
   6   2 -10 46.5861 8.48453   1
   6   2 -10 49.1576 7.13120   3
  -6  -2  10 41.0331 7.65245   1
   5   2 -10 15.0958 4.11553   3
   5   2 -10 21.3335 5.54255   1
  -5  -2  10 18.9099 4.92345   1
   4   2 -10 22.2406 5.08007   1
   4   2 -10 18.6896 4.26495   3
  -4  -2  10 27.5069 5.74287   1
   3   2 -10 210.326 12.5563   1
   3   2 -10 250.074 11.9513   3
  -3  -2  10 243.018 13.2333   1
   2   2 -10 1283.25 36.1464   3
   2   2 -10 1221.09 37.5460   1
  -2  -2  10 1193.14 37.5422   1
  -2  -2  10 1242.23 32.3463   2
   1   2 -10 -1.2158 2.20356   1
  -1  -2  10 1.09026 1.94125   2
  -1  -2  10 0.06418 2.28055   1
   0   2 -10 344.072 16.2524   1
   0  -2  10 339.583 15.2475   2
   0  -2  10 351.757 15.6693   1
   1  -2  10 582.262 21.4144   1
   1  -2  10 587.725 23.1564   2
   2  -2  10 4.56049 2.64739   1
   2  -2  10 4.09728 3.38121   2
   3  -2  10 15.1618 5.31802   2
   3  -2  10 17.5069 4.10925   1
   4  -2  10 -1.2203 3.45648   2
   4  -2  10 3.30737 2.52068   1
   7   1 -10 34.1353 7.32963   1
   7   1 -10 42.9666 6.99951   3
  -7  -1  10 50.7363 8.57722   1
   6   1 -10 10.7861 4.16832   1
   6   1 -10 17.0921 4.53245   3
  -6  -1  10 5.35330 4.11739   1
   5   1 -10 103.224 10.8802   1
   5   1 -10 86.5698 8.47139   3
  -5  -1  10 96.9590 10.1432   1
   4   1 -10 73.4393 8.65646   1
   4   1 -10 75.7762 7.73553   3
  -4  -1  10 68.8940 8.53593   1
   3   1 -10 851.769 26.3942   3
   3   1 -10 827.288 28.1049   1
  -3  -1  10 864.794 28.2162   1
   2   1 -10 235.365 12.4962   1
   2   1 -10 224.238 11.3347   3
  -2  -1  10 245.772 9.90697   2
  -2  -1  10 250.450 12.5273   1
   1   1 -10 377.896 16.6424   1
  -1  -1  10 387.203 13.3448   1
  -1  -1  10 392.266 15.2084   2
  -1  -1  10 403.405 15.8424   1
   0  -1  10 114.761 10.2140   2
   0  -1  10 107.418 7.05353   1
   1  -1  10 7.72573 2.37894   1
   1  -1  10 8.51333 3.64002   2
   2  -1  10 21.9800 3.29142   1
   2  -1  10 31.4927 6.74308   2
   3  -1  10 0.83183 3.40513   2
   3  -1  10 -0.9997 1.38818   1
   4  -1  10 7.77577 2.45101   1
   4  -1  10 3.02412 4.56192   2
   7   0 -10 -1.2873 2.09512   3
  -7   0  10 -0.5076 2.92167   1
   6   0 -10 -1.7406 1.83726   3
  -6   0  10 -0.7083 2.55763   1
   5   0 -10 2.83948 2.67260   1
   5   0 -10 -0.9351 1.77422   3
  -5   0  10 3.10828 3.04659   1
   4   0 -10 11.0497 3.65075   1
   4   0 -10 8.08289 3.04821   3
  -4   0  10 11.5064 3.65622   1
   3   0 -10 58.5826 6.39283   3
   3   0 -10 73.9090 8.07911   1
  -3   0  10 79.1162 8.02134   1
   2   0 -10 1501.54 40.4867   3
   2   0 -10 1431.58 43.4464   1
  -2   0  10 1518.33 40.2763   1
  -2   0  10 1499.76 38.1683   1
  -2   0  10 1506.29 39.1127   2
  -1   0  10 42.5181 3.72011   1
  -1   0  10 46.5946 5.87593   2
  -1   0  10 52.0066 4.84091   1
   0   0  10 60.2917 7.52012   2
   1   0  10 63.4696 8.31994   2
   2   0  10 -0.9562 2.50975   2
   3   0  10 6.96902 4.74070   2
   7  -1 -10 -0.0055 2.18228   3
  -7   1  10 3.19545 3.45523   1
  -6   1  10 109.456 10.8411   1
   5  -1 -10 4.22786 2.27403   3
  -5   1  10 2.39609 2.65740   1
   4  -1 -10 134.039 8.06920   3
  -4   1  10 138.825 8.71308   1
   3  -1 -10 318.104 12.6290   3
  -3   1  10 309.695 12.3877   1
  -3   1  10 305.271 11.6537   1
   2  -1 -10 10.0118 2.88362   3
  -2   1  10 5.48315 2.42303   2
  -1   1  10 54.8957 6.62954   2
   0   1  10 -0.1912 2.02446   2
   1   1  10 48.3523 7.62657   2
   2   1  10 1.04999 3.05110   2
   3   1  10 0.40902 3.05983   2
   7  -2 -10 7.79190 3.24655   3
  -7   2  10 3.98457 3.23101   1
   6  -2 -10 8.83096 3.28337   3
  -6   2  10 4.80075 3.20275   1
   5  -2 -10 39.2912 5.60754   3
  -5   2  10 51.3611 6.36004   1
   4  -2 -10 13.1352 3.09023   3
  -4   2  10 18.8778 3.64864   1
   3  -2 -10 -0.7224 1.59420   3
   2  -2 -10 316.185 12.0930   3
  -2   2  10 300.804 12.9225   2
  -1   2  10 4.20442 2.53917   2
   0   2  10 3.43613 2.60470   2
   1   2  10 1.22239 2.48337   2
   2   2  10 10.4987 4.38470   2
   7  -3 -10 4.11537 3.02044   3
  -7   3  10 3.57913 3.40649   1
   6  -3 -10 54.5476 6.89891   3
  -6   3  10 74.5269 7.99300   1
   5  -3 -10 5.52821 2.78782   3
  -5   3  10 7.83951 2.71730   1
   4  -3 -10 74.0064 6.75607   3
   3  -3 -10 2.25309 1.90290   3
   2  -3 -10 79.4961 5.41244   3
  -1   3  10 3.68541 2.40766   2
   0   3  10 -2.3414 1.96948   2
   1   3  10 7.46911 3.62421   2
   2   3  10 5.45300 3.49014   2
   7  -4 -10 14.9224 4.48429   3
  -7   4  10 17.2024 4.81321   1
   6  -4 -10 3.51929 2.77527   3
  -6   4  10 3.42837 2.54159   1
   5  -4 -10 2.79884 2.00950   3
   4  -4 -10 27.5905 4.18979   3
   3  -4 -10 4.59339 2.14935   3
  -1   4  10 2.41341 2.89391   2
   0   4  10 2.13791 2.66178   2
   1   4  10 7.09079 3.87301   2
   6  -5 -10 3.79243 2.69592   3
   5  -5 -10 0.22353 1.75295   3
   4  -5 -10 -0.3657 1.75044   3
   3  -5 -10 1.43743 1.79778   3
   0   5  10 -0.4044 2.91016   2
   6  -6 -10 4.62867 2.73391   3
   5  -6 -10 8.65714 3.35532   3
   4  -6 -10 -2.5888 1.79497   3
   4  -7 -10 4.37958 2.45059   3
   2   9 -11 40.9978 9.05663   1
  -2  -9  11 26.9027 8.15240   1
  -2  -9  11 24.7366 7.03632   3
   1   9 -11 -0.5107 3.50480   1
   1   9 -11 3.25872 3.58302   3
  -1  -9  11 0.89336 3.84846   3
  -1  -9  11 -0.3815 4.79362   1
   0   9 -11 7.61631 4.22266   3
   0   9 -11 1.75352 4.68211   1
   0  -9  11 1.24923 4.17947   3
   0  -9  11 5.84942 4.81584   1
  -1   9 -11 -1.6951 3.42283   1
   1  -9  11 7.65277 5.96068   1
  -2   9 -11 17.0057 6.94798   1
   2  -9  11 14.8020 6.81975   1
   3   8 -11 -4.0614 2.14912   1
   3   8 -11 -4.2224 3.06074   3
  -3  -8  11 2.68366 5.03376   1
   2   8 -11 4.34034 3.81980   3
   2   8 -11 7.83954 4.37223   1
  -2  -8  11 7.77332 5.68820   1
  -2  -8  11 10.0003 4.88894   3
   1   8 -11 26.3117 7.79116   1
   1   8 -11 16.8610 5.07254   3
  -1  -8  11 19.6676 5.67186   3
  -1  -8  11 20.1046 7.45463   1
   0   8 -11 115.256 14.3322   1
   0   8 -11 126.135 12.9653   3
   0  -8  11 109.398 12.4512   3
   0  -8  11 120.173 15.6593   1
  -1   8 -11 -2.1265 3.18666   1
   1  -8  11 0.95830 4.55202   1
  -2   8 -11 2.50868 4.35518   1
   2  -8  11 6.12098 5.23164   1
  -3   8 -11 15.4448 6.99594   1
   4   7 -11 9.67607 4.48088   3
   4   7 -11 7.63297 4.25302   1
  -4  -7  11 8.07489 4.77134   1
   3   7 -11 23.6141 5.89004   3
   3   7 -11 38.4076 8.00886   1
  -3  -7  11 19.7095 6.70544   1
   2   7 -11 27.3067 6.08665   3
   2   7 -11 16.6223 5.54986   1
  -2  -7  11 21.8351 5.94774   3
  -2  -7  11 24.7808 7.48079   1
   1   7 -11 8.46214 4.57881   1
   1   7 -11 17.8633 5.34930   3
  -1  -7  11 15.3189 6.33354   1
  -1  -7  11 11.6011 4.50204   3
   0   7 -11 42.4914 8.12187   1
   0  -7  11 20.0877 6.87936   1
  -1   7 -11 12.9261 5.75046   1
   1  -7  11 24.4424 6.97908   1
  -2   7 -11 4.15290 4.26470   1
   2  -7  11 1.53484 4.05171   1
   3  -7  11 0.52833 3.71431   1
   5   6 -11 7.11384 4.66673   1
   5   6 -11 0.63105 3.03095   3
  -5  -6  11 0.67541 4.16352   1
   4   6 -11 72.2410 9.05624   3
   4   6 -11 84.4343 11.5438   1
  -4  -6  11 67.9103 10.8683   1
   3   6 -11 21.1039 5.70388   1
   3   6 -11 22.6654 5.35586   3
  -3  -6  11 37.1604 8.66606   1
   2   6 -11 2.67688 2.93794   3
   2   6 -11 1.20613 2.96579   1
  -2  -6  11 6.53131 4.01593   3
  -2  -6  11 -0.0678 2.71079   1
   1   6 -11 33.9262 7.07183   1
   1   6 -11 28.5560 6.08144   3
  -1  -6  11 49.5446 10.1758   3
  -1  -6  11 33.7494 7.65495   1
   0   6 -11 256.956 16.8123   1
   0  -6  11 335.494 19.4370   1
  -1   6 -11 9.52897 4.67269   1
   1  -6  11 17.2455 6.21486   1
  -2   6 -11 52.6029 9.23240   1
   2  -6  11 56.5315 10.4348   1
   3  -6  11 50.8130 9.41400   1
   5   5 -11 2.65763 3.43148   1
   5   5 -11 -2.9036 2.49933   3
  -5  -5  11 -1.6708 3.59114   1
   4   5 -11 74.8775 10.1297   1
   4   5 -11 67.2925 8.65229   3
  -4  -5  11 80.9103 11.3657   1
   3   5 -11 117.350 12.5178   1
   3   5 -11 112.988 11.4504   3
  -3  -5  11 143.957 14.9109   1
   2   5 -11 0.37575 2.85808   3
   2   5 -11 4.11137 3.49901   1
  -2  -5  11 4.54103 3.86500   1
   1   5 -11 0.63271 2.54092   3
   1   5 -11 -3.1840 2.39603   1
  -1  -5  11 2.69707 3.27963   1
   0   5 -11 -2.0185 2.36113   1
   0  -5  11 -2.2083 2.41565   1
  -1   5 -11 0.53959 3.28232   1
   1  -5  11 9.23368 4.77804   1
   2  -5  11 1.67582 2.92999   1
   3  -5  11 1.89935 3.59902   1
   6   4 -11 7.83829 4.50734   3
   6   4 -11 6.85697 4.32631   1
  -6  -4  11 9.77227 4.83322   1
   5   4 -11 13.1655 4.89527   1
   5   4 -11 10.6982 3.82558   3
  -5  -4  11 18.7670 6.31055   1
   4   4 -11 40.1344 6.63026   3
   4   4 -11 43.7945 7.83095   1
  -4  -4  11 35.9351 7.32088   1
   3   4 -11 439.545 20.5889   1
   3   4 -11 415.910 17.9887   3
  -3  -4  11 423.897 20.7855   1
   2   4 -11 62.2974 8.82592   1
   2   4 -11 54.4660 7.58136   3
  -2  -4  11 64.6501 9.59548   1
   1   4 -11 22.3411 5.48078   1
  -1  -4  11 25.8427 4.59527   2
  -1  -4  11 26.5255 6.35071   1
   0   4 -11 66.1034 9.22438   1
   0  -4  11 67.1092 9.67434   1
   0  -4  11 54.2084 7.17499   2
   1  -4  11 0.87487 2.65216   1
   2  -4  11 125.156 12.7598   1
   3  -4  11 7.80324 4.29650   1
   3  -4  11 11.5739 5.42889   2
   6   3 -11 -2.6710 2.30786   1
   6   3 -11 1.56595 2.85167   3
  -6  -3  11 -0.5207 3.06022   1
   5   3 -11 -0.8788 2.10726   1
   5   3 -11 1.28055 2.79966   3
  -5  -3  11 9.71451 4.01333   1
   4   3 -11 104.371 9.99959   3
   4   3 -11 125.998 12.2905   1
  -4  -3  11 100.297 11.8110   1
   3   3 -11 170.863 10.5456   3
   3   3 -11 178.662 12.0480   1
  -3  -3  11 157.686 14.3071   1
   2   3 -11 40.7459 6.29676   3
   2   3 -11 36.3950 6.81868   1
  -2  -3  11 46.9197 4.86632   2
  -2  -3  11 39.7443 6.99872   1
   1   3 -11 84.4090 9.77203   1
  -1  -3  11 70.0025 9.08743   1
  -1  -3  11 62.6698 6.91054   2
   0  -3  11 64.5239 8.60260   1
   0  -3  11 48.9042 6.78365   2
   1  -3  11 16.6392 4.68275   2
   1  -3  11 10.5752 4.01390   1
   2  -3  11 1.70379 2.49827   1
   2  -3  11 0.88621 3.25026   2
   3  -3  11 2.64034 2.68424   1
   3  -3  11 -2.4845 3.01750   2
   7   2 -11 -1.4760 2.81533   3
   7   2 -11 -1.7726 3.16740   1
  -7  -2  11 -4.5503 3.37146   1
   6   2 -11 3.56920 3.25728   3
   6   2 -11 3.62883 3.36062   1
  -6  -2  11 16.6561 5.64218   1
   5   2 -11 81.0078 9.12861   3
   5   2 -11 79.6678 10.2731   1
  -5  -2  11 117.438 12.2442   1
   4   2 -11 46.4985 7.29345   1
   4   2 -11 21.2861 4.47204   3
  -4  -2  11 42.7101 7.50162   1
   3   2 -11 264.328 14.4130   1
   3   2 -11 249.800 12.7097   3
  -3  -2  11 249.004 14.0346   1
   2   2 -11 128.974 8.94076   3
   2   2 -11 166.955 10.9271   1
  -2  -2  11 146.887 12.7408   1
  -2  -2  11 122.201 6.89839   2
  -1  -2  11 1.54509 2.37998   1
  -1  -2  11 3.58789 2.40303   2
   0  -2  11 0.53409 2.10053   2
   0  -2  11 5.26023 2.86700   1
   1  -2  11 5.17014 2.90245   2
   1  -2  11 2.36034 2.45643   1
   2  -2  11 7.20311 2.71593   1
   2  -2  11 3.87230 3.47281   2
   3  -2  11 1.14200 2.10987   1
   3  -2  11 1.18042 3.54118   2
   7   1 -11 28.7354 6.39804   3
  -7  -1  11 24.0409 6.69702   1
   6   1 -11 -1.9685 2.13924   3
  -6  -1  11 2.00310 3.11486   1
   5   1 -11 3.06833 4.35497   1
   5   1 -11 3.70218 2.58383   3
  -5  -1  11 5.73974 3.52564   1
   4   1 -11 23.2492 4.64940   3
  -4  -1  11 30.3844 5.99325   1
   3   1 -11 1.04324 1.92475   3
  -3  -1  11 -1.3268 2.06302   1
   2   1 -11 20.2707 4.40912   3
  -2  -1  11 16.9524 3.26898   2
  -2  -1  11 21.8042 4.60447   1
  -1  -1  11 107.335 9.19732   1
  -1  -1  11 99.5275 7.26999   2
   0  -1  11 4.20703 2.65275   2
   0  -1  11 5.01299 2.33240   1
   1  -1  11 -1.0925 1.35965   1
   1  -1  11 -2.5885 1.91571   2
   2  -1  11 23.2324 6.25705   2
   3  -1  11 13.0832 5.72747   2
   7   0 -11 11.9843 4.07335   3
  -7   0  11 14.2132 5.33449   1
   6   0 -11 1.13618 2.46356   3
  -6   0  11 3.90567 3.21870   1
   5   0 -11 84.5478 8.64494   3
  -5   0  11 134.796 12.0318   1
   4   0 -11 0.87074 1.85158   3
  -4   0  11 9.67403 3.59323   1
   3   0 -11 2.66431 2.17321   3
  -3   0  11 6.49824 2.83070   1
   2   0 -11 2.74998 2.32387   3
  -2   0  11 -0.3899 1.47793   2
  -2   0  11 1.13289 1.83061   1
  -1   0  11 1.52818 1.82890   2
   0   0  11 4.95633 2.96890   2
   1   0  11 13.5931 4.67874   2
   2   0  11 5.05205 4.05100   2
   3   0  11 1.54889 3.42623   2
   7  -1 -11 7.26474 3.89553   3
  -7   1  11 19.4943 5.79330   1
   6  -1 -11 12.7588 4.10157   3
  -6   1  11 11.8309 4.42035   1
   5  -1 -11 1.28634 2.16726   3
  -5   1  11 2.45688 2.72722   1
   4  -1 -11 19.7066 4.10840   3
  -4   1  11 15.0515 3.95360   1
   3  -1 -11 42.7237 5.67497   3
  -3   1  11 56.0226 5.48657   1
   2  -1 -11 0.98981 1.85390   3
  -2   1  11 3.32225 2.28647   2
  -1   1  11 15.1912 3.87488   2
   0   1  11 14.6136 4.33679   2
   1   1  11 -2.2206 2.14033   2
   2   1  11 3.59188 3.87139   2
   7  -2 -11 1.36150 2.79497   3
  -7   2  11 -2.2903 2.91454   1
   6  -2 -11 0.51254 2.32217   3
  -6   2  11 3.36791 3.02444   1
   5  -2 -11 17.7343 4.11417   3
  -5   2  11 21.3012 4.47602   1
   4  -2 -11 3.07305 2.70336   3
  -4   2  11 10.5142 2.80221   1
   3  -2 -11 6.47196 2.60791   3
   2  -2 -11 0.08764 2.36330   3
  -2   2  11 -0.1532 1.84080   2
  -1   2  11 1.48855 2.28648   2
   0   2  11 4.14484 3.10866   2
   1   2  11 5.13913 3.51259   2
   2   2  11 6.93688 4.46173   2
   7  -3 -11 2.75250 2.85688   3
  -7   3  11 5.33422 3.46587   1
   6  -3 -11 3.26219 2.72426   3
  -6   3  11 11.5583 3.68959   1
   5  -3 -11 -0.3731 2.18601   3
  -5   3  11 0.24419 1.77922   1
   4  -3 -11 4.79331 2.56849   3
   3  -3 -11 5.93859 2.77276   3
   2  -3 -11 -0.8709 1.64942   3
  -1   3  11 27.4130 5.39278   2
   0   3  11 7.42738 3.51475   2
   1   3  11 0.79267 3.19569   2
   6  -4 -11 3.84264 2.56157   3
  -6   4  11 6.27567 2.51680   1
   5  -4 -11 0.92618 1.98732   3
   4  -4 -11 1.71048 2.27413   3
   3  -4 -11 1.71495 2.14148   3
  -1   4  11 3.95079 3.38260   2
   0   4  11 -3.3790 2.53687   2
   5  -5 -11 5.74641 2.82243   3
   4  -5 -11 1.66641 1.82507   3
   4  -6 -11 8.70187 2.75251   3
   3   8 -12 37.4609 8.07334   1
   2   8 -12 5.15742 4.51713   1
   2   8 -12 11.6967 5.10578   3
  -2  -8  12 2.27806 4.84555   1
   1   8 -12 45.2048 9.44933   1
   1   8 -12 42.4491 7.97987   3
  -1  -8  12 51.8780 10.4773   1
   0   8 -12 23.5943 5.90844   3
   0   8 -12 28.1420 7.30384   1
   0  -8  12 27.1996 8.42568   1
  -1   8 -12 13.5684 6.41642   1
   1  -8  12 20.9700 6.99345   1
   4   7 -12 77.7465 9.70561   3
   4   7 -12 59.9354 10.5311   1
  -4  -7  12 97.8526 13.6512   1
   3   7 -12 7.04669 4.57242   1
   3   7 -12 2.84846 3.41439   3
  -3  -7  12 0.21451 4.26143   1
   2   7 -12 68.3959 9.88470   3
   2   7 -12 62.9603 10.5593   1
   1   7 -12 40.8870 7.89629   3
   1   7 -12 38.4975 8.37404   1
  -1  -7  12 40.6686 9.29754   1
   0   7 -12 1.89513 3.44769   1
   0  -7  12 3.63188 4.58396   1
  -1   7 -12 7.91974 5.23704   1
   1  -7  12 0.99701 3.41981   1
   2  -7  12 9.92972 5.91522   1
   4   6 -12 80.1939 10.1710   3
   4   6 -12 82.2087 12.0506   1
  -4  -6  12 92.9315 13.4553   1
   3   6 -12 88.9391 12.2278   1
   3   6 -12 77.7318 9.35223   3
  -3  -6  12 73.2093 11.5781   1
   2   6 -12 4.76176 3.80917   3
   2   6 -12 16.1341 5.38295   1
  -2  -6  12 14.5534 4.97578   1
   1   6 -12 12.8845 5.44689   1
   1   6 -12 18.0651 5.16078   3
  -1  -6  12 23.3464 6.86525   1
   0   6 -12 1.41177 2.98642   1
   0  -6  12 3.09811 4.17553   1
   1  -6  12 -1.7326 2.84422   1
   2  -6  12 0.38973 3.48127   1
   5   5 -12 5.87217 4.32517   1
   5   5 -12 3.40543 3.30701   3
  -5  -5  12 0.42024 4.08653   1
   4   5 -12 45.5205 7.05508   3
   4   5 -12 65.3413 9.76779   1
  -4  -5  12 64.0508 10.7214   1
   3   5 -12 56.1582 8.28733   3
   3   5 -12 42.2813 8.47249   1
  -3  -5  12 53.3539 9.55526   1
   2   5 -12 79.6995 10.7760   1
   2   5 -12 68.4558 8.99313   3
  -2  -5  12 76.5147 11.5603   1
   1   5 -12 -0.2628 2.45611   3
   1   5 -12 0.21097 3.12688   1
  -1  -5  12 4.41057 3.07555   2
  -1  -5  12 8.61542 4.95424   1
   0  -5  12 47.5946 8.87944   1
   1  -5  12 3.75067 3.22995   1
   2  -5  12 73.8945 11.2336   1
   5   4 -12 15.4457 5.34630   1
   5   4 -12 20.0170 5.33563   3
  -5  -4  12 33.6577 7.92860   1
   4   4 -12 90.1335 11.7500   1
   4   4 -12 93.2643 9.90366   3
  -4  -4  12 104.194 12.9000   1
   3   4 -12 29.1351 6.92051   1
   3   4 -12 26.8049 5.64202   3
  -3  -4  12 25.2079 6.38111   1
   2   4 -12 28.7793 6.19923   3
   2   4 -12 28.8166 6.65629   1
  -2  -4  12 26.6131 6.58743   1
  -1  -4  12 50.2000 8.65159   1
  -1  -4  12 45.1912 6.19686   2
   0  -4  12 11.4167 4.65110   1
   0  -4  12 3.81602 2.93825   2
   1  -4  12 72.9283 9.76882   2
   1  -4  12 83.9553 10.7812   1
   2  -4  12 4.28395 3.69810   1
   2  -4  12 14.8578 5.75210   2
   6   3 -12 -2.4836 2.93189   1
   6   3 -12 0.80817 2.67790   3
  -6  -3  12 2.60073 3.71818   1
   5   3 -12 27.9518 5.54458   3
   5   3 -12 22.0542 5.93563   1
  -5  -3  12 27.2473 6.81815   1
   4   3 -12 8.51405 3.58122   3
   4   3 -12 10.4766 4.37265   1
  -4  -3  12 16.2672 5.56576   1
   3   3 -12 35.7674 9.28928   1
   3   3 -12 48.1745 7.33079   3
  -3  -3  12 21.9230 5.66262   1
   2   3 -12 9.98023 3.82772   3
  -2  -3  12 10.3179 4.26366   1
  -1  -3  12 69.6270 7.45399   2
  -1  -3  12 70.7198 9.73922   1
   0  -3  12 72.9908 8.59574   2
   0  -3  12 71.7173 9.39537   1
   1  -3  12 36.8248 7.08519   2
   1  -3  12 27.3970 5.88395   1
   2  -3  12 12.2486 4.25444   1
   2  -3  12 25.0159 6.39780   2
   6   2 -12 46.6693 7.12072   3
  -6  -2  12 86.0212 11.5318   1
   5   2 -12 12.1400 4.17515   3
  -5  -2  12 9.07631 4.43577   1
   4   2 -12 5.38939 2.93536   3
  -4  -2  12 4.39920 3.38316   1
   3   2 -12 1.73984 2.61506   3
  -3  -2  12 5.45037 3.51172   1
   2   2 -12 15.2125 4.35020   3
  -2  -2  12 20.2920 3.60469   2
  -2  -2  12 20.2135 5.25170   1
  -1  -2  12 14.0641 3.77381   2
  -1  -2  12 11.6295 3.92917   1
   0  -2  12 24.0107 4.69919   1
   0  -2  12 27.5143 5.84454   2
   1  -2  12 50.3969 6.63115   1
   1  -2  12 38.6617 7.31285   2
   2  -2  12 5.12929 4.03523   2
   2  -2  12 3.38375 2.47113   1
   6   1 -12 0.54175 2.74345   3
  -6  -1  12 2.24785 3.35541   1
   5   1 -12 5.78676 3.38512   3
  -5  -1  12 8.42721 4.05407   1
   4   1 -12 2.40249 2.40426   3
  -4  -1  12 12.1804 4.23536   1
   3   1 -12 7.60343 3.45343   3
  -3  -1  12 -0.5403 2.19177   1
   2   1 -12 0.98930 2.23035   3
  -2  -1  12 2.13476 1.80199   2
  -2  -1  12 2.85887 2.51148   1
  -1  -1  12 18.7101 4.43464   2
  -1  -1  12 25.6366 4.56648   1
   0  -1  12 0.27294 1.72012   1
   0  -1  12 0.96781 2.36713   2
   1  -1  12 1.00572 2.70138   2
   2  -1  12 7.31970 4.29473   2
   6   0 -12 3.54341 3.17270   3
  -6   0  12 9.19400 4.39469   1
   5   0 -12 0.93098 2.17545   3
  -5   0  12 9.96925 4.16072   1
   4   0 -12 4.86143 2.49427   3
  -4   0  12 14.2746 4.39699   1
   3   0 -12 4.96023 2.74954   3
  -3   0  12 10.2086 3.60398   1
   2   0 -12 18.8061 4.31030   3
  -2   0  12 26.9852 3.86608   1
  -2   0  12 20.1600 3.95815   2
  -1   0  12 4.22679 2.87920   2
   0   0  12 4.95531 3.11134   2
   1   0  12 -0.1801 2.94825   2
   2   0  12 1.98119 3.88739   2
   6  -1 -12 -1.8097 1.82423   3
  -6   1  12 7.90464 3.70013   1
   5  -1 -12 7.70560 3.17074   3
  -5   1  12 9.84866 3.76816   1
   4  -1 -12 -5.1191 1.41585   3
  -4   1  12 -0.6795 2.11024   1
   3  -1 -12 2.88064 2.46152   3
   2  -1 -12 14.3945 3.64738   3
  -2   1  12 9.63046 3.09717   2
  -1   1  12 1.70231 2.55675   2
   0   1  12 4.22383 2.90701   2
   1   1  12 12.4670 4.53310   2
   6  -2 -12 -0.4873 2.50647   3
  -6   2  12 3.32761 3.29915   1
   5  -2 -12 3.78305 2.49237   3
  -5   2  12 1.77618 2.70084   1
   4  -2 -12 7.35559 2.98281   3
   3  -2 -12 5.72124 2.52864   3
   2  -2 -12 23.7811 4.55159   3
  -2   2  12 24.9578 4.93854   2
  -1   2  12 -0.4030 2.19649   2
   0   2  12 -0.4067 2.55577   2
   6  -3 -12 23.1490 4.77957   3
  -6   3  12 29.4289 4.93011   1
   5  -3 -12 0.64206 2.59721   3
   4  -3 -12 5.36484 2.95808   3
   3  -3 -12 5.13554 2.38588   3
   2  -3 -12 42.4263 5.38005   3
  -1   3  12 -1.1633 2.51594   2
   0   3  12 9.63531 4.33349   2
   5  -4 -12 41.0555 6.12441   3
   4  -4 -12 -0.3211 2.44896   3
   3  -4 -12 -1.3654 1.99215   3
   2   7 -13 8.25803 4.70997   3
   2   7 -13 4.29451 4.05572   1
  -2  -7  13 7.99500 6.06747   1
   1   7 -13 37.4323 8.27479   3
   1   7 -13 41.8858 9.40333   1
  -1  -7  13 28.7537 7.98023   1
   0  -7  13 1.14178 4.70708   1
   4   6 -13 8.29601 5.21696   1
   3   6 -13 0.76847 3.45741   1
   3   6 -13 1.18264 3.09870   3
  -3  -6  13 4.88544 4.37930   1
   2   6 -13 17.5856 6.20174   1
   2   6 -13 25.0879 6.79118   3
  -2  -6  13 15.1484 6.63254   1
   1   6 -13 8.57032 3.80710   3
  -1  -6  13 7.94236 5.11663   1
   0  -6  13 16.9003 6.47421   1
   1  -6  13 1.57346 3.59602   1
   4   5 -13 29.9086 7.61787   1
   4   5 -13 29.8015 6.44959   3
  -4  -5  13 27.0619 7.28667   1
   3   5 -13 2.44970 3.19410   3
   3   5 -13 10.0671 5.19177   1
  -3  -5  13 -3.7836 2.59612   1
   2   5 -13 13.7459 4.85820   3
  -2  -5  13 19.2861 6.22083   1
   1   5 -13 8.45176 4.20022   3
  -1  -5  13 12.9494 5.20107   1
   0  -5  13 6.53062 4.25780   1
   0  -5  13 8.64329 3.67452   2
   1  -5  13 10.2599 5.05046   1
   1  -5  13 14.3216 4.98207   2
   5   4 -13 4.19047 3.52616   3
  -5  -4  13 4.03326 4.08547   1
   4   4 -13 13.4981 4.27193   3
  -4  -4  13 31.0809 7.32025   1
   3   4 -13 2.62427 2.86955   3
  -3  -4  13 1.40764 3.79080   1
   2   4 -13 5.22504 3.48512   3
  -2  -4  13 2.04725 3.54497   1
   1   4 -13 -4.0366 1.71327   3
  -1  -4  13 1.34018 3.09530   1
   0  -4  13 -0.7877 2.67130   1
   0  -4  13 1.39101 2.65244   2
   1  -4  13 -0.6465 2.82975   2
   1  -4  13 -0.2810 2.84497   1
   5   3 -13 1.10218 2.80852   3
  -5  -3  13 3.58081 3.95484   1
   4   3 -13 3.33691 2.96178   3
  -4  -3  13 9.89929 4.73558   1
   3   3 -13 -0.3135 2.34873   3
  -3  -3  13 2.16919 3.34202   1
   2   3 -13 -1.6099 2.04116   3
  -2  -3  13 4.29729 4.05026   1
  -1  -3  13 22.0736 5.73816   1
  -1  -3  13 29.1162 5.37931   2
   0  -3  13 2.44243 2.94374   1
   0  -3  13 4.44361 3.20255   2
   1  -3  13 16.2159 5.16493   2
   1  -3  13 18.3649 5.01726   1
   5   2 -13 19.0203 4.96850   3
  -5  -2  13 31.2171 7.20983   1
   4   2 -13 4.87875 3.15976   3
  -4  -2  13 9.90259 4.31657   1
   3   2 -13 47.2084 7.25618   3
  -3  -2  13 53.5652 8.31617   1
   2   2 -13 1.90156 2.80127   3
  -2  -2  13 3.76933 3.13802   1
  -1  -2  13 4.89232 2.89537   2
  -1  -2  13 3.82142 3.07837   1
   0  -2  13 1.19129 2.83144   2
   0  -2  13 3.61931 2.58959   1
   1  -2  13 -2.4857 3.19424   2
   1  -2  13 -0.5896 1.88191   1
   5   1 -13 2.58347 2.76522   3
  -5  -1  13 0.24652 3.08764   1
   4   1 -13 4.52562 3.03623   3
  -4  -1  13 3.86147 3.16134   1
   3   1 -13 11.3405 3.98081   3
  -3  -1  13 8.11940 3.81596   1
   2   1 -13 5.91818 3.15019   3
  -2  -1  13 1.82658 2.56806   1
  -1  -1  13 21.8986 3.76960   1
  -1  -1  13 18.3566 4.51933   2
   0  -1  13 2.98278 2.89170   2
   1  -1  13 7.57006 4.47784   2
   5   0 -13 35.7459 6.31419   3
  -5   0  13 51.7960 8.04935   1
   4   0 -13 6.71583 3.17549   3
  -4   0  13 5.11312 3.17675   1
   3   0 -13 4.88698 2.98257   3
  -3   0  13 2.39915 2.40210   1
   2   0 -13 -3.1948 2.09487   3
  -2   0  13 -1.0124 1.85879   2
  -1   0  13 4.50425 2.99560   2
   0   0  13 1.79456 2.64185   2
   5  -1 -13 2.78782 3.10671   3
  -5   1  13 1.87412 3.20981   1
   4  -1 -13 56.4235 7.21042   3
  -4   1  13 48.6001 5.54474   1
   3  -1 -13 49.9679 6.76656   3
   2  -1 -13 8.84211 3.48483   3
  -2   1  13 5.04779 2.93197   2
  -1   1  13 4.63113 3.29388   2
   0   1  13 4.00054 3.21207   2
   5  -2 -13 1.08850 2.81709   3
   4  -2 -13 22.6643 4.74017   3
   3  -2 -13 27.7037 5.02678   3
   2  -2 -13 -2.0013 2.11664   3
  -2   2  13 1.56412 2.79905   2
  -1   2  13 -0.3065 2.81848   2
   4  -3 -13 61.5927 7.19707   3
   3  -3 -13 -3.9198 2.15851   3
   3   5 -14 2.08401 2.78066   3
  -3  -5  14 5.93590 4.88271   1
   2   5 -14 21.4734 6.31861   3
  -2  -5  14 28.7441 7.55752   1
   1   5 -14 4.48954 3.95496   3
  -1  -5  14 2.34738 4.34706   1
   3   4 -14 29.4011 6.56137   3
  -3  -4  14 11.1428 5.14306   1
   2   4 -14 10.8010 4.44738   3
  -2  -4  14 11.4412 5.00762   1
   1   4 -14 20.8362 6.34392   3
  -1  -4  14 14.7646 5.42729   1
   0  -4  14 3.27252 4.24302   1
   4   3 -14 13.9858 4.45538   3
  -4  -3  14 6.81119 4.58260   1
   3   3 -14 38.4589 7.05514   3
  -3  -3  14 50.2644 9.26542   1
   2   3 -14 35.1198 6.90054   3
  -2  -3  14 28.4087 6.68658   1
   1   3 -14 5.47584 3.33950   3
  -1  -3  14 7.49803 3.94365   1
   0  -3  14 17.4004 5.26799   1
   0  -3  14 16.0036 5.03716   2
   4   2 -14 21.9516 5.31607   3
  -4  -2  14 33.1153 7.02105   1
   3   2 -14 10.2234 3.82262   3
  -3  -2  14 0.28803 2.99697   1
   2   2 -14 25.7932 5.78905   3
  -2  -2  14 17.3484 5.07525   1
  -1  -2  14 25.3262 5.44609   1
   0  -2  14 25.8810 5.95158   2
   0  -2  14 23.1646 4.24001   1
   4   1 -14 3.07186 2.94685   3
  -4  -1  14 13.6675 4.77345   1
   3   1 -14 17.8994 4.76247   3
  -3  -1  14 3.95823 3.13526   1
   2   1 -14 1.34968 2.89929   3
  -2  -1  14 2.48380 2.49363   1
  -1  -1  14 11.2849 4.91207   2
   4   0 -14 8.79345 3.66160   3
  -4   0  14 5.93543 3.45504   1
   3   0 -14 -3.0615 2.12064   3
   2   0 -14 12.7339 4.27842   3
  -1   0  14 31.5848 6.11683   2
   3  -1 -14 2.58214 2.46122   3
   0   0   0    0.00    0.00   0

 _exptl_absorpt_process_details 'SADABS 2014/4'
 _exptl_absorpt_correction_type   multiscan
 _exptl_absorpt_correction_T_max  0.9485
 _exptl_absorpt_correction_T_min  0.8742
 _exptl_special_details
)
 The following wavelength and cell were deduced by SADABS from the
 direction cosines etc. They are given here for emergency use only:
 CELL 0.71084    7.037    9.845   11.711  101.730  105.315  103.952
)

;
_shelx_hkl_checksum              4659
loop_
_space_group_symop_operation_xyz
'x, y, z'
'-x, -y, -z'
loop_
_atom_site_label
_atom_site_type_symbol
_atom_site_fract_x
_atom_site_fract_y
_atom_site_fract_z
_atom_site_U_iso_or_equiv
_atom_site_adp_type
_atom_site_occupancy
_atom_site_site_symmetry_order
_atom_site_calc_flag
_atom_site_refinement_flags_posn
_atom_site_refinement_flags_adp
O1 O 0.0184(3) 0.77541(18) 0.59279(13) 0.0700(5) Uani 1 1 d . .
O2 O 0.3645(3) 0.70114(17) 0.65665(14) 0.0676(5) Uani 1 1 d . .
C1 C -0.1518(5) 0.8281(3) 0.5562(2) 0.0869(9) Uani 1 1 d . .
H18 H -0.2647 0.7768 0.5784 0.130 Uiso 1 1 calc R U
H3 H -0.1953 0.8124 0.4683 0.130 Uiso 1 1 calc R U
H1 H -0.1110 0.9308 0.5970 0.130 Uiso 1 1 calc R U
C2 C 0.1066(3) 0.7916(2) 0.71600(18) 0.0485(5) Uani 1 1 d . .
C3 C 0.2846(3) 0.7487(2) 0.74730(18) 0.0459(5) Uani 1 1 d . .
C4 C 0.3844(3) 0.76237(19) 0.87034(17) 0.0417(5) Uani 1 1 d . .
C5 C 0.3090(3) 0.82123(19) 0.96220(17) 0.0400(5) Uani 1 1 d . .
C6 C 0.4565(3) 0.8339(2) 1.08714(17) 0.0424(5) Uani 1 1 d . .
H7 H 0.5296 0.9381 1.1288 0.051 Uiso 1 1 calc R U
C7 C 0.3610(3) 0.7696(2) 1.17350(17) 0.0421(5) Uani 1 1 d . .
C8 C 0.3852(3) 0.8550(3) 1.28929(19) 0.0607(6) Uani 1 1 d . .
H11 H 0.4584 0.9543 1.3139 0.073 Uiso 1 1 calc R U
C9 C 0.3017(4) 0.7941(4) 1.3685(2) 0.0809(8) Uani 1 1 d . .
H10 H 0.3203 0.8524 1.4463 0.097 Uiso 1 1 calc R U
C10 C 0.1930(4) 0.6502(4) 1.3335(3) 0.0814(9) Uani 1 1 d . .
H2 H 0.1368 0.6100 1.3872 0.098 Uiso 1 1 calc R U
C11 C 0.0315(3) 0.8472(2) 0.80745(19) 0.0503(5) Uani 1 1 d . .
H17 H -0.0879 0.8746 0.7860 0.060 Uiso 1 1 calc R U
C12 C 0.1333(3) 0.8623(2) 0.93043(18) 0.0464(5) Uani 1 1 d . .
H16 H 0.0826 0.9001 0.9913 0.056 Uiso 1 1 calc R U
C13 C 0.3432(5) 0.5524(3) 0.6246(2) 0.0828(8) Uani 1 1 d . .
H6 H 0.3823 0.5225 0.6982 0.124 Uiso 1 1 calc R U
H4 H 0.4313 0.5347 0.5769 0.124 Uiso 1 1 calc R U
H5 H 0.2012 0.4977 0.5765 0.124 Uiso 1 1 calc R U
C14 C 0.5703(3) 0.7290(2) 0.93001(19) 0.0504(6) Uani 1 1 d . .
H15 H 0.6489 0.6885 0.8890 0.060 Uiso 1 1 calc R U
C15 C 0.6115(3) 0.7650(2) 1.0522(2) 0.0489(5) Uani 1 1 d . .
C16 C 0.1653(4) 0.5632(3) 1.2191(3) 0.0716(7) Uani 1 1 d . .
H9 H 0.0902 0.4644 1.1953 0.086 Uiso 1 1 calc R U
C17 C 0.2492(3) 0.6228(2) 1.1389(2) 0.0553(6) Uani 1 1 d . .
H8 H 0.2303 0.5636 1.0614 0.066 Uiso 1 1 calc R U
C18 C 0.7830(3) 0.7469(3) 1.1478(2) 0.0696(7) Uani 1 1 d . .
H14 H 0.8781 0.7170 1.1105 0.104 Uiso 1 1 calc R U
H13 H 0.7269 0.6738 1.1838 0.104 Uiso 1 1 calc R U
H12 H 0.8550 0.8382 1.2110 0.104 Uiso 1 1 calc R U
loop_
_atom_site_aniso_label
_atom_site_aniso_U_11
_atom_site_aniso_U_22
_atom_site_aniso_U_33
_atom_site_aniso_U_23
_atom_site_aniso_U_13
_atom_site_aniso_U_12
O1 0.0812(11) 0.0862(12) 0.0445(9) 0.0225(9) 0.0127(8) 0.0354(9)
O2 0.0982(12) 0.0725(11) 0.0566(10) 0.0251(9) 0.0479(9) 0.0399(9)
C1 0.097(2) 0.105(2) 0.0602(16) 0.0321(15) 0.0056(14) 0.0509(16)
C2 0.0568(12) 0.0495(12) 0.0419(12) 0.0192(10) 0.0158(9) 0.0172(9)
C3 0.0582(12) 0.0456(11) 0.0427(11) 0.0164(9) 0.0257(9) 0.0184(9)
C4 0.0481(10) 0.0412(11) 0.0461(12) 0.0194(9) 0.0241(9) 0.0173(8)
C5 0.0467(10) 0.0372(10) 0.0426(11) 0.0169(9) 0.0198(8) 0.0147(8)
C6 0.0455(10) 0.0393(10) 0.0450(11) 0.0150(9) 0.0166(9) 0.0132(8)
C7 0.0428(10) 0.0492(12) 0.0411(11) 0.0192(9) 0.0145(8) 0.0204(9)
C8 0.0611(13) 0.0734(16) 0.0431(13) 0.0115(12) 0.0154(10) 0.0196(11)
C9 0.0749(17) 0.134(3) 0.0454(14) 0.0334(16) 0.0261(12) 0.0392(18)
C10 0.0671(16) 0.141(3) 0.0740(18) 0.0736(19) 0.0390(14) 0.0470(17)
C11 0.0514(11) 0.0546(12) 0.0553(13) 0.0232(11) 0.0199(10) 0.0260(10)
C12 0.0542(11) 0.0477(11) 0.0483(12) 0.0175(10) 0.0253(9) 0.0229(9)
C13 0.115(2) 0.0779(18) 0.0730(18) 0.0156(15) 0.0505(16) 0.0446(16)
C14 0.0509(11) 0.0577(13) 0.0561(13) 0.0226(11) 0.0277(10) 0.0246(10)
C15 0.0426(10) 0.0540(12) 0.0572(13) 0.0244(10) 0.0197(9) 0.0171(9)
C16 0.0671(15) 0.0764(16) 0.098(2) 0.0572(16) 0.0393(14) 0.0294(12)
C17 0.0609(13) 0.0521(13) 0.0626(14) 0.0237(11) 0.0277(11) 0.0209(10)
C18 0.0533(13) 0.0937(18) 0.0729(16) 0.0388(14) 0.0189(12) 0.0324(12)
loop_
_atom_type_symbol
_atom_type_description
_atom_type_scat_dispersion_real
_atom_type_scat_dispersion_imag
_atom_type_scat_source
C C 0.0033 0.0016 'International Tables Vol C Tables 4.2.6.8 and 6.1.1.4'
H H 0.0000 0.0000 'International Tables Vol C Tables 4.2.6.8 and 6.1.1.4'
O O 0.0106 0.0060 'International Tables Vol C Tables 4.2.6.8 and 6.1.1.4'
loop_
_geom_angle_atom_site_label_1
_geom_angle_atom_site_label_2
_geom_angle_atom_site_label_3
_geom_angle
C2 O1 C1 118.26(18)
C3 O2 C13 116.03(17)
O1 C1 H18 109.5
O1 C1 H3 109.5
H18 C1 H3 109.5
O1 C1 H1 109.5
H18 C1 H1 109.5
H3 C1 H1 109.5
O1 C2 C11 124.43(19)
O1 C2 C3 115.49(18)
C11 C2 C3 120.08(18)
O2 C3 C4 121.13(18)
O2 C3 C2 119.59(18)
C4 C3 C2 119.19(17)
C3 C4 C5 120.16(17)
C3 C4 C14 131.51(17)
C5 C4 C14 108.31(16)
C12 C5 C4 120.19(17)
C12 C5 C6 131.14(17)
C4 C5 C6 108.59(16)
C7 C6 C5 116.64(15)
C7 C6 C15 114.26(15)
C5 C6 C15 102.17(16)
C7 C6 H7 107.8
C5 C6 H7 107.8
C15 C6 H7 107.8
C17 C7 C8 118.38(19)
C17 C7 C6 120.38(17)
C8 C7 C6 121.24(18)
C9 C8 C7 120.7(2)
C9 C8 H11 119.7
C7 C8 H11 119.7
C10 C9 C8 120.3(2)
C10 C9 H10 119.8
C8 C9 H10 119.8
C9 C10 C16 120.3(2)
C9 C10 H2 119.8
C16 C10 H2 119.8
C12 C11 C2 120.48(18)
C12 C11 H17 119.8
C2 C11 H17 119.8
C5 C12 C11 119.88(17)
C5 C12 H16 120.1
C11 C12 H16 120.1
O2 C13 H6 109.5
O2 C13 H4 109.5
H6 C13 H4 109.5
O2 C13 H5 109.5
H6 C13 H5 109.5
H4 C13 H5 109.5
C15 C14 C4 110.08(17)
C15 C14 H15 125.0
C4 C14 H15 125.0
C14 C15 C18 128.1(2)
C14 C15 C6 110.68(17)
C18 C15 C6 121.18(19)
C10 C16 C17 120.0(2)
C10 C16 H9 120.0
C17 C16 H9 120.0
C7 C17 C16 120.4(2)
C7 C17 H8 119.8
C16 C17 H8 119.8
C15 C18 H14 109.5
C15 C18 H13 109.5
H14 C18 H13 109.5
C15 C18 H12 109.5
H14 C18 H12 109.5
H13 C18 H12 109.5
loop_
_geom_bond_atom_site_label_1
_geom_bond_atom_site_label_2
_geom_bond_distance
O1 C2 1.369(2)
O1 C1 1.414(3)
O2 C3 1.380(2)
O2 C13 1.394(3)
C1 H18 0.9600
C1 H3 0.9600
C1 H1 0.9600
C2 C11 1.388(3)
C2 C3 1.397(3)
C3 C4 1.387(3)
C4 C5 1.405(2)
C4 C14 1.455(3)
C5 C12 1.372(3)
C5 C6 1.513(3)
C6 C7 1.512(2)
C6 C15 1.515(3)
C6 H7 0.9800
C7 C17 1.382(3)
C7 C8 1.385(3)
C8 C9 1.381(3)
C8 H11 0.9300
C9 C10 1.353(4)
C9 H10 0.9300
C10 C16 1.371(4)
C10 H2 0.9300
C11 C12 1.386(3)
C11 H17 0.9300
C12 H16 0.9300
C13 H6 0.9600
C13 H4 0.9600
C13 H5 0.9600
C14 C15 1.334(3)
C14 H15 0.9300
C15 C18 1.486(3)
C16 C17 1.386(3)
C16 H9 0.9300
C17 H8 0.9300
C18 H14 0.9600
C18 H13 0.9600
C18 H12 0.9600
