#------------------------------------------------------------------------------
#$Date: 2017-03-04 16:21:53 +0200 (Sat, 04 Mar 2017) $
#$Revision: 193598 $
#$URL: file:///home/coder/svn-repositories/cod/cif/4/03/21/4032142.cif $
#------------------------------------------------------------------------------
#
# This file is available in the Crystallography Open Database (COD),
# http://www.crystallography.net/
#
# All data on this site have been placed in the public domain by the
# contributors.
#
data_4032142
loop_
_publ_author_name
'He, Zhen'
'Qi, Xiaotian'
'She, Zhijie'
'Zhao, Yinsong'
'Li, Shiqing'
'Tang, Junbin'
'Gao, Ge'
'Lan, Yu'
'You, Jingsong'
_publ_section_title
;
 Room-Temperature Coupling/Decarboxylation Reaction of \a-Oxocarboxylates
 with \a-Bromoketones: Solvent-Controlled Regioselectivity for 1,2- and
 1,3-Diketones.
;
_journal_issue                   3
_journal_name_full               'The Journal of organic chemistry'
_journal_page_first              1403
_journal_page_last               1411
_journal_paper_doi               10.1021/acs.joc.6b02575
_journal_volume                  82
_journal_year                    2017
_chemical_formula_moiety         'C17 H14 O4'
_chemical_formula_sum            'C17 H14 O4'
_chemical_formula_weight         282.28
_space_group_crystal_system      triclinic
_space_group_IT_number           2
_space_group_name_Hall           '-P 1'
_space_group_name_H-M_alt        'P -1'
_symmetry_space_group_name_Hall  '-P 1'
_symmetry_space_group_name_H-M   'P -1'
_atom_sites_solution_hydrogens   geom
_audit_creation_date             2016-01-15
_audit_creation_method
;
Olex2 1.2
(compiled 2015.09.30 svn.r3233 for OlexSys, GUI svn.r5103)
;
_cell_angle_alpha                64.850(7)
_cell_angle_beta                 84.832(6)
_cell_angle_gamma                67.071(7)
_cell_formula_units_Z            2
_cell_length_a                   9.1540(7)
_cell_length_b                   9.2199(7)
_cell_length_c                   10.1419(7)
_cell_measurement_reflns_used    2661
_cell_measurement_temperature    293
_cell_measurement_theta_max      71.3820
_cell_measurement_theta_min      4.8390
_cell_volume                     710.67(11)
_computing_cell_refinement
;
CrysAlisPro, Agilent Technologies,
Version 1.171.37.33 (release 27-03-2014 CrysAlis171 .NET)
(compiled Mar 27 2014,17:12:48)
;
_computing_data_collection
;
CrysAlisPro, Agilent Technologies,
Version 1.171.37.33 (release 27-03-2014 CrysAlis171 .NET)
(compiled Mar 27 2014,17:12:48)
;
_computing_data_reduction
;
CrysAlisPro, Agilent Technologies,
Version 1.171.37.33 (release 27-03-2014 CrysAlis171 .NET)
(compiled Mar 27 2014,17:12:48)
;
_computing_molecular_graphics    'Olex2 (Dolomanov et al., 2009)'
_computing_publication_material  'Olex2 (Dolomanov et al., 2009)'
_computing_structure_refinement  'ShelXL (Sheldrick, 2015)'
_computing_structure_solution
;
Superflip (Palatinus & Chapuis, 2007;Palatinus & van der Lee, 2008;
Palatinus et al., 2012)
;
_diffrn_ambient_temperature      293
_diffrn_detector                 'CCD plate'
_diffrn_detector_area_resol_mean 15.9595
_diffrn_detector_type            EosS2
_diffrn_measured_fraction_theta_full 1.000
_diffrn_measured_fraction_theta_max 1.000
_diffrn_measurement_details
;
#__ type_ start__ end____ width___ exp.time_
  1 omega   20.00  104.00   1.0000    1.3200
omega____ theta____ kappa____ phi______ frames
    -       36.4171   57.0000  -30.0000 84

#__ type_ start__ end____ width___ exp.time_
  2 omega  -31.00   53.00   1.0000    1.3200
omega____ theta____ kappa____ phi______ frames
    -       36.4171  -57.0000   90.0000 84

#__ type_ start__ end____ width___ exp.time_
  3 omega   20.00  104.00   1.0000    1.3200
omega____ theta____ kappa____ phi______ frames
    -       36.4171   57.0000    0.0000 84

#__ type_ start__ end____ width___ exp.time_
  4 omega    1.00   75.00   1.0000    1.3200
omega____ theta____ kappa____ phi______ frames
    -       36.4171  -99.0000 -180.0000 74

#__ type_ start__ end____ width___ exp.time_
  5 omega   23.00   90.00   1.0000    1.3200
omega____ theta____ kappa____ phi______ frames
    -       36.4171 -125.0000    0.0000 67

#__ type_ start__ end____ width___ exp.time_
  6 omega  -31.00   53.00   1.0000    1.3200
omega____ theta____ kappa____ phi______ frames
    -       36.4171  -57.0000 -180.0000 84

#__ type_ start__ end____ width___ exp.time_
  7 omega   18.00  106.00   1.0000    1.3200
omega____ theta____ kappa____ phi______ frames
    -       36.4171   38.0000  -60.0000 88

#__ type_ start__ end____ width___ exp.time_
  8 omega  -31.00   63.00   1.0000    1.3200
omega____ theta____ kappa____ phi______ frames
    -       36.4171  -77.0000   60.0000 94

#__ type_ start__ end____ width___ exp.time_
  9 omega   38.00   91.00   1.0000    5.2700
omega____ theta____ kappa____ phi______ frames
    -      108.0000  -30.0000  -30.0000 53

#__ type_ start__ end____ width___ exp.time_
 10 omega   39.00  109.00   1.0000    5.2700
omega____ theta____ kappa____ phi______ frames
    -      108.0000  -94.0000   60.0000 70

#__ type_ start__ end____ width___ exp.time_
 11 omega   38.00   91.00   1.0000    5.2700
omega____ theta____ kappa____ phi______ frames
    -      108.0000  -30.0000  -90.0000 53

#__ type_ start__ end____ width___ exp.time_
 12 omega   40.00   98.00   1.0000    5.2700
omega____ theta____ kappa____ phi______ frames
    -      108.0000  -45.0000  -30.0000 58

#__ type_ start__ end____ width___ exp.time_
 13 omega   90.00  175.00   1.0000    5.2700
omega____ theta____ kappa____ phi______ frames
    -      108.0000   61.0000  -30.0000 85

#__ type_ start__ end____ width___ exp.time_
 14 omega   38.00   91.00   1.0000    5.2700
omega____ theta____ kappa____ phi______ frames
    -      108.0000  -30.0000   60.0000 53

#__ type_ start__ end____ width___ exp.time_
 15 omega   38.00   91.00   1.0000    5.2700
omega____ theta____ kappa____ phi______ frames
    -      108.0000  -30.0000  150.0000 53

#__ type_ start__ end____ width___ exp.time_
 16 omega   39.00  109.00   1.0000    5.2700
omega____ theta____ kappa____ phi______ frames
    -      108.0000  -94.0000  150.0000 70

#__ type_ start__ end____ width___ exp.time_
 17 omega   37.00  146.00   1.0000    5.2700
omega____ theta____ kappa____ phi______ frames
    -      108.0000  -15.0000 -120.0000 109

#__ type_ start__ end____ width___ exp.time_
 18 omega  100.00  178.00   1.0000    5.2700
omega____ theta____ kappa____ phi______ frames
    -      108.0000  111.0000    0.0000 78

#__ type_ start__ end____ width___ exp.time_
 19 omega   39.00  109.00   1.0000    5.2700
omega____ theta____ kappa____ phi______ frames
    -      108.0000  -94.0000 -150.0000 70

#__ type_ start__ end____ width___ exp.time_
 20 omega   38.00   91.00   1.0000    5.2700
omega____ theta____ kappa____ phi______ frames
    -      108.0000  -30.0000   90.0000 53

#__ type_ start__ end____ width___ exp.time_
 21 omega   40.00   98.00   1.0000    5.2700
omega____ theta____ kappa____ phi______ frames
    -      108.0000  -45.0000   30.0000 58

#__ type_ start__ end____ width___ exp.time_
 22 omega   39.00  109.00   1.0000    5.2700
omega____ theta____ kappa____ phi______ frames
    -      108.0000  -94.0000  -30.0000 70

#__ type_ start__ end____ width___ exp.time_
 23 omega   38.00   91.00   1.0000    5.2700
omega____ theta____ kappa____ phi______ frames
    -      108.0000  -30.0000 -150.0000 53

#__ type_ start__ end____ width___ exp.time_
 24 omega   39.00  109.00   1.0000    5.2700
omega____ theta____ kappa____ phi______ frames
    -      108.0000  -94.0000  -60.0000 70

#__ type_ start__ end____ width___ exp.time_
 25 omega   90.00  175.00   1.0000    5.2700
omega____ theta____ kappa____ phi______ frames
    -      108.0000   61.0000 -120.0000 85

#__ type_ start__ end____ width___ exp.time_
 26 omega   20.00  104.00   1.0000    1.3200
omega____ theta____ kappa____ phi______ frames
    -       36.4171   57.0000 -150.0000 84

#__ type_ start__ end____ width___ exp.time_
 27 omega   20.00  104.00   1.0000    1.3200
omega____ theta____ kappa____ phi______ frames
    -       36.4171   57.0000   90.0000 84

#__ type_ start__ end____ width___ exp.time_
 28 omega  -33.00   55.00   1.0000    1.3200
omega____ theta____ kappa____ phi______ frames
    -       36.4171  -38.0000  -90.0000 88

#__ type_ start__ end____ width___ exp.time_
 29 omega   10.00  104.00   1.0000    1.3200
omega____ theta____ kappa____ phi______ frames
    -       36.4171   77.0000   30.0000 94

#__ type_ start__ end____ width___ exp.time_
 30 omega   10.00  104.00   1.0000    1.3200
omega____ theta____ kappa____ phi______ frames
    -       36.4171   77.0000 -120.0000 94

#__ type_ start__ end____ width___ exp.time_
 31 omega   10.00   85.00   1.0000    1.3200
omega____ theta____ kappa____ phi______ frames
    -       36.4171   77.0000  150.0000 75

#__ type_ start__ end____ width___ exp.time_
 32 omega   10.00  104.00   1.0000    1.3200
omega____ theta____ kappa____ phi______ frames
    -       36.4171   77.0000  120.0000 94
;
_diffrn_measurement_device       'four-circle diffractometer'
_diffrn_measurement_device_type  'New Gemini, Dual, Cu at zero, EosS2'
_diffrn_measurement_method       '\w scans'
_diffrn_orient_matrix_UB_11      -0.0041316000
_diffrn_orient_matrix_UB_12      -0.1719129000
_diffrn_orient_matrix_UB_13      0.1181064000
_diffrn_orient_matrix_UB_21      0.1602545000
_diffrn_orient_matrix_UB_22      -0.1020067000
_diffrn_orient_matrix_UB_23      -0.0421713000
_diffrn_orient_matrix_UB_31      0.0892628000
_diffrn_orient_matrix_UB_32      0.0146292000
_diffrn_orient_matrix_UB_33      0.1125395000
_diffrn_radiation_monochromator  graphite
_diffrn_radiation_probe          x-ray
_diffrn_radiation_type           CuK\a
_diffrn_radiation_wavelength     1.54184
_diffrn_reflns_av_R_equivalents  0.0276
_diffrn_reflns_av_unetI/netI     0.0218
_diffrn_reflns_Laue_measured_fraction_full 1.000
_diffrn_reflns_Laue_measured_fraction_max 1.000
_diffrn_reflns_limit_h_max       10
_diffrn_reflns_limit_h_min       -9
_diffrn_reflns_limit_k_max       11
_diffrn_reflns_limit_k_min       -10
_diffrn_reflns_limit_l_max       12
_diffrn_reflns_limit_l_min       -11
_diffrn_reflns_number            7561
_diffrn_reflns_point_group_measured_fraction_full 1.000
_diffrn_reflns_point_group_measured_fraction_max 1.000
_diffrn_reflns_theta_full        67.013
_diffrn_reflns_theta_max         67.013
_diffrn_reflns_theta_min         4.837
_diffrn_source                   'Enhance (Cu) X-ray Source'
_exptl_absorpt_coefficient_mu    0.775
_exptl_absorpt_correction_T_max  1.00000
_exptl_absorpt_correction_T_min  0.63982
_exptl_absorpt_correction_type   multi-scan
_exptl_absorpt_process_details
;
CrysAlisPro, Agilent Technologies,
Version 1.171.37.33 (release 27-03-2014 CrysAlis171 .NET)
(compiled Mar 27 2014,17:12:48)
Empirical absorption correction using spherical harmonics,
 implemented in SCALE3 ABSPACK scaling algorithm.
;
_exptl_crystal_density_diffrn    1.319
_exptl_crystal_description       plate
_exptl_crystal_F_000             296
_exptl_crystal_size_max          0.6
_exptl_crystal_size_mid          0.4
_exptl_crystal_size_min          0.1
_refine_diff_density_max         0.176
_refine_diff_density_min         -0.245
_refine_diff_density_rms         0.043
_refine_ls_extinction_method     none
_refine_ls_goodness_of_fit_ref   1.043
_refine_ls_hydrogen_treatment    constr
_refine_ls_matrix_type           full
_refine_ls_number_parameters     191
_refine_ls_number_reflns         2531
_refine_ls_number_restraints     0
_refine_ls_restrained_S_all      1.043
_refine_ls_R_factor_all          0.0602
_refine_ls_R_factor_gt           0.0531
_refine_ls_shift/su_max          0.000
_refine_ls_shift/su_mean         0.000
_refine_ls_structure_factor_coef Fsqd
_refine_ls_weighting_details
'w=1/[\s^2^(Fo^2^)+(0.0950P)^2^+0.0880P] where P=(Fo^2^+2Fc^2^)/3'
_refine_ls_weighting_scheme      calc
_refine_ls_wR_factor_gt          0.1487
_refine_ls_wR_factor_ref         0.1593
_reflns_Friedel_coverage         0.000
_reflns_number_gt                2136
_reflns_number_total             2531
_reflns_threshold_expression     'I > 2\s(I)'
_cod_data_source_file            jo6b02575_si_003.cif
_cod_data_source_block           hz1525b
_cod_depositor_comments          'Adding full bibliography for 4032142.cif.'
_cod_original_cell_volume        710.68(10)
_cod_database_code               4032142
_shelx_space_group_comment
;
The symmetry employed for this shelxl refinement is uniquely defined
by the following loop, which should always be used as a source of
symmetry information in preference to the above space-group names.
They are only intended as comments.
;
_reflns_odcompleteness_completeness 100.00
_reflns_odcompleteness_iscentric 1
_reflns_odcompleteness_theta     66.97
_olex2_refinement_description
;
1. Fixed Uiso
 At 1.2 times of:
  All C(H) groups
 At 1.5 times of:
  All C(H,H,H) groups
2.a Ternary CH refined with riding coordinates:
 C1(H1)
2.b Aromatic/amide H refined with riding coordinates:
 C4(H4), C5(H5), C6(H6), C7(H7), C8(H8), C11(H11), C12(H12), C13(H13),
 C14(H14), C15(H15)
2.c Idealised Me refined as rotating group:
 C17(H17A,H17B,H17C)
;
_shelx_res_file
;
    hz1525b.res created by SHELXL-2014/7

TITL
CELL 1.54184 9.15405 9.219947 10.141892 64.8503 84.8318 67.0713
ZERR 2 0.000658 0.000688 0.000687 0.0069 0.0059 0.007
LATT 1
SFAC C H O
UNIT 34 28 8

L.S. 40
PLAN  20
TEMP 19.85
MORE -1
BOND $H
CONF
fmap 2
acta
SHEL 999 0.837
REM <olex2.extras>
REM <HklSrc "%.\\hz1525b.hkl">
REM </olex2.extras>

WGHT    0.095000    0.088000
FVAR       8.65609
C1    1    0.372641    0.967100    0.184195    11.00000    0.05793    0.06259 =
         0.04824   -0.02207    0.01017   -0.02966
AFIX  13
H1    2    0.471787    0.977832    0.198490    11.00000   -1.20000
AFIX   0
C2    1    0.233246    1.048420    0.254874    11.00000    0.06823    0.05501 =
         0.06270   -0.02684    0.01339   -0.02678
C3    1    0.259344    0.999313    0.412899    11.00000    0.07675    0.06229 =
         0.06393   -0.03616    0.02314   -0.03945
C4    1    0.139691    1.086130    0.479132    11.00000    0.09225    0.08318 =
         0.09248   -0.05788    0.03320   -0.04226
AFIX  43
H4    2    0.045385    1.173210    0.424495    11.00000   -1.20000
AFIX   0
C5    1    0.160911    1.043185    0.625157    11.00000    0.13032    0.12818 =
         0.10272   -0.08803    0.06217   -0.07680
AFIX  43
H5    2    0.081337    1.102711    0.668822    11.00000   -1.20000
AFIX   0
C6    1    0.298348    0.913332    0.707235    11.00000    0.14919    0.13908 =
         0.06668   -0.06195    0.04031   -0.09911
AFIX  43
H6    2    0.311403    0.885116    0.806205    11.00000   -1.20000
AFIX   0
C7    1    0.416974    0.824603    0.644023    11.00000    0.11290    0.10942 =
         0.06260   -0.03808    0.01337   -0.05842
AFIX  43
H7    2    0.509927    0.735920    0.699942    11.00000   -1.20000
AFIX   0
C8    1    0.397055    0.868164    0.496871    11.00000    0.08294    0.07936 =
         0.06169   -0.03626    0.01636   -0.03703
AFIX  43
H8    2    0.477293    0.808516    0.453759    11.00000   -1.20000
AFIX   0
C9    1    0.390233    0.812508    0.164968    11.00000    0.04815    0.06256 =
         0.04026   -0.02221    0.00765   -0.02374
C10   1    0.271588    0.728982    0.211391    11.00000    0.04236    0.05333 =
         0.04493   -0.02416    0.00760   -0.01659
C11   1    0.143058    0.782530    0.116994    11.00000    0.04950    0.05691 =
         0.04557   -0.02433    0.00478   -0.01641
AFIX  43
H11   2    0.127814    0.873608    0.024703    11.00000   -1.20000
AFIX   0
C12   1    0.036987    0.702091    0.158379    11.00000    0.04500    0.07366 =
         0.06644   -0.03654    0.00193   -0.02093
AFIX  43
H12   2   -0.050437    0.740109    0.094497    11.00000   -1.20000
AFIX   0
C13   1    0.059548    0.566446    0.293073    11.00000    0.05277    0.06904 =
         0.08274   -0.02801    0.01155   -0.03003
AFIX  43
H13   2   -0.011027    0.510604    0.320052    11.00000   -1.20000
AFIX   0
C14   1    0.186694    0.513162    0.388152    11.00000    0.06498    0.07643 =
         0.06936   -0.00261    0.00102   -0.03574
AFIX  43
H14   2    0.201596    0.421738    0.480181    11.00000   -1.20000
AFIX   0
C15   1    0.292229    0.594081    0.348231    11.00000    0.05205    0.07518 =
         0.05810   -0.00992   -0.00654   -0.02727
AFIX  43
H15   2    0.377745    0.557887    0.413542    11.00000   -1.20000
AFIX   0
C16   1    0.558017    0.688552    0.166641    11.00000    0.04681    0.06777 =
         0.05368   -0.02684    0.01040   -0.02523
C17   1    0.729273    0.532191    0.043363    11.00000    0.08100    0.08883 =
         0.11946   -0.06597    0.04289   -0.02852
AFIX 137
H17A  2    0.722730    0.502064   -0.035003    11.00000   -1.50000
H17B  2    0.760300    0.429381    0.134070    11.00000   -1.50000
H17C  2    0.806824    0.583070    0.025895    11.00000   -1.50000
AFIX   0
O1    3    0.339276    0.979817    0.043713    11.00000    0.06254    0.06585 =
         0.04492   -0.01869    0.00993   -0.02906
O2    3    0.107111    1.149195    0.184494    11.00000    0.07662    0.08640 =
         0.07739   -0.03305    0.00461   -0.00624
O3    3    0.657769    0.627808    0.262032    11.00000    0.05208    0.14249 =
         0.09004   -0.06278   -0.00863   -0.00524
O4    3    0.574801    0.656420    0.051124    11.00000    0.06728    0.08768 =
         0.07951   -0.05451    0.01454   -0.02037
HKLF 4

REM
REM R1 =  0.0531 for    2136 Fo > 4sig(Fo)  and  0.0602 for all    2531 data
REM    191 parameters refined using      0 restraints

END

WGHT      0.0950      0.0882

REM Highest difference peak  0.176,  deepest hole -0.245,  1-sigma level  0.043
Q1    1   0.2361  0.7253  0.1553  11.00000  0.05    0.18
Q2    1   0.1853  0.8017  0.1719  11.00000  0.05    0.15
Q3    1   0.4803  0.7244 -0.0160  11.00000  0.05    0.15
Q4    1   0.3255  0.6271  0.2637  11.00000  0.05    0.15
Q5    1   0.6135  0.5638  0.2580  11.00000  0.05    0.14
Q6    1   0.2532  0.7091  0.3068  11.00000  0.05    0.14
Q7    1   0.4250  0.4956  0.3922  11.00000  0.05    0.14
Q8    1   0.4260  1.0127 -0.0257  11.00000  0.05    0.13
Q9    1   0.1635  0.8470  0.0085  11.00000  0.05    0.13
Q10   1   0.1777  0.4520  0.5317  11.00000  0.05    0.13
Q11   1   0.2217  0.9021  0.6781  11.00000  0.05    0.13
Q12   1   0.7288  0.4154  0.0576  11.00000  0.05    0.12
Q13   1   0.3486  0.6173  0.4149  11.00000  0.05    0.12
Q14   1   0.1167  0.9190  0.0306  11.00000  0.05    0.12
Q15   1   0.3269  0.7530  0.1766  11.00000  0.05    0.11
Q16   1   0.2238  0.3794  0.4446  11.00000  0.05    0.11
Q17   1   0.4263  0.8599  0.2346  11.00000  0.05    0.10
Q18   1   0.3387  0.9742  0.4423  11.00000  0.05    0.10
Q19   1   0.0484  0.4456  0.3046  11.00000  0.05    0.10
Q20   1   0.7517  0.6041 -0.0934  11.00000  0.05    0.10
;
_shelx_res_checksum              11550
_shelx_hkl_file
;
   0   0   1 7434.69 138.425   8
   0   0  -2 36943.7 544.727   7
   0   0   2 34836.9 295.966  26
   0   0   2 36717.8 451.530   8
   0   0  -2 34829.5 297.123  30
   0   0  -2 36693.3 655.524   1
   0   0  -3 4096.63 272.217   1
   0   0   3 3857.39 182.093   8
   0   0   3 3984.05 250.048  28
   0   0  -3 3661.83 217.676   7
   0   0  -3 4128.34 278.091   3
   0   0   4 108.123 52.5462  28
   0   0  -4 225.364 88.9092   3
   0   0   4 171.676 43.3018   8
   0   0   4 138.828 61.2757   5
   0   0  -4 182.555 85.6387   1
   0   0  -5 8445.55 557.274   1
   0   0  -5 8884.32 580.210   3
   0   0   5 7382.09 475.852  28
   0   0   5 7675.65 456.483   5
   0   0  -6 8972.20 661.358   3
   0   0  -6 9269.65 660.548   1
   0   0   6 8442.68 560.811   5
   0   0   6 8827.20 606.104  28
   0   0  -6 7963.17 586.431  29
   0   0  -7 747.850 212.070   3
   0   0  -7 826.989 231.622   1
   0   0   7 552.294 166.763   5
   0   0   7 830.503 210.599  28
   0   0  -7 569.255 173.251  29
   0   0   8 476.010 81.9666  11
   0   0   8 410.791 76.7743  22
   0   0   8 446.879 75.0133  24
   0   0   9 5856.57 273.710  22
   0   0   9 5520.81 262.684  11
   0   0  10 195.113 43.2237  11
   0   0  10 166.715 38.5469  22
   0   0  11-4.68983 14.0585  22
   0  -1  10-24.1352 14.1569  11
   0  -1   9 642.582 84.8202  11
   0  -1   9 570.317 77.6181  22
   0   1  -8 1322.81 132.243  13
   0  -1   8 1592.05 142.779  22
   0  -1   8 1595.63 143.887  11
   0  -1   7 904.811 107.962  22
   0  -1   7 897.338 107.890  11
   0   1  -6 51.8494 53.6819  29
   0  -1   6 258.101 109.726  28
   0   1  -6 298.442 139.800   3
   0   1  -6 312.575 140.770   1
   0  -1   5 2886.38 336.286  28
   0   1  -5 2734.75 325.977   1
   0   1  -5 3164.65 364.405   3
   0  -1   5 2755.63 289.248   5
   0   1  -5 3066.70 342.509  29
   0  -1   4 4501.50 359.449  28
   0   1  -4 4667.16 375.683   3
   0   1  -4 4380.41 356.778   1
   0  -1   4 4312.48 309.454   5
   0   1  -4 4619.75 360.351  29
   0  -1   4 4421.40 296.320   8
   0  -1   3 69473.2 1044.02   8
   0   1  -3 64459.7 1141.90  29
   0  -1   3 66907.6 875.115  26
   0  -1   3 66633.2 1199.13  28
   0   1  -3 63336.9 1176.21   3
   0  -1   3 65423.1 995.911   5
   0   1  -3 64112.4 1146.74   1
   0  -1   2 64137.6 746.458  26
   0   1  -2 61471.2 934.962   1
   0   1  -2 61528.1 920.835  29
   0  -1   1 201188. 733.988  30
   0   1  -1 198791. 1372.81   1
   0   1   0 71294.8 504.901   4
   0  -1   0 72747.6 546.661  30
   0  -1  -1 45934.0 240.404  31
   0   1   1 44510.6 395.117  27
   0  -1  -2 146664. 989.042  30
   0  -1  -2 145802. 1134.91   7
   0  -1  -3 20620.2 533.409   7
   0   1   3 21330.4 533.942  28
   0  -1  -3 21495.2 428.594  30
   0  -1  -3 21833.1 632.391   1
   0  -1  -4 1705.51 136.741  30
   0  -1  -4 1758.74 184.908   7
   0  -1  -4 1726.03 209.659   1
   0   1   4 1701.84 183.765  28
   0   1   4 1557.75 168.712   5
   0   1   5 4234.65 331.546  28
   0  -1  -5 4743.17 402.052   1
   0   1   5 4424.10 337.064   5
   0  -1  -5 4228.20 378.112   3
   0  -1  -5 4253.09 319.907   7
   0  -1  -6 4582.86 453.240   3
   0   1   6 4298.35 392.462  28
   0   1   6 4087.18 376.096   5
   0  -1  -6 4591.08 446.301   1
   0  -1  -7 59.8772 75.9866   1
   0   1   7 139.951 82.2657  28
   0  -1  -7-16.9185 58.9278   3
   0   1   7 78.2605 66.5796   5
   0   1   8 386.467 72.7329  24
   0   1   8 357.829 69.8460  11
   0   1   9 58.4593 36.6796  22
   0   1   9 150.677 37.7429  24
   0   1   9 99.0919 38.5068  11
   0   1  10 74.0081 28.5183  24
   0   1  10 117.463 39.1366  22
   0   1  11 14.0015 12.3608  22
   0  -2   9 181.863 38.4285  11
   0  -2   8 22.8490 27.0682  11
   0  -2   7 153.986 48.3690  11
   0  -2   7 198.590 50.9061  17
   0  -2   6 1429.24 130.261  11
   0  -2   6 1277.33 122.309  17
   0   2  -5 1211.15 245.016   3
   0   2  -5 1036.16 219.807   1
   0   2  -5 1243.63 231.281  29
   0   2  -4 10858.2 638.892   3
   0  -2   4 12284.3 614.880   8
   0   2  -4 10576.9 596.994   1
   0   2  -4 10575.5 582.952  29
   0  -2   4 10949.8 634.023  28
   0  -2   3 25781.2 858.048  28
   0   2  -3 23947.0 763.314  29
   0  -2   3 27697.2 814.840   8
   0   2  -3 23957.3 778.041   1
   0   2  -3 25422.3 840.156   3
   0  -2   3 24867.4 671.597   5
   0  -2   3 26818.2 723.691  26
   0  -2   2 5249.73 282.197  26
   0  -2   2 4817.77 238.107   5
   0   2  -2 4738.26 317.395   3
   0   2  -2 4311.58 289.037   1
   0   2  -2 4464.42 290.508  29
   0  -2   2 4520.63 312.994  28
   0   2  -1 51659.8 842.650  29
   0  -2   1 50447.8 603.010  30
   0   2  -1 55791.8 921.050   6
   0  -2   1 47652.7 522.886   5
   0   2  -1 51566.3 905.640   3
   0  -2   1 52472.7 801.385  26
   0   2   0 59108.4 662.580   4
   0   2   0 60520.6 783.399  29
   0  -2   0 58669.2 690.653  30
   0   2   1 486018. 1418.40   5
   0   2   1 489877. 2072.26   4
   0   2   1 491455. 1639.58  27
   0  -2  -2 45605.2 326.809  31
   0   2   2 50185.0 749.539   4
   0   2   2 50995.5 662.117   5
   0  -2  -2 48876.8 654.241  26
   0   2   2 45185.9 547.399  27
   0  -2  -3 261055. 1493.02  26
   0   2   3 263775. 1821.39   5
   0  -2  -3 257757. 1803.03  30
   0   2   3 260044. 1988.77   6
   0   2   3 263974. 1856.11  28
   0  -2  -3 265024. 2055.60   7
   0  -2  -4 417.509 92.8725   7
   0  -2  -4 326.978 76.1658  30
   0   2   4 353.367 79.4327   5
   0   2   4 480.369 97.1320  28
   0  -2  -5 2105.45 202.699  30
   0   2   5 2261.44 244.526  28
   0   2   5 2203.39 237.758   5
   0  -2  -5 2259.97 273.464   1
   0  -2  -5 1818.08 222.391   7
   0  -2  -6 11625.4 689.459   3
   0   2   6 11792.1 634.688  28
   0   2   6 11600.6 629.543   5
   0  -2  -6 13826.2 767.874   1
   0  -2  -6 12220.1 627.201   7
   0   2   7 2044.64 302.720  28
   0  -2  -7 2676.80 383.664   1
   0   2   7 2470.05 337.029   5
   0  -2  -7 2550.54 363.262   3
   0   2   8 668.944 92.9484  24
   0   2   8 774.344 97.6585  19
   0   2   8 447.368 150.612  28
   0   2   9 2761.40 190.524  24
   0   2   9 2778.87 190.955  22
   0   2  10 666.142 88.2070  22
   0   2  10 837.490 98.8933  24
   0   2  11 6.69792 12.6749  24
   0   2  11-25.4157 25.6288  22
   0   2  12 99.0500 22.1646  22
   0  -3   9 28.5725 16.6804  12
   0  -3   9 82.1155 25.0089  11
   0  -3   8 724.764 83.6755  11
   0  -3   7 22.5142 23.1818  17
   0  -3   7 67.6283 32.4171  11
   0  -3   6 3629.63 206.661  11
   0  -3   6 3385.63 201.138  17
   0  -3   5 333.526 63.2125  17
   0  -3   5 257.852 55.8908  11
   0   3  -5 149.438 90.8331  29
   0   3  -4 1414.88 240.262  29
   0   3  -4 1483.21 258.823   3
   0  -3   4 1416.32 239.029   8
   0   3  -3 70.2574 77.4299   3
   0   3  -3 45.8384 28.9035  29
   0   3  -3 150.072 85.0285   6
   0  -3   3 92.6595 72.3916   8
   0  -3   3 54.7576 41.0098  26
   0   3  -2 17950.1 707.882   3
   0   3  -2 17932.1 674.222  29
   0  -3   2 18971.4 661.583  26
   0   3  -2 19416.2 727.612   6
   0   3  -1 25534.0 782.654   3
   0  -3   1 24569.6 547.977  30
   0   3  -1 25173.0 697.853  29
   0   3  -1 26371.4 775.662   6
   0   3  -1 23774.0 565.569   4
   0  -3   1 25739.6 707.783  26
   0   3   0 9384.28 374.714  29
   0  -3   0 9511.40 407.284  26
   0   3   0 9684.16 444.360   6
   0   3   0 8305.23 306.406   4
   0   3   0 8610.79 348.439  27
   0   3   0 9309.14 437.400   3
   0  -3   0 8709.35 332.968  30
   0  -3  -1 14955.7 458.282  30
   0   3   1 14605.1 526.800   6
   0   3   1 14191.7 379.673  27
   0   3   1 15587.8 462.084  29
   0   3   1 13979.0 414.003   4
   0  -3  -1 13978.3 474.493  26
   0   3   2 72213.6 770.495  27
   0  -3  -2 79459.4 1109.02  30
   0  -3  -2 75384.5 1059.23  26
   0   3   2 74697.1 825.981   5
   0   3   2 75694.5 1043.64   4
   0   3   2 79877.2 1043.48  29
   0   3   2 74599.1 1167.56   6
   0   3   3 21599.3 649.491   6
   0  -3  -3 22717.8 617.360  30
   0  -3  -3 23072.6 693.257   7
   0   3   3 22761.6 638.751   4
   0   3   3 23394.7 582.952   5
   0   3   4 83020.1 1278.54   5
   0  -3  -4 84921.4 1429.84   7
   0   3   4 83930.1 1235.71  28
   0  -3  -4 83614.2 1125.50  26
   0  -3  -4 87514.9 1297.37  30
   0   3   4 82305.6 1366.04   6
   0  -3  -5 11571.4 521.045  30
   0  -3  -5 11606.2 595.907   7
   0   3   5 10876.3 526.369   5
   0   3   5 9760.80 492.752  28
   0  -3  -6 149.002 82.4588   1
   0  -3  -6 129.541 68.4003  30
   0  -3  -6 14.0906 57.5906   7
   0   3   6-18.9594 50.7718  28
   0   3   6-103.325 65.0761   5
   0   3   7 151.298 62.1403   5
   0  -3  -7 244.049 117.492   1
   0   3   7 52.0949 69.5524  28
   0   3   8 490.106 79.3020  19
   0   3   8 416.153 69.4764  24
   0   3   9 291.581 62.0543  24
   0   3   9 449.980 80.3732  19
   0   3  10 1672.63 139.585  24
   0   3  10 1830.29 153.542  22
   0   3  11 668.889 76.0222  24
   0   3  11 707.199 84.4541  22
   0   3  12-0.38626 14.6533  22
   0   3  12 8.13378 10.4001  24
   0  -4   8 64.4098 24.5443  11
   0  -4   8 81.8756 26.6818  12
   0  -4   7 294.129 54.7277  17
   0  -4   7 301.065 56.4062  11
   0  -4   6 4956.39 234.054  17
   0  -4   6 4980.89 234.220  11
   0  -4   5 3095.53 190.586  17
   0  -4   5 2661.30 176.889  11
   0  -4   4-7.10700 21.9573  11
   0  -4   4 1.63293 21.8456  17
   0  -4   3 393.397 140.092   8
   0   4  -3 508.341 169.077   3
   0   4  -3 261.732 108.820  29
   0   4  -2 3399.05 332.021  29
   0   4  -2 3562.25 375.798   3
   0  -4   2 3760.34 351.431  26
   0   4  -2 3764.43 372.497   6
   0   4  -1 2949.34 321.307   3
   0   4  -1 2944.30 272.398  27
   0  -4   1 3267.52 306.450  26
   0   4  -1 2787.22 267.065  29
   0   4  -1 3185.67 324.202   6
   0   4   0 2880.69 292.822   6
   0  -4   0 2797.43 272.477  26
   0  -4   0 2516.24 217.994  30
   0   4   0 2721.44 240.329  29
   0   4   0 2736.11 234.266  27
   0  -4  -1 11494.7 474.345  30
   0   4   1 11686.2 409.867  27
   0   4   1 12932.0 601.370   6
   0  -4  -1 12490.4 555.188  26
   0   4   1 12300.6 494.831  29
   0  -4  -2 23371.9 734.795  26
   0  -4  -2 21502.0 677.938  30
   0   4   2 20023.4 595.007   4
   0   4   2 22486.4 674.072  29
   0   4   2 21630.9 758.310   6
   0  -4  -3 10546.3 538.274   7
   0   4   3 10464.0 527.359   6
   0  -4  -3 10984.0 496.854  30
   0   4   3 10714.8 475.574   4
   0  -4  -3 11060.0 494.760  26
   0   4   4 50717.2 1192.55   6
   0  -4  -4 54313.9 1105.26  26
   0   4   4 54447.1 1081.91   5
   0  -4  -4 54393.6 1281.00   7
   0  -4  -4 55268.8 1163.37  30
   0   4   5 4917.55 344.622  28
   0   4   5 5346.34 385.247   5
   0  -4  -5 5651.18 440.081   7
   0  -4  -5 5502.38 395.421  30
   0  -4  -6 12655.5 731.709   7
   0   4   6 11837.9 614.296  28
   0   4   6 12221.9 652.449   5
   0  -4  -6 12445.0 651.853  30
   0  -4  -7 6245.99 611.903   1
   0  -4  -7 6535.29 585.288   7
   0   4   7 5862.89 502.637   5
   0   4   8 113.191 39.3750  19
   0   4   8 83.9104 38.1242  18
   0   4   9 378.843 69.5250  19
   0   4   9 412.441 71.0490  24
   0   4  10 25.9580 24.1040  24
   0   4  10 1.68984 28.6519  19
   0   4  10-8.88169 19.4065  22
   0   4  11 1092.18 107.765  22
   0   4  11 1077.22 98.8079  24
   0   4  12 104.229 26.7084  24
   0   4  12 76.3845 21.4108  22
   0  -5   7 34.8805 16.8760  12
   0  -5   7 77.6364 21.1589  17
   0  -5   6 418.351 60.6624  17
   0  -5   6 437.134 66.9857  11
   0  -5   5 125.202 40.4760  17
   0  -5   5 162.809 44.9465  11
   0  -5   4 23.7760 21.7080  11
   0  -5   4 27.7196 28.7557  17
   0  -5   3 327.878 64.2279  17
   0  -5   3 286.843 61.9807  11
   0  -5   2 151.887 84.1060   8
   0  -5   2 26.2659 38.9845  26
   0  -5   2 156.648 45.9492  11
   0  -5   2 176.625 44.1494  17
   0   5  -1 2022.61 297.143   6
   0  -5   1 1712.12 266.220  26
   0   5  -1 1703.53 239.305  29
   0   5   0 1483.90 209.454  29
   0   5   0 1290.50 224.518   6
   0  -5   0 1312.97 215.095  26
   0  -5  -1 8011.97 465.553  30
   0  -5  -1 9598.72 573.996  26
   0   5   1 9230.68 595.388   6
   0   5   1 9184.71 502.560  29
   0  -5  -2 55.9717 31.2761  30
   0  -5  -2 97.6243 57.6320  26
   0   5   2-3.36172 47.7120  29
   0   5   2 136.704 49.9874   6
   0  -5  -3 16072.0 709.098  26
   0  -5  -3 17222.6 723.435  30
   0   5   3 16086.1 766.663   6
   0  -5  -3 15661.6 744.518   7
   0   5   4 16239.8 777.231   6
   0  -5  -4 16683.4 714.191  26
   0  -5  -4 17051.8 736.166  30
   0  -5  -4 16755.7 801.955   7
   0  -5  -5 4951.96 449.129   7
   0  -5  -5 5476.26 430.376  30
   0   5   5 5327.39 452.990   6
   0  -5  -6 967.521 215.157   7
   0  -5  -6 671.437 171.467  30
   0  -5  -7 1539.60 284.456   7
   0  -5  -7 2466.12 388.758   1
   0  -5  -7 1902.04 301.454  30
   0   5   7 2072.99 153.424  16
   0   5   8 128.879 43.6695  18
   0   5   8 140.261 49.5109  19
   0   5   9 29.6449 22.8190  19
   0   5   9 59.6968 34.9652  24
   0   5   9 101.263 39.3492  18
   0   5  10 126.481 41.8404  19
   0   5  10 180.904 48.1480  22
   0   5  10 146.120 45.5667  24
   0   5  11 1697.36 125.677  24
   0   5  11 1550.08 118.615  22
   0   5  12 477.013 54.7782  24
   0   5  12 399.492 45.6410  22
   0  -6   6-1.56273 13.5770  12
   0  -6   6-16.7010 18.3440   9
   0  -6   6 4.98344 13.2401  17
   0  -6   5 1054.54 92.5039  12
   0  -6   5 1190.97 100.421  17
   0  -6   4 406.658 67.6156  17
   0  -6   4 324.286 56.9997  12
   0  -6   4 462.974 76.1855  11
   0  -6   3 893.147 104.243  17
   0  -6   3 946.014 113.395  11
   0  -6   2 31.8340 28.0443  11
   0  -6   2 12.5479 23.2933  17
   0  -6   1 1048.06 111.593  17
   0  -6   1 1056.01 119.207  11
   0   6   0 2844.36 333.313  29
   0  -6   0 3013.77 379.661  26
   0  -6   0 2888.31 185.925  17
   0   6   0 3194.50 210.818  20
   0   6   0 2690.32 180.476  13
   0   6   1 3204.32 396.073   6
   0   6   1 3058.82 338.526  29
   0  -6  -1 3044.87 372.091  26
   0   6   2 5295.62 505.470   6
   0  -6  -2 5162.27 437.672  30
   0  -6  -2 5717.94 503.255  26
   0  -6  -2 4361.83 430.580   7
   0  -6  -3 1303.82 221.957  30
   0  -6  -3 1178.52 228.358  26
   0  -6  -3 1020.67 211.078   7
   0   6   3 1405.58 263.187   6
   0  -6  -4 2129.41 293.302  30
   0   6   4 2400.09 343.357   6
   0  -6  -4 2092.90 314.152   7
   0  -6  -4 2105.49 290.528  26
   0  -6  -5 6634.06 579.295   7
   0  -6  -5 6511.08 517.186  30
   0   6   5 5891.62 534.636   6
   0   6   6 386.808 68.4425  15
   0   6   6 450.863 73.9170  18
   0  -6  -6 561.057 175.941   7
   0   6   6 481.218 77.0216  16
   0  -6  -6 373.595 122.154  30
   0   6   7 13.2568 21.2093  15
   0   6   7-2.23772 15.3428  19
   0   6   7-9.32027 29.9105  18
   0   6   8 1600.87 144.049  19
   0   6   8 1701.33 147.062  18
   0   6   9 3035.77 190.006  18
   0   6   9 3103.97 196.464  19
   0   6   9 3254.00 206.586  24
   0   6  10 2770.66 171.733  19
   0   6  10 2648.28 164.457  18
   0   6  10 3168.82 191.326  24
   0   6  11 3.95297 20.9833  24
   0   6  12 1476.05 93.3923  24
   0  -7   4 276.494 48.2733  17
   0  -7   4 183.411 39.9283   9
   0  -7   3 641.132 83.3535  17
   0  -7   3 679.472 82.1844   9
   0  -7   2 1383.13 127.331  17
   0  -7   1 205.728 53.2661  17
   0  -7   0 976.549 115.812  17
   0   7   0 1012.05 113.283  13
   0   7   1 80.4097 38.2403  13
   0  -7  -1 103.349 40.1262  17
   0   7   2 731.041 98.1991  18
   0   7   2 582.454 91.2251  15
   0  -7  -2 571.431 89.6998  17
   0   7   2 552.722 86.7059  13
   0  -7  -3 563.598 88.9609  17
   0   7   3 618.188 94.6675  15
   0   7   3 762.479 99.2429  18
   0   7   3 736.756 101.735  13
   0   7   4 52.8852 31.9216  13
   0   7   4 43.6476 23.6582  15
   0   7   4 53.6295 29.8560  18
   0   7   5 2103.12 162.033  18
   0   7   5 2230.70 177.872  15
   0   7   6 4385.53 238.749  18
   0   7   6 4302.61 241.033  15
   0   7   7 5295.44 264.767  15
   0   7   7 5490.08 268.598  18
   0   7   8 716.286 97.4903  18
   0   7   8 646.144 90.0068  15
   0   7   9 45.7855 34.3218  24
   0   7   9-17.2689 18.9410  18
   0   7  10 138.645 38.0807  24
   0   7  10 88.3701 27.7258  18
   0   7  10 145.940 40.9833  19
   0   7  11 67.6813 26.9190  24
   0  -8   3 93.7898 27.3933  17
   0   8  -2 418.240 55.6175  18
   0  -8   2 547.387 71.5044  17
   0  -8   2 406.030 54.2977   9
   0   8  -1 292.360 53.0769  15
   0  -8   1 398.766 64.3468  17
   0   8  -1 431.008 67.2774  18
   0   8   0 30.7853 25.6898  15
   0  -8   0 41.2183 30.3680  17
   0   8   0 73.6246 34.0815  18
   0   8   1 49.9259 29.5778  13
   0   8   1 60.9758 33.9141  15
   0  -8  -1-14.3724 28.9544  17
   0   8   1 46.2343 22.1079  18
   0   8   2 511.924 83.6407  18
   0  -8  -2 546.446 86.3088  17
   0   8   2 414.309 72.3720  13
   0   8   2 399.932 76.1148  15
   0   8   3 38.3030 31.5890  15
   0   8   3 12.5030 34.1477  18
   0   8   3 4.01480 21.8585  13
   0  -8  -3 20.9942 23.9810  17
   0   8   4 140.268 45.8700  15
   0  -8  -4 98.0523 34.2619  17
   0   8   4 98.7898 35.0549  18
   0   8   5 5.17626 29.6452  18
   0   8   5 46.0435 32.1772  15
   0   8   6 1155.57 120.154  18
   0   8   6 954.547 117.144  15
   0   8   7 15.2036 24.7241  15
   0   8   7-13.5300 23.0481  18
   0   8   8 167.055 47.3140  15
   0   8   8 244.124 52.7773  18
   0   8   9 99.1618 33.6581  18
   0   8  10 27.3065 18.4487  18
   0   8  10 41.2608 19.3274  24
   0  -9   1 144.877 29.4126  17
   0   9   0 5.89193 11.5753  15
   0  -9   0 3.75148 18.7777  17
   0   9   0 9.82504 12.5918  18
   0   9   1 16.5830 14.9644  15
   0  -9  -1 10.1517 18.4555  17
   0   9   1 25.9702 21.4947  18
   0  -9  -2 550.186 74.2361  17
   0   9   2 557.918 79.0853  15
   0  -9  -2 588.121 75.8806  25
   0   9   2 557.813 76.5222  18
   0   9   3 591.946 84.0781  15
   0   9   3 734.389 91.2203  18
   0   9   4 132.731 43.3621  15
   0   9   4 250.530 54.7094  18
   0   9   5 243.875 53.6561  15
   0   9   5 379.939 66.6075  18
   0   9   6 285.965 58.6821  15
   0   9   6 353.816 64.6540  18
   0   9   7 704.376 86.5704  15
   0   9   7 750.249 88.0005  18
   0   9   8 562.837 69.7335  18
   0   9   8 554.172 70.2676  15
   0  -9  -8 694.991 85.0242  25
   0   9   9 17.6460 14.2350  18
   0  10   2 66.8595 19.4991  18
   0  10   3 15.0683 13.6113  18
   0  10   3 20.8418 22.3321  15
   0 -10  -3-18.2391 15.6270  25
   0  10   4 167.653 39.3201  15
   0  10   4 202.319 38.9969  18
   0 -10  -4 137.290 34.6489  25
   0  10   5-11.7244 15.0348  15
   0 -10  -5-1.01805 20.3874  25
   0  10   5-2.89863 13.6134  18
   0 -10  -6 38.1463 25.2439  25
   0  10   6-12.0530 14.3894  15
   0  10   6 22.8088 16.7682  18
   0  10   7 768.908 71.2178  18
   0  10   7 600.529 64.9718  15
   0 -10  -7 796.289 76.9208  25
   0 -10  -8 11.4515 15.1096  25
   0  10   8-6.83522 9.77205  18
  -1  10   6 95.0563 24.3863  15
   1 -10  -6 107.519 27.2398  25
  -1  10   6 99.8364 22.8561  18
  -1  10   5-16.9120 11.7058  18
   1 -10  -5 8.28944 10.4430  25
  -1  10   5 3.80580 10.2496  15
  -1  10   4-4.03532 12.3260  18
  -1   9   8 69.2453 26.7664  18
  -1   9   8 51.2328 22.1274  23
   1  -9  -8 80.1280 30.9881  25
  -1   9   7 3.79912 15.3216  18
   1  -9  -7 7.13495 19.6366  25
  -1   9   7-0.61876 16.6420  15
  -1   9   6 1003.53 95.6209  18
   1  -9  -6 970.564 101.167  25
  -1   9   6 1047.33 104.244  15
  -1   9   5 641.151 81.0872  15
  -1   9   5 773.881 85.6649  18
   1  -9  -5 705.523 87.9319  25
  -1   9   4 200.680 47.0454  15
  -1   9   4 197.435 45.0868  18
   1  -9  -4 238.910 51.5970  25
  -1   9   3 1040.93 95.8263  18
  -1   9   3 943.080 96.3998  15
   1  -9  -3 864.393 88.9539  25
  -1   9   2 858.140 83.3169  18
  -1   9   2 834.887 85.6988  15
  -1   9   1 282.332 46.3059  18
  -1   9   0-10.5688 12.4217  18
  -1   8  10-0.54419 9.37387  24
  -1   8   9 189.382 40.2610  23
  -1   8   9 138.620 33.3771  18
   1  -8  -8 457.428 71.1136  25
  -1   8   8 385.404 63.6897  15
  -1   8   8 399.692 64.8286  18
  -1   8   7 1846.30 142.330  18
  -1   8   7 1418.54 132.010  15
   1  -8  -7 1756.74 148.594  25
  -1   8   6 586.515 87.2679  15
  -1   8   6 542.322 78.5157  18
  -1   8   5 402.848 75.8367  15
  -1   8   5 298.771 57.0344  18
  -1   8   4 1362.07 125.968  18
  -1   8   4 1326.18 133.953  15
  -1   8   3 371.971 73.3624  15
   1  -8  -3 466.484 81.8187  17
  -1   8   3 457.669 74.5785  18
   1  -8  -2 1594.11 141.206  17
  -1   8   2 1685.75 151.228  15
  -1   8   2 1895.99 147.572  18
   1  -8  -2 1431.54 128.714  25
  -1   8   1 109.567 42.3557  18
  -1   8   1 145.171 47.6059  15
   1  -8  -1 82.2366 31.9644  17
   1  -8   0 365.034 63.6259  17
  -1   8   0 285.779 52.7288  18
  -1   8  -1 53.5812 26.8493  18
   1  -8   1 56.6659 29.3333  17
   1  -8   2 6.48357 14.5746   9
   1  -8   2-1.95616 17.0261  17
  -1   8  -2-13.9048 16.2671  18
  -1   7  11 175.418 34.6799  24
  -1   7  10 54.6573 24.9705  24
  -1   7   9 496.659 74.1486  23
  -1   7   9 489.763 68.1735  18
  -1   7   8 631.206 89.3287  15
  -1   7   8 577.565 82.1401  18
   1  -7  -8 723.459 100.453  25
  -1   7   7 166.133 51.8733  15
  -1   7   7 180.877 49.2601  18
  -1   7   6-22.4887 37.6329  15
  -1   7   6 45.7073 25.9971  18
  -1   7   5 821.697 107.426  15
  -1   7   5 1001.76 112.104  18
  -1   7   4 508.570 83.3021  18
  -1   7   4 374.034 76.1146  15
   1  -7  -4 322.255 70.7679  17
   1  -7  -3 338.649 73.2946  17
  -1   7   3 239.623 60.2893  15
  -1   7   3 318.387 65.6753  18
  -1   7   2 6594.08 308.495  15
   1  -7  -2 6632.68 301.799  17
  -1   7   1 516.145 87.9606  15
   1  -7  -1 350.866 68.7936  17
   1  -7   0 138.834 41.9592   9
   1  -7   0 179.566 47.3682  17
  -1   7   0 118.993 50.3079  15
   1  -7   1 32.1157 24.7919   9
   1  -7   1-3.67715 28.1656  17
   1  -7   2-18.9410 30.8590   9
   1  -7   2-138.269 41.4735  17
   1  -7   3 89.9997 27.8164   9
   1  -7   3 85.0428 30.7716  17
   1  -7   4 17.1989 13.5553  17
   1  -7   4-12.1402 13.3409   9
  -1   6  12 12.6203 9.17125  24
  -1   6  11 437.746 61.8434  24
  -1   6  10 795.245 86.4690  23
  -1   6  10 863.264 96.6537  24
  -1   6   9 143.656 42.0423  23
  -1   6   8 4984.89 251.394  15
  -1   6   8 4913.44 249.024  18
  -1   6   7 849.177 104.328  18
  -1   6   7 858.781 109.744  15
  -1   6   6 2778.85 190.562  15
  -1   6   6 3099.94 195.667  18
  -1   6   5 446.666 74.2597  18
  -1   6   5 408.638 73.8926  15
  -1   6   4 52.3413 74.5539   6
   1  -6  -4 106.080 61.0812  26
  -1   6   4 118.756 39.7737  18
   1  -6  -4 118.588 76.4052   7
  -1   6   4 132.545 43.4832  15
   1  -6  -4 66.5731 59.3298  30
   1  -6  -3 953.781 207.857   7
   1  -6  -3 1439.97 254.230   8
   1  -6  -3 1294.79 242.251  30
  -1   6   3 1211.67 245.988   6
  -1   6   3 1480.40 140.466  15
  -1   6   3 1569.36 134.923  18
   1  -6  -3 1520.50 277.071  26
   1  -6  -2 5680.91 522.148   8
  -1   6   2 5704.89 277.006  15
   1  -6  -2 5305.28 528.928  26
   1  -6  -2 5506.48 266.300  17
   1  -6  -2 4553.22 444.384  30
   1  -6  -2 4965.10 476.626   7
   1  -6  -1 7116.37 296.852  17
  -1   6   1 7142.15 315.645  15
  -1   6   0 2771.72 200.191  15
   1  -6   0 2303.74 163.246   9
   1  -6   0 2356.09 168.971  17
   1  -6   1 1374.14 130.868  17
   1  -6   2 796.984 98.0308  17
   1  -6   2 706.208 90.1326  12
   1  -6   3 213.896 45.1278  12
   1  -6   3 282.783 59.1669  17
   1  -6   4 620.992 73.7038  12
   1  -6   4 693.394 81.4242   9
   1  -6   4 671.245 79.5523  17
   1  -6   5-13.3122 17.5367   9
   1  -6   5-8.94794 18.3325  12
   1  -6   5 0.38827 16.6507  17
  -1   5  12 123.953 28.8591  24
  -1   5  11 68.8238 23.3008  22
  -1   5  11 23.5077 23.8817  24
  -1   5  10 178.427 50.3396  22
  -1   5  10 83.6908 29.0468  23
  -1   5  10 112.223 35.2919  24
  -1   5   9 210.453 52.3897  23
  -1   5   9 235.943 55.0888  19
  -1   5   8 20376.7 518.882  23
  -1   5   7 937.359 109.299  15
  -1   5   7 791.785 99.2154  18
   1  -5  -6 504.616 184.353   7
   1  -5  -6 542.888 167.970  30
   1  -5  -5 3525.89 406.373   7
  -1   5   5 3436.63 350.823  28
   1  -5  -5 3026.74 344.105  30
  -1   5   4 5087.41 460.975   6
   1  -5  -4 6039.66 477.108  30
   1  -5  -4 5426.46 487.210   7
   1  -5  -4 5066.89 435.174  26
   1  -5  -3 11567.5 661.005  26
  -1   5   3 12474.8 712.065   6
   1  -5  -3 12130.8 660.853  30
   1  -5  -3 11133.4 671.546   7
  -1   5   2 11718.6 680.745   6
   1  -5  -2 11603.4 661.852   7
  -1   5   2 13032.9 647.075  29
   1  -5  -2 13444.2 727.928  26
   1  -5  -2 11884.9 632.931  30
   1  -5  -1 1986.50 289.683  26
   1  -5  -1 1602.07 232.734  30
   1  -5  -1 2124.56 283.292   8
  -1   5   1 2072.69 288.888   6
  -1   5   1 2026.91 253.617  29
   1  -5  -1 1923.10 272.218   7
   1  -5   0 7569.40 550.879   8
  -1   5   0 7547.92 505.291  29
   1  -5   0 7774.22 579.053  26
   1  -5   0 6948.71 522.506   7
   1  -5   1 10398.2 685.429   8
   1  -5   1 9505.01 320.628  17
   1  -5   1 10172.0 684.862  26
  -1   5  -1 10096.2 613.609  29
   1  -5   2 165.456 46.7327  17
   1  -5   2 185.954 48.5064  11
   1  -5   3 343.839 68.8266  11
   1  -5   3 309.308 63.5060  17
   1  -5   4 20.0927 29.0839  11
   1  -5   4 47.6742 37.2433  12
   1  -5   4 12.7420 25.8648  17
   1  -5   5 633.181 84.7406  11
   1  -5   5 387.411 63.7397  17
   1  -5   5 559.608 75.5517  12
   1  -5   6 8.09738 17.8936  12
   1  -5   6-1.91882 15.3820  17
   1  -5   6 16.3645 18.0451   9
   1  -5   7 19.1990 14.4738  12
  -1   4  12 181.493 33.4785  22
  -1   4  12 143.397 29.4682  24
  -1   4  11-9.31523 21.2022  22
  -1   4  11-30.1419 25.0148  24
  -1   4  10 296.734 56.7728  24
  -1   4  10 335.231 62.3582  23
  -1   4  10 357.419 69.3967  22
  -1   4   9 1517.87 136.858  23
  -1   4   9 1545.75 141.106  19
  -1   4   8 26418.7 575.195  23
  -1   4   8 26373.4 575.621  19
   1  -4  -7 4362.58 509.259   7
   1  -4  -7 4293.12 514.503   1
  -1   4   7 3684.09 391.712  28
  -1   4   7 4064.13 427.794   5
   1  -4  -6 1010.78 234.520   1
   1  -4  -6 954.614 219.620   7
  -1   4   6 858.097 173.261  28
  -1   4   6 694.725 155.277   5
   1  -4  -6 953.993 193.873  30
  -1   4   5 8098.03 484.036  28
  -1   4   5 8274.73 484.195   5
   1  -4  -5 9660.98 622.239   7
   1  -4  -5 9099.76 550.424  30
   1  -4  -4 28806.1 915.280  30
   1  -4  -4 28553.4 1001.57   7
   1  -4  -4 27869.8 897.128  26
  -1   4   4 27534.9 948.930   6
   1  -4  -3 753.571 151.986  26
  -1   4   3 769.423 159.410   6
   1  -4  -3 713.773 150.582   7
   1  -4  -3 778.717 149.857  30
  -1   4   3 778.434 123.164  27
   1  -4  -2 351.254 102.046  30
  -1   4   2 396.305 88.7000  27
   1  -4  -2 399.335 111.577   7
   1  -4  -2 617.172 143.316  26
  -1   4   2 355.655 99.5623  29
  -1   4   2 461.192 123.783   6
   1  -4  -1 443.164 115.580   7
   1  -4  -1 589.926 124.113  26
  -1   4   1 631.624 146.399   6
  -1   4   1 591.378 116.871  29
  -1   4   1 562.920 105.476  27
   1  -4  -1 606.144 119.926  30
  -1   4   0 9211.72 492.556  27
   1  -4   0 9819.37 559.027  26
  -1   4   0 9286.24 486.203  29
   1  -4   0 8582.39 460.265  30
  -1   4   0 9583.26 543.642   6
  -1   4  -1 21181.3 828.968  27
   1  -4   1 22303.9 870.204   8
  -1   4  -1 21386.0 803.543  29
   1  -4   1 20415.0 845.320  26
   1  -4   2-39.3104 62.9186  26
   1  -4   2 137.583 79.2681   8
  -1   4  -2 215.945 96.8670  29
  -1   4  -2 250.926 111.999  27
  -1   4  -2 173.911 93.3452   3
  -1   4  -3 590.157 182.260   3
   1  -4   3 413.725 69.3887  11
   1  -4   3 391.276 67.9927  17
  -1   4  -3 102.603 69.3830  27
  -1   4  -3 326.832 115.805  29
   1  -4   3 186.529 94.0547   8
   1  -4   4 25.9918 21.8210  17
   1  -4   4 6.78614 20.1950  11
   1  -4   5 2742.04 180.025  11
   1  -4   5 2666.12 175.747  17
   1  -4   6 348.437 62.7333  17
   1  -4   6 408.688 68.9277  11
   1  -4   7 198.736 46.2949  11
   1  -4   7 208.642 43.9046  12
   1  -4   8 289.927 41.5676  12
  -1   3  12 91.0788 21.0120  24
  -1   3  12 124.648 27.2215  22
  -1   3  11-7.07322 26.6355  22
  -1   3  11-5.02204 14.8884  24
  -1   3  10 257.807 52.3979  24
  -1   3  10 192.419 46.5698  23
  -1   3  10 260.087 60.3585  22
  -1   3   9-20.7563 31.5375  23
  -1   3   9 7.61975 20.8967  24
  -1   3   8 15192.9 434.639  19
  -1   3   8 13270.4 403.772  23
  -1   3   7 162.044 87.3259   5
  -1   3   7 237.136 102.968  28
   1  -3  -7 70.6835 121.068   7
   1  -3  -7 19.0472 35.4709   1
  -1   3   6 875.162 174.880   5
  -1   3   6 996.575 182.831  28
   1  -3  -6 1166.95 230.512   7
   1  -3  -6 1029.54 184.231  30
   1  -3  -6 1296.56 250.055   1
   1  -3  -5 2414.37 299.793   7
  -1   3   5 1989.33 228.151  28
   1  -3  -5 2164.80 244.230  30
  -1   3   5 2468.05 254.560   5
   1  -3  -5 2551.02 323.099   1
   1  -3  -4 5493.31 397.554   7
  -1   3   4 4756.93 321.759  28
   1  -3  -4 5528.94 355.901  30
  -1   3   4 5341.33 321.362   5
  -1   3   3 23336.9 571.057   5
   1  -3  -3 22539.7 748.312   7
   1  -3  -3 24729.4 708.152  30
  -1   3   3 25338.7 611.685  27
   1  -3  -3 24315.8 696.544  26
  -1   3   3 24383.6 743.588   6
  -1   3   2 16432.4 536.338  29
   1  -3  -2 16040.1 599.931   7
   1  -3  -2 15103.7 544.765  26
  -1   3   2 15410.1 456.453  27
  -1   3   2 15328.0 575.009   6
   1  -3  -2 16368.2 548.296  30
  -1   3   2 14140.3 349.629   5
  -1   3   1 35163.4 729.028  27
   1  -3  -1 35322.3 854.019  26
  -1   3   1 35552.5 778.753  29
   1  -3  -1 34125.1 768.639  30
  -1   3   1 36274.1 877.745   6
   1  -3  -1 33901.2 836.357   7
  -1   3   0 3766.75 266.954  29
  -1   3   0 3536.01 278.362   6
   1  -3   0 3422.66 278.018  26
  -1   3   0 3466.39 264.986  27
   1  -3   0 3568.52 250.237  30
   1  -3   1 1107.30 170.109  26
   1  -3   1 1046.33 161.084   8
  -1   3  -1 1238.01 188.772   3
  -1   3  -1 857.519 147.592  29
  -1   3  -1 782.318 139.660  27
  -1   3  -1 985.684 157.001   6
  -1   3  -2 2774.12 282.788  29
   1  -3   2 3295.23 322.188   8
   1  -3   2 2552.91 271.601  26
  -1   3  -2 2950.86 313.033   3
   1  -3   3 3688.70 385.987   8
  -1   3  -3 3416.05 367.278   3
  -1   3  -3 3368.61 345.185  29
  -1   3  -4 236.272 99.5288  29
   1  -3   4 424.008 140.253   8
  -1   3  -4 494.718 170.383   3
   1  -3   5 2181.98 159.000  11
   1  -3   5 2126.84 160.057  17
   1  -3   6 644.092 89.2039  17
   1  -3   6 683.988 89.8712  11
   1  -3   7 33.5369 29.3357  11
   1  -3   8 525.727 67.5590  12
   1  -3   8 393.762 59.1296  11
  -1   2  12 255.230 35.0801  22
  -1   2  11 175.037 37.0442  24
  -1   2  11 192.644 40.3184  22
  -1   2  10 24.4053 27.2941  23
  -1   2  10 8.81949 22.8326  24
  -1   2  10 34.3188 24.4481  11
  -1   2  10-15.5375 25.6525  22
  -1   2   9 2451.44 175.887  24
  -1   2   9 2298.32 172.754  23
  -1   2   8 2778.56 184.886  24
  -1   2   8 3011.48 193.411  19
  -1   2   8 2712.83 184.888  23
   1  -2  -7 7023.55 620.090   3
  -1   2   7 5970.02 521.792  28
   1  -2  -7 7018.17 630.654   1
  -1   2   7 6318.37 552.186   5
  -1   2   6 14082.8 724.449  28
   1  -2  -6 15405.4 834.458   1
   1  -2  -6 14713.1 766.820   7
  -1   2   6 13740.6 705.015   5
  -1   2   5 34926.4 956.478   5
   1  -2  -5 35750.8 934.065  30
   1  -2  -5 36062.2 1137.48   1
   1  -2  -5 36114.1 1086.38   7
  -1   2   5 34631.0 980.672  28
   1  -2  -4 12629.4 491.087  30
   1  -2  -4 12277.7 556.589   7
  -1   2   4 12090.5 489.693  28
   1  -2  -4 13594.2 615.442   1
   1  -2  -3 41924.6 572.964   8
   1  -2  -3 44940.1 834.536  30
   1  -2  -3 43961.9 931.775   7
  -1   2   3 42641.2 569.635  32
  -1   2   3 43566.1 749.064  27
  -1   2   2 115839. 1099.51  27
  -1   2   2 113828. 1306.20   6
  -1   2   2 112779. 704.534  32
   1  -2  -2 114976. 1266.17  26
  -1   2   1 88567.2 986.242  27
   1  -2  -1 86595.7 1037.14  30
  -1   2   1 86276.5 1078.27   6
   1  -2  -1 87682.5 1131.32   7
  -1   2   0 2786.63 194.492  29
  -1   2   0 2869.80 216.014   3
  -1   2   0 2997.04 207.624  27
   1  -2   0 2955.93 209.966  26
  -1   2   0 2966.60 202.972   6
   1  -2   0 3071.96 194.416  30
  -1   2  -1 79092.2 1086.86   6
  -1   2  -1 79093.9 1178.36  29
   1  -2   1 79683.5 1167.11  26
   1  -2   1 79718.6 1044.61  30
  -1   2  -1 81422.9 1249.66   3
  -1   2  -2 13184.4 492.064   6
  -1   2  -2 13280.7 555.048   3
   1  -2   2 14945.9 552.766  26
   1  -2   2 15125.3 584.880   8
  -1   2  -2 13802.3 555.968  29
  -1   2  -3 3799.48 337.739   3
  -1   2  -3 3736.82 324.265  29
  -1   2  -3 3902.65 303.306   6
  -1   2  -4 20197.7 882.869   3
   1  -2   4 20381.1 885.470   8
  -1   2  -4 19386.7 836.818  29
  -1   2  -5 972.578 226.762   3
  -1   2  -5 1096.68 220.713  29
   1  -2   6 1234.19 120.707  11
   1  -2   7 8.75482 23.6587  11
   1  -2   8 83.9402 33.9059  11
   1  -2   9 77.2123 29.1382  12
   1  -2   9 73.5398 29.0521  11
  -1   1  11 118.444 29.2937  22
   1  -1 -11 77.8630 28.2362  13
  -1   1  10 11.8164 15.1006  24
  -1   1  10-6.32163 22.3350  22
  -1   1  10-25.3264 17.2790  11
  -1   1   9 297.559 68.8514  23
  -1   1   9 197.463 50.1337  24
  -1   1   9 147.273 49.0208  11
  -1   1   8 969.040 113.658  23
  -1   1   8 856.991 104.622  24
  -1   1   7-70.4246 59.3386  28
   1  -1  -7-53.6340 60.6118   3
  -1   1   7 279.689 125.407   5
   1  -1  -7 194.287 113.190   1
   1  -1  -6 14375.0 730.173   7
   1  -1  -6 15894.0 846.238   1
  -1   1   6 14909.3 736.086   5
  -1   1   6 13964.3 738.771  28
   1  -1  -6 15192.5 829.930   3
  -1   1   5 24754.9 860.730  28
   1  -1  -5 28477.5 993.483   3
   1  -1  -5 26973.4 908.936   7
   1  -1  -5 28029.3 989.781   1
   1  -1  -4 23804.7 755.636   7
  -1   1   4 22726.7 700.300  28
   1  -1  -4 22747.1 611.551  30
   1  -1  -4 20851.4 490.968   2
   1  -1  -4 23231.8 777.723   1
  -1   1   3 8783.94 305.709  32
  -1   1   3 8310.53 354.332  28
   1  -1  -3 8044.32 322.574  30
   1  -1  -3 8530.50 415.540   1
   1  -1  -3 7867.22 375.707   7
  -1   1   2 101538. 802.687  32
  -1   1   2 107858. 1015.80  27
  -1   1   2 98545.3 464.217  31
   1  -1  -2 96692.1 657.472   8
   1  -1  -2 105491. 1033.51  30
  -1   1   1 6221.26 211.500  27
   1  -1  -1 5714.82 201.474   8
   1  -1  -1 6115.64 238.209  26
  -1   1   1 5591.95 155.926  32
  -1   1   1 5557.88 213.602   6
   1  -1   0 31046.6 492.944   7
  -1   1   0 29784.5 511.641   3
   1  -1   0 31106.5 521.778  30
  -1   1   0 30675.0 450.544   6
   1  -1   1 103.852 29.9049   5
   1  -1   1 96.2280 34.6829  26
  -1   1  -1 40.8508 20.0873   6
  -1   1  -1 73.5450 32.9903   3
   1  -1   1 114.369 42.5189  30
  -1   1  -2 9613.02 358.233   1
   1  -1   2 10583.6 381.875  26
  -1   1  -2 10263.7 414.106   3
  -1   1  -2 9845.07 407.239  29
   1  -1   2 9666.05 337.240   5
   1  -1   2 11190.5 418.411   8
   1  -1   3 383.223 88.3812   8
   1  -1   3 399.539 89.9546   5
   1  -1   3 258.793 92.9900  28
  -1   1  -3 297.208 88.9246   3
  -1   1  -3 360.416 85.4728   1
   1  -1   4 737.975 152.967  28
  -1   1  -4 730.487 155.242  29
   1  -1   4 961.923 155.197   5
   1  -1   4 705.741 139.485   8
  -1   1  -4 811.532 162.439   3
  -1   1  -4 760.989 143.728   1
  -1   1  -5 6374.18 515.264   3
  -1   1  -5 5993.10 458.361   1
  -1   1  -5 5968.88 489.844  29
   1  -1   5 6094.92 444.631   5
  -1   1  -6 1330.05 260.243  29
  -1   1  -6 1109.65 249.767   3
   1  -1   7 758.004 95.8876  11
   1  -1   7 513.609 80.8605  22
   1  -1   8 155.839 44.6826  22
   1  -1   8 195.914 44.7028  11
   1  -1   9 131.951 36.1225  11
   1  -1   9 68.8925 26.5527  22
   1  -1  10 623.351 56.7948  12
  -1   0  11 26.6458 13.3071  11
  -1   0  11 5.60769 11.0252  22
   1   0 -11 3.54072 13.9638  13
   1   0 -10 1323.25 116.160  13
  -1   0  10 1074.75 99.9553  11
  -1   0  10 1270.52 109.081  22
  -1   0   9 821.326 103.448  11
  -1   0   9 966.139 111.101  22
  -1   0   8 403.959 77.3275  23
  -1   0   8 429.543 76.7277  11
  -1   0   7 3725.91 426.403   5
   1   0  -7 4275.74 479.666  29
   1   0  -7 4538.48 524.574   3
   1   0  -7 4011.48 475.415   1
  -1   0   7 3790.79 448.427  28
  -1   0   6 645.019 159.544  28
   1   0  -6 896.016 201.732   3
   1   0  -6 729.833 199.865   1
  -1   0   6 717.907 164.685   5
   1   0  -5 1838.68 237.313   7
  -1   0   5 1931.43 243.716  28
   1   0  -5 2433.71 295.412   1
   1   0  -5 2267.44 298.049   3
   1   0  -4 123205. 1842.11   1
   1   0  -4 116486. 1672.57   7
   1   0  -4 119943. 1829.32   3
  -1   0   4 112130. 1604.56  28
  -1   0   3 1543.70 71.8751  26
  -1   0   3 2213.73 172.215  32
   1   0  -3 1597.07 102.701   2
  -1   0   3 1872.60 175.712  28
  -1   0   3 1358.87 65.6944   8
   1   0  -3 1976.59 201.493   1
   1   0  -3 1766.47 177.953   7
   1   0  -3 2019.21 201.413   3
   1   0  -3 1858.89 136.546  30
  -1   0   2 338.089 58.6137  32
   1   0  -2 285.268 48.9646   2
  -1   0   2 321.048 47.5951  31
   1   0  -2 370.225 59.5392  30
   1   0  -1 26804.8 428.997   2
   1   0  -1 26329.7 303.755   8
   1   0   0 42665.2 439.574   7
   1   0   0 42506.2 311.755   1
  -1   0  -1 165875. 743.272   1
   1   0   1 164364. 1004.55   2
  -1   0  -1 168758. 998.506   3
   1   0   1 169376. 1071.38   5
   1   0   1 165731. 833.093   4
   1   0   2 23739.9 516.052   8
   1   0   2 22827.6 525.749  28
   1   0   2 22832.0 348.074   2
  -1   0  -2 23074.9 462.072   1
   1   0   2 22925.9 502.026   5
  -1   0  -2 22627.3 515.454   3
  -1   0  -3 22733.8 646.048  29
   1   0   3 23088.5 587.109   8
  -1   0  -3 24138.8 617.348   1
   1   0   3 23982.0 627.464   5
   1   0   3 23614.2 657.352  28
  -1   0  -3 23633.3 661.034   3
   1   0   4 15110.9 527.220   8
   1   0   4 15041.1 586.089   5
   1   0   4 15021.7 611.148  28
  -1   0  -4 15364.1 603.757   1
  -1   0  -4 14370.9 606.464  29
  -1   0  -4 15346.7 637.471   3
  -1   0  -5 52.6475 49.6646  29
   1   0   5 89.4773 55.8433  28
  -1   0  -5-66.2961 56.5807   3
   1   0   5-6.99047 60.5158   5
  -1   0  -5 57.5787 50.7240   1
   1   0   6 6931.87 513.825   5
  -1   0  -6 6865.63 553.495  29
  -1   0  -6 6529.78 519.166   1
   1   0   6 6874.69 547.824  28
  -1   0  -6 6933.12 572.495   3
  -1   0  -7 280.025 125.236  29
   1   0   7 223.846 49.8383  11
   1   0   7 155.261 76.2957   5
   1   0   7 226.005 49.2237  24
  -1   0  -7 459.302 163.752   3
   1   0   7 213.880 46.2593  22
   1   0   7 152.628 94.3673  28
   1   0   8 678.403 90.3802  24
   1   0   8 810.962 102.815  11
   1   0   8 755.484 98.9205  22
   1   0   9 1175.52 111.118  24
   1   0   9 1263.12 123.225  22
   1   0   9 1278.91 119.693  11
   1   0  10 175.081 40.2604  22
  -1  -1  10 75.3976 23.6943  22
  -1  -1  10 26.9917 17.8908  11
   1   1 -10 86.7154 31.4973  13
  -1  -1   9 810.701 93.5797  22
  -1  -1   9 1034.72 110.042  11
   1   1  -9 1046.66 111.773  13
  -1  -1   8 4808.19 256.067  22
  -1  -1   8 4964.57 258.344  17
  -1  -1   8 5266.49 267.472  11
  -1  -1   7 4013.11 229.052  17
  -1  -1   7 4472.37 243.026  11
   1   1  -6 5807.83 529.191  29
   1   1  -6 6636.00 599.559   3
  -1  -1   6 6573.12 519.786   5
  -1  -1   6 6386.44 551.669  28
   1   1  -6 6121.73 576.408   1
  -1  -1   5 46013.1 1292.68  28
  -1  -1   5 46204.3 1183.91   5
   1   1  -5 44722.0 1288.50  29
   1   1  -5 48460.0 1424.82   3
   1   1  -5 49061.1 1430.41   1
  -1  -1   4 43104.1 1078.68  28
   1   1  -4 48092.0 1213.84   1
   1   1  -4 44222.2 1075.70  29
   1   1  -4 46517.3 1193.56   3
  -1  -1   3 1522.78 173.877  28
   1   1  -3 1392.12 180.189   1
   1   1  -3 1410.49 177.510   3
  -1  -1   3 1435.12 108.691  26
   1   1  -2 203390. 1251.11   2
  -1  -1   2 203875. 1256.93  26
  -1  -1   1 36533.4 580.786  28
   1   1  -1 36040.3 507.836   2
  -1  -1   1 36550.7 491.758  26
   1   1   0 5832.85 164.340   3
  -1  -1   0 5862.24 137.177  27
  -1  -1   0 5887.86 147.788  28
   1   1   1 33795.1 430.107   6
   1   1   2 301587. 1258.00   2
  -1  -1  -2 295047. 1226.92   7
   1   1   2 304120. 1521.79   6
   1   1   2 302080. 1448.20  28
   1   1   2 297993. 1532.47   8
   1   1   3 2320.26 171.883  28
  -1  -1  -3 2003.06 132.437   7
   1   1   3 2063.24 144.659   8
   1   1   3 2224.16 179.963   5
  -1  -1  -3 2536.74 204.442   1
  -1  -1  -4 3864.09 301.311   1
   1   1   4 3462.52 265.043   5
   1   1   4 3250.67 199.963   8
  -1  -1  -4 3569.39 294.794   3
  -1  -1  -4 3379.35 182.559  30
   1   1   4 3593.53 260.428  28
  -1  -1  -4 3330.34 195.458   7
   1   1   5 77361.5 1447.29   5
  -1  -1  -5 79481.5 1607.90   3
   1   1   5 74378.5 1408.79  28
  -1  -1  -6 5292.48 477.001   3
  -1  -1  -6 5159.65 459.346   1
   1   1   6 5459.66 439.596  28
   1   1   6 5681.74 449.887   5
   1   1   7 16131.5 853.224   5
  -1  -1  -7 15205.7 901.399   3
  -1  -1  -7 14161.4 833.094  29
   1   1   7 14711.3 833.085  28
   1   1   8 2285.95 167.485  22
   1   1   8 2104.00 162.750  24
   1   1   9 1247.46 125.247  24
   1   1   9 1277.49 127.766  22
   1   1  10 502.004 68.6132  24
   1   1  10 547.670 75.9565  22
   1   1  11 370.353 49.8821  22
  -1  -2  10 113.384 25.7099  11
   1   2  -9 693.458 80.1360  13
  -1  -2   9 827.742 88.5632  11
   1   2  -8 1340.51 131.403  13
  -1  -2   8 1294.60 125.883  11
  -1  -2   8 1359.52 127.343  17
   1   2  -7 1469.73 143.744  13
  -1  -2   7 1758.34 150.779  11
  -1  -2   7 1409.03 136.920  17
   1   2  -6 845.268 222.832   1
  -1  -2   6 748.454 96.4315  17
  -1  -2   6 681.080 92.5650  11
   1   2  -5 20.0075 42.3925   3
   1   2  -5 184.231 106.708   1
  -1  -2   5 49.6919 38.5084  28
   1   2  -5 87.0797 86.0322  29
   1   2  -4 1033.40 189.638   1
   1   2  -4 979.552 170.995  29
  -1  -2   4 935.214 153.202   5
   1   2  -4 839.170 173.101   3
  -1  -2   4 832.701 173.314  28
   1   2  -3 9521.06 453.002  29
  -1  -2   3 10097.8 524.020  28
   1   2  -3 9265.61 501.283   3
  -1  -2   3 8773.52 368.234  26
   1   2  -2 5131.74 323.433   3
  -1  -2   2 4823.78 318.086  28
  -1  -2   2 4931.13 250.010  26
   1   2  -2 4812.90 274.292  29
   1   2  -2 4502.33 300.425   1
  -1  -2   2 3815.16 142.249  30
  -1  -2   1 326.036 65.2447  26
   1   2  -1 279.295 52.1173  29
  -1  -2   1 380.886 69.8632  32
   1   2  -1 306.813 69.3225   3
  -1  -2   1 442.663 82.7253  28
   1   2   0 31051.4 573.932   3
  -1  -2   0 31382.4 562.583  28
   1   2   0 32714.8 460.331  29
  -1  -2   0 33359.9 474.503  32
  -1  -2  -1 5189.54 192.410  31
  -1  -2  -1 4826.23 157.585  32
   1   2   1 4908.43 186.721   5
  -1  -2  -2 14793.5 359.244  26
   1   2   2 14651.1 277.851  28
  -1  -2  -2 14852.0 331.564  31
   1   2   2 15600.1 427.043   6
   1   2   3 15682.9 389.823  28
  -1  -2  -3 14952.4 338.814  26
   1   2   3 15487.6 487.464   5
  -1  -2  -3 15737.1 454.243  30
   1   2   3 15618.7 471.183   6
  -1  -2  -3 15532.8 447.455   7
   1   2   4 83277.0 1277.50   5
   1   2   4 85221.9 1155.16  28
  -1  -2  -4 83673.5 1161.90   7
  -1  -2  -5 20643.3 591.353  30
  -1  -2  -5 20377.8 648.382   7
   1   2   5 20495.5 725.667   5
   1   2   5 19386.1 654.764  28
  -1  -2  -6 146.236 76.6855   1
   1   2   6 1.09376 37.3709  28
   1   2   6 74.2949 54.3186   5
  -1  -2  -6 144.189 82.8060   3
  -1  -2  -7 713.586 189.261   1
  -1  -2  -7 938.872 223.692   3
   1   2   7 745.077 177.632   5
   1   2   7 763.463 180.804  28
   1   2   8 1664.64 141.505  22
   1   2   8 1593.03 143.540  24
   1   2   8 1902.30 153.230  19
   1   2   9 1043.27 113.914  22
   1   2   9 1169.04 125.829  24
   1   2  10 280.069 55.8705  24
   1   2  10 203.260 49.1624  22
   1   2  11 269.945 47.6484  22
   1   2  11 298.929 47.3495  24
   1   2  12 117.613 23.8022  22
  -1  -3   9 41.9022 17.3259  11
  -1  -3   8 4.27490 23.8602  11
  -1  -3   8-28.9010 23.5527  17
   1   3  -8-6.35894 17.9808  13
   1   3  -7 205.055 57.3645  13
  -1  -3   7 143.186 44.5256  11
  -1  -3   7 121.787 38.5101  17
   1   3  -6 4880.71 260.425  13
  -1  -3   6 5074.92 251.515  17
  -1  -3   6 4859.05 245.321  11
   1   3  -5 339.129 134.662   3
   1   3  -5 289.048 59.5358  13
   1   3  -5 231.736 117.943   1
  -1  -3   5 343.958 66.8613  17
  -1  -3   5 302.038 58.5246  11
   1   3  -4 1205.04 228.392   3
   1   3  -4 962.758 184.177  29
   1   3  -4 1186.91 221.949   1
  -1  -3   3 13943.3 712.564  28
   1   3  -3 12125.2 629.455   1
   1   3  -3 12440.2 590.007  29
   1   3  -3 13257.8 672.775   3
  -1  -3   3 13399.9 570.909  26
   1   3  -2 8299.93 420.524  29
  -1  -3   2 7918.93 391.512  26
   1   3  -2 7662.43 444.200   1
  -1  -3   2 8169.52 482.963  28
   1   3  -2 8000.82 464.851   3
   1   3  -1 37464.7 770.343  29
   1   3  -1 37711.2 882.385   3
   1   3  -1 38209.0 928.027   6
  -1  -3   1 38653.4 799.154  26
  -1  -3   0 92091.6 1107.34  31
  -1  -3   0 89956.5 1095.30  30
  -1  -3   0 90938.7 1173.44  26
   1   3   0 93508.9 1051.99  29
   1   3   0 90040.9 1181.82   4
   1   3   0 86853.4 1303.85   6
   1   3   0 89144.7 1259.12   3
   1   3   1 80561.2 914.571  29
   1   3   1 74147.3 1138.60   6
  -1  -3  -1 77830.6 1065.81  30
   1   3   1 74498.5 1060.98   4
  -1  -3  -1 78421.8 889.362  31
  -1  -3  -1 76094.5 1037.99  26
  -1  -3  -1 71875.8 670.834  32
   1   3   2 2041.82 182.003   4
  -1  -3  -2 2140.24 173.010  26
  -1  -3  -2 2360.55 191.953  30
   1   3   2 1900.24 144.727   5
   1   3   2 2165.42 195.259   6
  -1  -3  -2 1865.91 72.3170  32
  -1  -3  -2 2275.75 134.985  31
  -1  -3  -3 195.769 64.9575  30
  -1  -3  -3 300.382 50.1365  31
  -1  -3  -3 101.547 44.8208  26
  -1  -3  -3 285.123 42.5517  32
   1   3   3 218.226 48.9403  28
   1   3   3 196.827 62.8441   6
   1   3   3 158.497 58.1818   4
  -1  -3  -4 22219.3 684.073   7
   1   3   4 20204.2 658.231   4
   1   3   4 21807.8 683.499   6
   1   3   4 22423.1 685.153   5
  -1  -3  -4 20664.4 618.699  30
   1   3   4 21797.4 576.518  28
  -1  -3  -4 18616.2 468.244  26
  -1  -3  -4 19256.7 424.488  31
   1   3   5 43711.5 962.267  28
   1   3   5 41152.0 1038.30   5
  -1  -3  -5 43648.4 1056.96   7
  -1  -3  -5 44987.1 991.283  30
  -1  -3  -6 2874.01 353.574   1
   1   3   6 2642.34 298.976   5
   1   3   6 2587.61 270.151  28
  -1  -3  -7 599.459 174.586   1
  -1  -3  -7 452.446 161.329   3
   1   3   7 178.374 51.8768   5
  -1  -3  -8 796.254 235.707   1
   1   3   8 1075.41 113.277  18
   1   3   8 1002.57 110.611  19
   1   3   8 1019.19 110.182  24
  -1  -3  -8 1219.28 283.647   3
   1   3   8 1173.92 120.370  22
   1   3   9 264.047 60.3475  24
   1   3   9 367.013 72.6490  19
   1   3   9 229.862 57.5268  22
   1   3  10 621.584 88.1958  24
   1   3  10 603.851 86.4012  22
   1   3  11 75.2010 32.9646  22
   1   3  11 79.0709 28.0635  24
   1   3  12 61.1798 20.2221  22
   1   3  12 59.3090 19.0227  24
  -1  -4   8 81.9118 21.2974  17
  -1  -4   8 105.641 32.3530  11
  -1  -4   7 133.931 40.8249  11
  -1  -4   7 106.202 34.4470  17
   1   4  -7 146.422 40.9946  13
  -1  -4   6 307.065 61.8373  17
   1   4  -6 278.401 63.3268  13
  -1  -4   6 282.221 61.0268  11
   1   4  -5 1756.03 153.550  13
  -1  -4   5 1504.44 136.856  11
  -1  -4   5 1583.14 140.931  17
   1   4  -4 1636.60 299.714   6
   1   4  -4 1875.86 306.840   3
  -1  -4   4 2195.18 161.718  17
   1   4  -4 1878.54 151.020  13
  -1  -4   4 2003.79 155.083  11
   1   4  -3 1448.14 219.394  29
   1   4  -3 1348.68 242.586   3
   1   4  -3 1077.43 214.688   6
   1   4  -2 1991.42 266.077   6
  -1  -4   2 1540.82 213.257  26
   1   4  -2 1610.32 250.280   3
   1   4  -2 1681.01 217.909  29
   1   4  -1 39786.9 1108.76   3
  -1  -4   1 38551.0 978.927  26
   1   4  -1 37130.9 906.957  29
   1   4  -1 39610.8 1122.23   6
  -1  -4   0 2789.58 218.348  30
   1   4   0 3248.87 240.447  29
   1   4   0 3544.40 314.377   6
  -1  -4   0 2981.65 254.735  26
   1   4   0 3342.26 296.433   3
   1   4   0 3040.10 249.375   4
  -1  -4  -1 19856.5 609.622  30
   1   4   1 19772.7 635.932   4
  -1  -4  -1 20310.5 645.293  26
   1   4   1 21117.3 742.517   6
  -1  -4  -1 19550.1 558.340  31
  -1  -4  -2 788.999 124.992  30
  -1  -4  -2 877.154 107.953  31
   1   4   2 690.113 130.474   4
  -1  -4  -2 919.534 131.663  26
   1   4   2 707.687 133.003   6
  -1  -4  -3 239.105 51.8729  31
  -1  -4  -3 203.646 72.7868  30
  -1  -4  -3 223.818 73.1114  26
   1   4   3 223.742 76.7073   4
   1   4   3 233.946 64.1552   5
   1   4   3 267.836 80.5914   6
   1   4   4 1689.58 208.638   4
   1   4   4 1581.14 188.537   5
  -1  -4  -4 1772.24 204.563  30
  -1  -4  -4 1642.62 211.016   7
   1   4   4 1300.86 147.989  28
  -1  -4  -4 1509.63 166.236  26
   1   4   4 1636.77 208.490   6
   1   4   5 45349.1 1130.68   5
  -1  -4  -5 49122.1 1123.12  30
  -1  -4  -5 46805.0 1198.98   7
   1   4   5 46329.8 1194.68   6
  -1  -4  -6 6910.33 507.970   7
  -1  -4  -6 6311.54 441.705  30
   1   4   6 6180.36 462.689   5
   1   4   7 518.655 147.065   5
  -1  -4  -7 709.775 204.260   1
   1   4   8 2544.01 173.134  18
   1   4   8 2556.70 179.149  19
  -1  -4  -8 2507.18 406.726   1
   1   4   8 2192.00 160.992  24
   1   4   8 2437.47 174.852  22
   1   4   8 2599.92 169.715  16
   1   4   9 39.7873 31.6612  19
   1   4   9-5.84766 26.1120  22
   1   4   9-11.3766 32.9083  18
   1   4   9-3.86966 19.7733  24
   1   4  10-8.25316 29.3651  22
   1   4  10 9.73421 18.7232  24
   1   4  11 1524.44 118.831  24
   1   4  11 1786.10 135.625  22
   1   4  12 527.645 56.1252  24
   1   4  12 522.258 59.4544  22
  -1  -5   7 119.769 33.0091  11
  -1  -5   7 141.545 30.6622  17
  -1  -5   6 62.8144 27.4177  17
  -1  -5   6 20.9431 19.5958  11
  -1  -5   5 13.7763 23.3399  17
   1   5  -5 4.93990 26.6796  13
  -1  -5   5-28.7321 39.8139  11
  -1  -5   4 142.967 45.0488  17
   1   5  -4 140.553 41.4763  13
  -1  -5   4 176.619 48.5566  11
  -1  -5   3 203.848 53.4030  11
  -1  -5   3 264.969 59.6794  17
   1   5  -3 268.428 59.1651  13
   1   5  -2 363.287 130.160   3
   1   5  -2 512.304 159.245   6
  -1  -5   2 322.199 109.622  26
  -1  -5   1 2875.88 321.446  26
   1   5  -1 3189.23 303.563  29
   1   5  -1 2710.69 341.365   3
   1   5  -1 2703.64 343.796   6
  -1  -5   0 127.083 81.7545  26
   1   5   0 54.2849 55.2900  29
   1   5   0 69.5940 57.4438   6
  -1  -5  -1 8228.37 490.402  26
   1   5   1 8182.92 452.873  29
  -1  -5  -1 7728.89 435.924  30
   1   5   1 8231.88 552.046   6
   1   5   2 4683.53 348.699   4
  -1  -5  -2 4394.73 335.340  30
   1   5   2 4695.76 403.217   6
  -1  -5  -2 4682.29 361.828  26
   1   5   3 6811.56 436.222   4
  -1  -5  -3 6752.06 422.829  30
  -1  -5  -3 6320.34 407.800  26
   1   5   3 7123.02 484.698   6
  -1  -5  -4 112.783 51.2382  26
  -1  -5  -4 2.69632 71.5110  30
  -1  -5  -4 202.864 92.2770   7
   1   5   4 34.7278 54.9593   4
   1   5   4-72.9756 55.9266   6
   1   5   5 19.9550 55.4001   6
  -1  -5  -5 101.004 47.5600  30
  -1  -5  -5 39.2908 34.6108   7
  -1  -5  -6 1893.65 280.707   7
  -1  -5  -6 1809.11 254.601  30
   1   5   6 1688.48 249.271   5
   1   5   7 346.906 124.034   5
  -1  -5  -7 231.342 119.749  30
   1   5   8 6283.12 282.174  19
   1   5   8 6195.22 275.927  24
   1   5   8 5885.37 263.328  18
   1   5   9 1382.07 131.983  18
   1   5   9 1325.24 129.686  24
   1   5   9 1422.46 134.147  22
   1   5   9 1304.79 130.132  19
   1   5  10 484.693 76.5119  24
   1   5  10 347.379 65.3307  22
   1   5  10 451.174 74.4129  19
   1   5  11 32.1271 17.5269  22
   1   5  11 64.0349 27.4300  24
   1   5  12 1577.49 95.8859  22
   1   5  12 1690.04 103.524  24
  -1  -6   6 254.135 43.7706  17
  -1  -6   6 290.532 42.9148  12
  -1  -6   5 268.291 52.8107  17
  -1  -6   5 272.819 55.2786  11
   1   6  -4 1418.79 128.855  13
  -1  -6   4 1530.12 137.944  11
  -1  -6   4 1415.55 130.785  17
  -1  -6   3 85.6788 40.3440  11
  -1  -6   3 69.1541 39.5177  17
   1   6  -3 67.4800 28.9205  13
   1   6  -2 214.179 57.3518  20
  -1  -6   2 230.585 55.9748  11
   1   6  -2 151.508 46.9831  13
  -1  -6   2 217.279 55.8004  17
   1   6  -1 2257.89 167.381  13
  -1  -6   1 2126.64 319.293  26
   1   6  -1 2621.44 187.792  20
  -1  -6   1 2358.48 170.885  11
  -1  -6   1 2475.03 173.141  17
   1   6  -1 2055.53 328.069   6
  -1  -6   0 3440.22 385.562  26
   1   6   0 3186.16 398.451   6
  -1  -6  -1-23.8067 32.5306  26
   1   6   1 206.635 108.547   6
  -1  -6  -2 70.6251 52.0028  26
   1   6   2-19.4289 42.4634   6
  -1  -6  -2 50.4896 39.7847  30
  -1  -6  -3 1218.66 202.883  30
   1   6   3 1281.92 245.615   6
  -1  -6  -3 857.038 170.036  26
  -1  -6  -4 3385.97 388.794   7
  -1  -6  -4 3865.90 365.026  30
   1   6   4 3430.58 389.283   6
  -1  -6  -4 3267.13 340.213  26
  -1  -6  -5 54.3375 55.6069  30
   1   6   5 123.974 73.4713   6
  -1  -6  -5 71.3645 75.6706   7
  -1  -6  -6 660.531 165.866  30
  -1  -6  -6 687.085 179.539   7
   1   6   6 1071.46 221.251   6
   1   6   7-27.8573 31.9027  19
   1   6   7 3.61874 20.6907  18
   1   6   7-9.87718 25.1914  16
   1   6   8 20799.4 520.578  19
   1   6   8 20726.7 519.937  24
   1   6   8 19713.4 485.306  18
   1   6   9 5406.20 265.611  24
   1   6   9 5195.48 257.686  19
   1   6   9 4955.11 243.742  18
   1   6  10 743.115 96.2811  24
   1   6  10 686.076 91.1722  19
   1   6  10 693.307 88.1731  18
   1   6  11 637.103 80.4723  24
   1   6  11 829.071 88.6235  19
   1   6  12 10.6966 14.4369  24
  -1  -7   5 149.357 32.8148  17
  -1  -7   5 157.724 32.6733   9
  -1  -7   4 169.373 41.8203  17
  -1  -7   3 26.7948 21.6757  17
   1   7  -3 24.4407 21.6260  13
  -1  -7   2 528.637 84.0280  17
   1   7  -2 564.986 84.5574  13
  -1  -7   1 2384.34 175.074  17
   1   7  -1 2230.16 170.096  13
   1   7  -1 2480.47 184.851  20
   1   7   0 103.673 33.2260  20
   1   7   0 133.440 43.6967  13
  -1  -7   0 147.251 50.9407  17
  -1  -7  -1 554.936 87.0775  17
   1   7   1 505.504 82.8219  13
   1   7   1 456.963 79.1601  20
   1   7   2 3056.24 198.880  13
   1   7   2 2986.69 198.135  20
   1   7   2 3456.50 213.309  18
  -1  -7  -2 2757.42 189.002  17
   1   7   3 243.587 59.2548  18
  -1  -7  -3 363.140 123.841  30
   1   7   3 161.568 49.2132  13
  -1  -7  -3 403.231 138.400  26
   1   7   4 33.4212 28.9103  13
   1   7   4 2.54792 13.1933  15
  -1  -7  -4-23.2152 39.8678  26
   1   7   4 60.9030 38.2320  18
   1   7   5 609.404 89.5783  15
   1   7   5 654.785 92.0847  18
   1   7   5 525.149 85.7199  19
   1   7   6 2019.58 155.239  16
   1   7   6 2282.95 171.016  18
   1   7   6 1965.45 161.299  19
   1   7   6 1896.89 158.304  15
   1   7   7 536.897 84.2224  15
   1   7   7 493.673 79.0665  18
   1   7   7 572.500 84.5624  16
   1   7   7 564.403 86.7797  19
   1   7   8 12913.8 408.251  19
   1   7   8 13388.4 406.830  18
   1   7   9 423.746 73.7970  24
   1   7   9 419.356 75.3421  19
   1   7   9 402.083 71.8179  18
   1   7  10 576.557 78.0700  18
   1   7  10 683.951 86.5927  24
   1   7  10 609.893 80.1792  19
   1   7  11 229.542 45.5110  19
   1   7  11 195.425 43.2421  24
   1   7  12 105.124 23.0040  24
  -1  -8   3 137.919 29.9508   9
  -1  -8   3 124.670 35.4797  17
  -1  -8   2-2.01377 20.8297   9
   1   8  -2-21.6595 20.2145  15
  -1  -8   2-7.55210 29.5111  17
   1   8  -1 825.239 94.7111  13
   1   8  -1 769.159 89.3792  18
  -1  -8   1 881.225 102.233  17
  -1  -8   0 380.962 70.7557  17
   1   8   0 321.454 61.3176  13
   1   8   0 409.063 69.7462  18
  -1  -8  -1 28.5825 25.7074  17
   1   8   1 1.10455 27.7099  13
   1   8   1 17.8088 29.2702  18
  -1  -8  -2 238.822 57.8857  17
   1   8   2 344.117 75.4236  15
   1   8   2 240.458 60.0713  13
   1   8   2 335.040 70.3071  18
   1   8   3 1003.98 118.948  15
   1   8   3 1056.88 119.905  13
   1   8   3 1054.25 117.764  18
   1   8   4 624.797 90.8742  13
   1   8   4 825.274 111.822  15
   1   8   4 752.306 101.480  18
   1   8   5 3125.31 209.534  19
   1   8   5 3907.01 228.089  18
   1   8   5 3470.34 223.208  15
   1   8   6 14.8521 30.0182  19
   1   8   6 27.5334 36.4390  15
   1   8   6 21.7072 28.5495  18
   1   8   7 881.621 107.950  15
   1   8   7 790.015 101.918  19
   1   8   7 1053.44 118.053  18
   1   8   8 1924.70 152.678  19
   1   8   8 2335.73 167.644  18
   1   8   9 972.762 101.421  19
   1   8   9 1087.04 106.691  18
   1   8  10 1743.74 122.440  19
   1   8  10 2178.01 136.740  18
   1   8  11 652.970 61.7896  19
   1   9  -1 117.020 28.6143  15
  -1  -9   1 78.6241 27.3246  17
   1   9   0-8.16485 23.3126  15
  -1  -9   0 3.08958 20.2854  17
   1   9   0-19.4490 16.7532  13
   1   9   0-6.28112 12.5111  18
  -1  -9  -1 45.4561 28.6757  17
   1   9   1 11.2429 25.9473  15
   1   9   1 40.4309 19.8545  18
   1   9   1 3.60831 15.4997  13
  -1  -9  -2 83.4828 32.9248  17
   1   9   2 60.9807 29.1237  15
   1   9   2 53.1158 28.7042  13
   1   9   2 1.66535 25.4752  18
   1   9   3 1873.95 153.457  15
   1   9   3 2003.41 152.600  18
   1   9   3 1717.11 140.172  13
   1   9   4 78.7406 36.7445  15
   1   9   4 83.2896 36.5989  18
   1   9   5 107.129 39.5946  15
   1   9   5 120.441 44.3106  18
   1   9   6 257.615 61.2607  15
   1   9   6 191.162 53.4362  18
   1   9   7-5.35568 27.2858  15
   1   9   7 20.8782 19.8577  18
   1   9   8 69.3273 29.3991  15
   1   9   8 163.168 43.8002  18
   1   9   9 887.361 86.9537  18
   1   9  10 137.723 32.0306  18
   1  10   1 27.7511 16.8623  15
   1  10   2 641.729 65.3980  18
   1  10   2 708.486 74.0642  15
   1  10   3 971.880 88.6096  18
   1  10   3 984.773 92.3034  15
   1  10   4 30.7575 18.5974  15
   1  10   4 74.1839 30.7692  18
   1  10   5 371.821 59.1830  15
   1  10   5 422.048 61.7686  18
   1  10   6 435.538 61.9800  15
   1  10   6 500.475 67.5110  18
   1  10   7 258.996 45.2536  15
   1  10   7 450.685 62.3977  18
  -1 -10  -8 71.5314 25.6127  25
   1  10   8 65.4605 20.5326  15
   1  10   8 68.3606 24.8521  18
   1  10   9 45.9328 17.9910  18
  -2   9   8 155.737 30.1896  23
   2  -9  -7 655.310 68.4548  25
  -2   9   7 624.026 58.7373  18
   2  -9  -6-3.42450 18.0427  25
  -2   9   6 5.73805 14.4712  15
  -2   9   6-3.38136 11.9221  18
   2  -9  -5 33.1459 21.3197  25
  -2   9   5 29.7523 21.6351  15
  -2   9   5 41.4605 18.0957  18
  -2   9   4 390.043 57.1068  15
  -2   9   4 530.620 62.3380  18
   2  -9  -4 433.261 58.6749  25
  -2   9   3 34.8476 19.6668  15
   2  -9  -3 18.2061 16.0218  25
  -2   9   3 16.6961 15.0321  18
  -2   9   2 399.889 48.2428  18
  -2   8   9 14.3081 9.79361  24
  -2   8   9 27.6832 19.7624  23
  -2   8   8 416.289 64.0915  23
   2  -8  -8 432.546 64.8615  25
  -2   8   7 1821.73 140.566  15
  -2   8   7 1823.75 128.475  18
   2  -8  -6 251.606 52.4793  25
  -2   8   6 333.614 64.9129  15
  -2   8   6 358.431 61.6735  18
  -2   8   5 49.3326 28.0295  18
   2  -8  -5 62.1338 27.5306  25
  -2   8   5 66.0509 27.6322  15
  -2   8   4 26.6521 36.5579  15
   2  -8  -4 2.78999 21.2074  25
  -2   8   4-37.8643 35.9013  18
  -2   8   3 22.1642 27.4630  18
  -2   8   3 48.9488 39.9817  15
   2  -8  -3-1.17860 20.5006  25
   2  -8  -2-13.5632 19.1628  25
  -2   8   2 24.1000 25.1387  15
  -2   8   2 44.9885 28.5010  18
  -2   8   1 206.839 44.9263  18
   2  -8  -1 212.328 50.1179  17
   2  -8   0 144.389 37.2679  17
  -2   8   0 149.362 37.5798  18
   2  -8   1 252.455 42.6341  17
  -2   8  -1 242.266 40.5892  18
  -2   7  10 625.170 65.5217  23
  -2   7  10 628.282 66.6698  24
  -2   7   9 1517.23 119.760  23
   2  -7  -8 857.051 104.128  25
  -2   7   7 788.469 101.925  15
   2  -7  -7 699.339 100.054  25
  -2   7   7 726.214 89.1897  18
   2  -7  -6 103.009 43.4983  25
  -2   7   6 45.9814 32.6347  15
  -2   7   6 150.657 46.3491  18
  -2   7   5 2398.47 183.887  15
   2  -7  -5 2498.62 183.628  25
  -2   7   5 2380.15 167.972  18
  -2   7   4 3327.71 217.107  15
  -2   7   4 3345.06 200.009  18
  -2   7   3 4376.89 249.639  15
   2  -7  -3 4420.35 249.171  17
  -2   7   3 4584.20 234.845  18
  -2   7   2 578.572 92.5553  15
   2  -7  -2 538.993 87.6964  25
   2  -7  -2 672.692 100.292  17
  -2   7   2 690.993 96.1292  18
  -2   7   1 1386.17 138.295  15
   2  -7  -1 1244.96 123.322  17
   2  -7   0 140.981 40.6746  17
   2  -7   0 88.1508 33.8564   9
   2  -7   1 34.5572 25.8952  17
   2  -7   1 43.2349 26.9995   9
   2  -7   2 397.296 59.2934   9
   2  -7   2 504.856 66.6671  17
   2  -7   3 174.297 34.6060  17
   2  -7   3 183.748 35.4016   9
  -2   6  11 218.293 38.9847  24
  -2   6  11 197.138 35.5524  23
  -2   6  10 182.197 41.5492  24
  -2   6  10 168.231 35.6000  23
  -2   6   9 1554.29 132.191  23
  -2   6   8 1989.95 158.862  23
  -2   6   7 463.728 79.4370  15
   2  -6  -7 508.038 88.2451  25
  -2   6   6 16944.6 485.380  15
   2  -6  -6 17530.2 507.268  25
  -2   6   6 16048.4 446.909  18
  -2   6   5 6196.04 298.076  15
  -2   6   5 6136.52 271.224  18
  -2   6   4 315.209 69.3194  15
  -2   6   4 218.157 56.2340  18
  -2   6   3 276.988 64.7319  15
   2  -6  -3 275.615 65.7910  17
  -2   6   3 271.274 57.2491  18
  -2   6   2 1321.76 137.673  15
   2  -6  -2 1408.00 139.939  17
  -2   6   1 1272.99 136.612  15
   2  -6  -1 1034.57 112.872   9
   2  -6  -1 1012.94 113.053  17
   2  -6   0 963.377 108.389   9
   2  -6   0 949.396 107.882  17
   2  -6   1 216.541 58.6791  17
   2  -6   1 237.500 54.6528   9
   2  -6   2 109.034 36.7740  12
   2  -6   2 114.747 37.4543   9
   2  -6   2 161.605 45.8060  17
   2  -6   3 51.4900 29.1881  12
   2  -6   3 3.95130 24.0478   9
   2  -6   3-19.1966 32.2532  17
   2  -6   4 10.7537 17.1540   9
   2  -6   4 37.2826 22.7197  17
   2  -6   4 33.7374 19.0180  12
   2  -6   5 100.201 24.8123   9
  -2   5  11 24.0794 17.7811  23
  -2   5  11 38.2227 22.6979  24
  -2   5  10 193.542 43.7276  23
  -2   5  10 161.949 44.7400  24
  -2   5   9 195.953 53.6218  23
  -2   5   8 3006.95 199.359  23
  -2   5   7 21660.3 525.440  15
  -2   5   6 18464.1 912.996  28
  -2   5   6 20984.0 519.281  15
   2  -5  -5 177.122 101.870  30
  -2   5   5 169.979 46.6773  15
  -2   5   5-6.34691 19.2246  28
   2  -5  -5-18.1108 37.5359   7
   2  -5  -4 8413.20 644.340   7
   2  -5  -4 9963.47 680.796  30
   2  -5  -3 1295.51 237.276  30
  -2   5   3 1296.35 237.749   6
   2  -5  -3 1107.30 219.346   7
   2  -5  -2 1752.31 273.056   7
  -2   5   2 1735.93 252.976  29
   2  -5  -2 1567.22 256.256  30
   2  -5  -2 2126.65 307.068   8
  -2   5   1-7.74057 23.4876  29
   2  -5  -1 116.147 105.829   8
   2  -5  -1 133.835 78.4154   7
   2  -5   0 388.630 66.3391  17
   2  -5   0 376.447 70.0088   9
   2  -5   0 411.659 154.030   8
  -2   5   0 516.583 141.816  29
   2  -5   1 984.311 104.264  12
   2  -5   1 1038.62 109.579   9
   2  -5   1 1032.73 112.455  17
   2  -5   2 923.164 105.849  17
   2  -5   2 932.670 105.221  12
   2  -5   3 3613.23 208.436  17
   2  -5   3 3352.12 197.795  12
   2  -5   4 64.0471 24.9149  17
   2  -5   4 100.726 39.4149  12
   2  -5   4 120.894 37.4001   9
   2  -5   5-2.89698 19.8680  17
   2  -5   5 18.0775 28.3508   9
   2  -5   5-18.4870 24.3226  12
   2  -5   6 320.635 46.4161  12
   2  -5   6 343.935 48.9434   9
  -2   4  11 4.25973 12.7118  22
  -2   4  11 7.01110 12.4210  23
  -2   4  11-2.45416 19.0717  24
  -2   4  10 1469.79 122.003  24
  -2   4  10 1590.79 130.301  23
  -2   4   9 2475.27 178.927  23
  -2   4   8 2163.19 169.250  23
  -2   4   7 13.2489 40.9399  28
  -2   4   7 58.4233 28.4150  15
   2  -4  -6 3463.49 407.265  30
   2  -4  -6 4447.73 497.310   7
   2  -4  -6 4317.06 502.643   1
  -2   4   6 3837.36 393.072  28
   2  -4  -5 38846.8 1267.60  30
   2  -4  -5 40228.1 1394.06   7
  -2   4   5 38544.0 1201.84  28
   2  -4  -4 1933.82 267.976  30
   2  -4  -4 2070.90 295.666   7
  -2   4   4 1793.61 216.020  27
   2  -4  -3 6948.94 491.187  30
   2  -4  -3 6271.45 485.934   7
  -2   4   3 6502.46 479.275   6
  -2   4   3 6310.98 403.346  27
   2  -4  -3 6647.18 437.621   8
   2  -4  -2 2597.40 292.654  30
   2  -4  -2 2599.47 288.635   8
  -2   4   2 2528.01 273.410  29
   2  -4  -2 2148.89 274.455   7
  -2   4   2 2614.15 248.552  27
  -2   4   2 2592.05 290.719   6
  -2   4   1 5426.70 395.625  29
   2  -4  -1 4840.98 395.284  30
   2  -4  -1 5305.29 429.927   8
   2  -4  -1 6282.62 483.779  26
   2  -4  -1 5400.83 422.852   7
  -2   4   1 4879.31 354.874  27
  -2   4   0 8552.04 540.044  27
   2  -4   0 8312.95 559.607   8
   2  -4   0 7598.51 500.811   7
  -2   4   0 8605.09 516.298  29
   2  -4   1 599.448 163.628   8
  -2   4  -1 595.253 149.510  29
  -2   4  -1 534.847 154.248  27
  -2   4  -2-56.4194 50.6968  29
  -2   4  -2-33.3388 38.0457  27
   2  -4   2-5.14740 20.8437   8
   2  -4   3 64.9752 29.4539  12
   2  -4   3 37.3150 28.6693  11
   2  -4   3 46.9036 34.2893  17
   2  -4   4 105.029 34.4312  11
   2  -4   4 80.0020 33.3414  17
   2  -4   4 91.2212 32.2348  12
   2  -4   5 7.52622 26.8772  11
   2  -4   5-12.4857 20.0306  12
   2  -4   5 20.3740 17.1479  17
   2  -4   6 57.7137 32.6963  12
   2  -4   6 20.1140 20.0480   9
   2  -4   7 976.849 83.2329  12
   2  -4   7 835.355 77.6064   9
  -2   3  12 728.412 59.2897  22
  -2   3  11 8.52601 13.5408  23
  -2   3  11 21.3002 19.8816  24
  -2   3  11 61.0557 27.5456  22
  -2   3  10 32.3510 30.2380  24
  -2   3  10-80.0252 33.1141  23
  -2   3   9 1850.40 154.675  23
  -2   3   8 0.33506 28.6598  23
   2  -3  -7 2212.38 362.629   1
  -2   3   7 2339.15 171.575  23
   2  -3  -7 1793.05 324.258   7
  -2   3   7 2500.82 345.216   5
  -2   3   7 2182.68 317.349  28
   2  -3  -6 28.3501 53.2844   7
   2  -3  -6 48.4015 44.7056  30
  -2   3   6 24.5713 59.2774   5
   2  -3  -5 5793.43 455.196  30
   2  -3  -5 6252.10 519.445   7
  -2   3   5 5925.61 435.558  28
   2  -3  -5 6653.10 553.567   1
   2  -3  -4 1567.90 215.527  30
  -2   3   4 1849.54 201.154  27
   2  -3  -4 1409.54 231.226   7
   2  -3  -3 83766.6 1325.78   8
  -2   3   3 88297.3 1365.18  27
   2  -3  -3 90503.4 1656.46   7
   2  -3  -3 84776.3 1500.62  30
   2  -3  -2 31190.7 831.585   8
   2  -3  -2 31153.9 884.796  30
  -2   3   2 31209.8 777.685  27
   2  -3  -2 29923.3 893.276   7
  -2   3   2 32483.5 854.656  29
  -2   3   2 32217.1 881.694   6
   2  -3  -1 4700.14 341.287  30
  -2   3   1 5087.41 331.979  29
  -2   3   1 4967.53 318.232  27
   2  -3  -1 4930.94 365.783  26
   2  -3  -1 5121.43 353.957   7
   2  -3  -1 5516.37 368.861   8
  -2   3   1 5068.97 338.577   6
   2  -3   0 6112.52 409.135   8
   2  -3   0 6060.11 398.296  30
  -2   3   0 6388.58 412.519  27
   2  -3   0 5440.93 356.939   7
  -2   3   0 6220.48 382.668  29
   2  -3   0 6007.15 417.312  26
  -2   3  -1 6830.78 440.039  29
  -2   3  -1 7963.21 502.069  27
   2  -3   1 7378.78 480.942   8
  -2   3  -2 2140.48 270.882  29
   2  -3   2 2776.07 324.493   8
  -2   3  -2 2613.95 308.012  27
  -2   3  -2 2626.68 319.075   3
  -2   3  -3 433.461 149.859   3
  -2   3  -3 471.780 134.945  27
  -2   3  -3 455.214 132.979  29
   2  -3   3 515.631 154.060   8
  -2   3  -4 1762.00 310.076   3
   2  -3   4 1211.69 258.168   8
   2  -3   4 1596.11 135.006  11
   2  -3   4 1285.71 122.234  17
   2  -3   5 1646.71 141.044  11
   2  -3   5 1701.98 142.841  17
   2  -3   6 4927.54 237.065  11
   2  -3   7 64.3978 24.1185  12
   2  -3   7 79.2054 27.1158  11
   2  -3   8 7.37708 17.8120  12
   2  -3   8 29.2241 15.0592   9
  -2   2  11 239.918 46.3887  22
  -2   2  11 179.349 36.0474  24
  -2   2  11 213.911 39.1667  11
  -2   2  10 451.449 68.6650  24
  -2   2  10 474.505 70.8278  23
  -2   2   9 1299.09 124.032  24
  -2   2   9 1486.66 139.693  23
  -2   2   8 2076.03 164.617  23
   2  -2  -7 11643.0 832.107   1
  -2   2   7 11315.6 744.100   5
   2  -2  -7 11539.0 797.928   7
   2  -2  -7 12409.3 852.439   3
  -2   2   7 10225.5 691.353  28
  -2   2   6 526.112 130.416  28
   2  -2  -6 768.794 188.668   1
   2  -2  -6 1036.01 224.990   7
  -2   2   5 659.469 148.734  28
   2  -2  -5 898.329 176.422  30
   2  -2  -5 1188.01 221.704   7
   2  -2  -5 869.338 182.151   1
   2  -2  -4 26856.6 835.413  30
  -2   2   4 27996.6 827.676  28
   2  -2  -4 27460.3 931.288   7
   2  -2  -4 29914.8 991.885   1
  -2   2   4 28490.8 673.502  32
  -2   2   3 181269. 1414.42  32
  -2   2   3 180747. 1748.81  27
   2  -2  -3 180288. 2156.14   7
  -2   2   2 162184. 1279.44  32
   2  -2  -2 167022. 1646.91   8
  -2   2   2 178275. 1689.56  27
   2  -2  -2 172443. 1908.52   7
  -2   2   2 173197. 1708.12  29
   2  -2  -2 169999. 1806.26  30
  -2   2   1 11365.6 419.523  29
  -2   2   1 10827.4 346.461  32
  -2   2   1 11245.8 412.527   6
  -2   2   1 11949.5 433.335  27
   2  -2  -1 11363.1 448.602   8
   2  -2  -1 11159.1 452.147   7
   2  -2  -1 11595.8 469.935  30
   2  -2   0 27037.3 743.267  30
  -2   2   0 22725.1 557.116   6
   2  -2   0 23155.7 615.886   7
  -2   2   0 23264.2 634.178  29
  -2   2   0 26527.4 721.321  27
   2  -2   0 23582.8 686.000   8
  -2   2  -1 4101.61 304.227  29
  -2   2  -1 4108.71 315.245  27
  -2   2  -1 4260.08 319.188   3
   2  -2   1 3940.32 299.555   8
   2  -2   1 4757.79 323.437  30
   2  -2   1 3503.95 233.962   7
   2  -2   2 2268.13 256.737   8
  -2   2  -2 2366.99 252.659  29
  -2   2  -2 2214.14 247.908   3
  -2   2  -2 2117.79 240.767  27
  -2   2  -3 76.4266 38.4164  29
  -2   2  -3 116.095 77.4862   3
   2  -2   3 120.559 77.4427   8
   2  -2   4 7123.42 575.771   8
  -2   2  -4 6953.24 533.113  29
  -2   2  -4 6443.35 510.534   3
   2  -2   5 960.928 104.119  11
  -2   2  -5 1093.30 250.658   3
  -2   2  -5 1058.14 229.136  29
   2  -2   6 2781.15 179.960  11
   2  -2   7 502.646 75.9584  11
   2  -2   8 14.2775 25.5027  11
   2  -2   8-0.96586 25.2401  12
   2  -2   9 77.1929 21.5058  12
  -2   1  11 48.6550 24.0991  22
  -2   1  11-0.50670 14.7365  11
  -2   1  10-36.3881 25.3779  11
  -2   1  10-1.66730 20.3296  22
  -2   1   9 47.6572 27.5396  23
  -2   1   9 14.0996 19.8533  24
  -2   1   8 29.8816 25.1966  17
  -2   1   8 46.1946 22.3356  24
  -2   1   8 49.6281 35.1245  23
  -2   1   7 9148.36 665.671   5
  -2   1   7 8852.66 661.886  28
   2  -1  -7 8133.45 658.441   7
   2  -1  -7 9691.08 753.710   1
   2  -1  -7 10013.2 768.403   3
   2  -1  -6 38.3429 40.1874   1
   2  -1  -6-193.337 96.4526   7
  -2   1   6-13.8939 58.4824  28
   2  -1  -6-321.245 128.152   3
   2  -1  -5 744.263 146.865  30
   2  -1  -5 872.196 179.738   3
  -2   1   5 1011.41 181.082  28
   2  -1  -5 970.986 195.697   1
   2  -1  -5 931.419 187.927   7
   2  -1  -4 10125.0 552.634   1
  -2   1   4 10374.0 499.600  28
   2  -1  -4 10446.8 554.031   7
  -2   1   4 10175.0 431.486  32
   2  -1  -4 9713.05 439.480   2
   2  -1  -4 10791.4 505.200  30
   2  -1  -3 24910.6 698.373   2
   2  -1  -3 25846.5 771.434   1
  -2   1   3 22596.6 587.882  27
   2  -1  -3 22487.5 718.612   7
  -2   1   3 24925.2 554.538  32
  -2   1   3 24033.8 671.690  28
  -2   1   3 22677.7 383.784  31
   2  -1  -3 23273.9 669.019  30
  -2   1   2 15722.0 312.491  31
   2  -1  -2 17623.3 542.710  30
  -2   1   2 18261.6 495.647  27
   2  -1  -2 19227.5 593.364   7
  -2   1   2 19862.0 442.506  32
   2  -1  -2 20392.5 589.403   1
   2  -1  -2 17277.6 431.194   8
  -2   1   1 126329. 1091.19  32
  -2   1   1 125725. 1185.52  29
   2  -1  -1 125783. 1288.54   8
   2  -1  -1 124353. 1339.65   7
   2  -1   0-6.71538 23.7759   8
   2  -1   0-3.77073 34.1103  30
  -2   1   0-3.48375 32.6439  27
  -2   1   0 0.66381 13.7920   6
   2  -1   0 23.0659 27.7466   7
   2  -1   1 1132.74 132.130  30
  -2   1  -1 1056.45 141.749  27
   2  -1   1 948.390 131.318   8
   2  -1   1 845.688 89.4447   7
  -2   1  -1 894.415 116.613   3
  -2   1  -1 844.871 69.5396   6
  -2   1  -1 1093.45 137.694  29
  -2   1  -2 28.3134 37.5631   3
  -2   1  -2 50.2186 37.5901  29
   2  -1   2 23.2469 28.2870   5
   2  -1   2 24.3281 42.3497   8
   2  -1   3 3757.09 260.006   5
   2  -1   3 5104.65 372.674   8
  -2   1  -3 4552.77 335.079   3
  -2   1  -3 4355.79 341.435  29
  -2   1  -4 139.232 78.9779   3
   2  -1   4 71.3689 52.0391   8
  -2   1  -4 121.142 96.8197  29
  -2   1  -5 13226.0 758.981  29
  -2   1  -5 12318.7 726.507   3
   2  -1   6 19395.4 457.442  22
   2  -1   6 20732.5 471.480  24
  -2   1  -6 18898.7 982.856   3
   2  -1   6 20000.6 476.101  11
   2  -1   7 3981.15 213.332  24
   2  -1   7 3637.31 203.274  22
   2  -1   7 3974.89 214.275  11
   2  -1   8 50.6870 28.4204  22
   2  -1   8 29.0039 24.8904  11
   2  -1   9-0.65175 16.4666  12
  -2   0  11 319.131 40.2690  22
   2   0 -11 410.645 51.8803  13
  -2   0  11 284.742 37.4814  11
  -2   0  10 169.206 40.8436  11
  -2   0  10 160.270 40.8956  22
  -2   0   9 82.9425 26.7791  17
  -2   0   9 87.2237 37.2977  11
  -2   0   8 391.311 73.1110  23
  -2   0   8 400.372 74.5394  17
  -2   0   7 282.071 129.203  28
  -2   0   7 110.687 34.4579  17
   2   0  -7 6.03126 37.7041   3
   2   0  -7 295.239 133.931   1
  -2   0   7 191.278 137.315   5
  -2   0   7 125.433 43.2079  23
   2   0  -7 184.433 98.5906  29
  -2   0   6 248.800 95.0640  28
   2   0  -6 169.090 70.8121   3
   2   0  -5 478.413 142.373   7
   2   0  -5 419.132 146.588   3
  -2   0   5 301.340 88.1884  28
   2   0  -5 449.032 134.971   1
  -2   0   4 562.872 102.960  32
   2   0  -4 703.690 141.791   3
   2   0  -4 603.491 131.730   7
  -2   0   4 663.778 134.098  28
   2   0  -4 724.483 152.744   1
   2   0  -3 55512.6 1075.81   3
   2   0  -3 55861.4 1123.91   1
   2   0  -3 53169.1 943.613  30
   2   0  -3 52878.7 1080.52   7
   2   0  -3 51641.5 905.355   2
  -2   0   3 52406.6 1003.72  28
  -2   0   3 54948.6 780.212  31
  -2   0   3 54686.6 882.718  32
   2   0  -2 1395.89 150.188   1
   2   0  -2 1175.41 86.6964   8
  -2   0   2 1427.98 140.910  28
  -2   0   2 1452.38 103.609  31
   2   0  -2 1315.21 140.891  30
   2   0  -2 1413.85 145.432   2
  -2   0   2 1408.02 121.751  32
  -2   0   1 136546. 1062.26  31
  -2   0   1 139449. 1121.69  32
   2   0  -1 136322. 1339.45   7
   2   0  -1 136583. 1182.02   8
   2   0   0 69087.7 546.454   1
   2   0   0 72495.6 904.702   8
   2   0   0 71843.9 822.221   7
  -2   0   0 70030.2 729.397  29
  -2   0  -1 26717.6 561.468  29
   2   0   1 26094.9 414.465   4
   2   0   1 25286.8 372.008   7
  -2   0  -1 24861.1 410.123   3
  -2   0  -2 140.702 43.6670   3
  -2   0  -2 224.587 61.7366  29
   2   0   2 195.036 51.5132   5
  -2   0  -2 121.204 20.0739   6
   2   0   2 215.848 69.2614   8
   2   0   2 236.028 58.0858   2
  -2   0  -2 144.681 31.2831   1
   2   0   3 9985.97 456.809   8
   2   0   3 9246.79 315.259   2
   2   0   3 9022.47 401.325   5
  -2   0  -3 8722.68 329.458   1
  -2   0  -3 9764.07 460.732  29
  -2   0  -3 9793.07 432.529   3
   2   0   4 8170.20 452.373   5
   2   0   4 8602.73 465.088   8
  -2   0  -4 7785.09 479.442  29
  -2   0  -4 8448.69 477.214   3
   2   0   5 3639.84 334.193   8
   2   0   5 3809.95 349.705   5
  -2   0  -5 3665.57 364.656   3
  -2   0  -5 3615.54 372.997  29
   2   0   6 18617.7 851.369   5
  -2   0  -6 20314.0 957.556   3
  -2   0  -6 19208.0 939.472  29
   2   0   7 3588.40 198.948  24
   2   0   7 3686.99 206.398  22
   2   0   8 737.951 93.8054  22
   2   0   8 759.217 93.9914  24
   2   0   9 781.130 92.7387  22
   2   0   9 639.025 80.1198  24
   2   0   9 635.219 78.4282  12
   2   0  10 21.9805 20.8458  22
   2   1 -10 510.977 68.5374  13
  -2  -1  10 444.391 53.7839  22
  -2  -1  10 492.054 60.7184  11
  -2  -1   9 761.089 89.9385  22
  -2  -1   9 646.684 81.9021  17
  -2  -1   9 868.707 99.3294  11
   2   1  -9 862.042 103.928  13
  -2  -1   8 4941.47 256.854  11
  -2  -1   8 4748.53 250.213  17
  -2  -1   7 2122.72 166.392  17
  -2  -1   7 2114.51 170.775  23
  -2  -1   6 2956.43 352.139   5
   2   1  -6 3025.30 405.644   3
  -2  -1   6 2726.01 366.309  28
   2   1  -6 3236.99 419.892   1
   2   1  -5 4949.18 419.069  29
  -2  -1   5 4765.92 425.888  28
   2   1  -5 4810.13 455.242   1
   2   1  -5 4986.91 462.108   3
  -2  -1   4 10467.6 557.045  28
   2   1  -4 10347.6 584.035   1
   2   1  -4 9835.68 562.256   3
  -2  -1   3 1185.96 136.306  31
   2   1  -3 901.665 145.050   7
   2   1  -3 827.734 105.119   2
   2   1  -3 1048.70 163.316   1
  -2  -1   3 1222.03 165.671  28
  -2  -1   3 1081.54 138.098  32
   2   1  -3 1086.78 161.748   3
  -2  -1   3 1120.95 117.715  26
  -2  -1   2 7754.70 293.713  31
  -2  -1   2 7728.96 311.789  32
   2   1  -2 8103.81 391.382   1
   2   1  -2 7233.41 314.056   2
   2   1  -2 7341.47 359.862   7
  -2  -1   2 7741.36 358.691  28
   2   1  -2 7643.36 355.132   3
  -2  -1   1 2690.11 164.978  27
  -2  -1   1 2348.14 164.429  28
   2   1  -1 2919.47 171.107   3
   2   1  -1 2897.72 195.623   1
   2   1  -1 2579.62 175.921   2
  -2  -1   0 61299.5 640.412  28
  -2  -1   0 62199.8 690.935  27
   2   1   0 60965.0 651.581   1
   2   1   0 57636.7 448.359   3
  -2  -1  -1 193717. 1189.74  29
   2   1   1 196135. 1416.51   4
   2   1   1 196498. 1412.65   2
  -2  -1  -1 194238. 1301.70  27
   2   1   1 193782. 1002.53   6
  -2  -1  -2 78904.7 987.100  29
   2   1   2 79681.4 960.380   4
   2   1   2 76260.0 1052.95   8
   2   1   2 78135.3 876.280   2
  -2  -1  -2 74603.9 747.197   1
  -2  -1  -2 77583.7 811.315   3
  -2  -1  -3 34945.4 677.158   1
   2   1   3 34517.8 566.171   2
   2   1   3 35218.6 698.584   4
   2   1   3 34463.0 773.657   5
   2   1   3 34584.5 712.701  28
  -2  -1  -3 35121.5 745.750   3
   2   1   3 35041.7 769.592   8
   2   1   4 51.2702 49.0131  28
  -2  -1  -4 59.3739 33.8901  29
  -2  -1  -4 25.7112 47.0127   1
  -2  -1  -4-9.52924 37.8841   3
   2   1   4 25.0220 34.9193   5
   2   1   4 36.0810 37.3434   8
   2   1   5 548.311 130.878   5
   2   1   5 398.495 108.994  28
   2   1   5 394.259 99.9697   8
  -2  -1  -5 659.225 149.455  29
  -2  -1  -5 608.431 140.972   3
  -2  -1  -6 930.134 192.200   3
   2   1   6 1094.01 205.338  28
  -2  -1  -6 986.496 204.790  29
   2   1   6 1207.39 218.047   5
   2   1   7 2797.97 174.844  24
  -2  -1  -7 3022.47 389.535  29
   2   1   7 2981.54 181.048  22
   2   1   7 2869.05 360.776   5
  -2  -1  -7 2658.34 372.933   3
   2   1   8 19348.5 478.476  24
   2   1   8 19092.9 473.182  22
   2   1   9 1159.22 116.475  22
   2   1   9 1154.15 115.813  24
   2   1  10 888.701 89.8662  24
   2   1  10 1042.63 101.551  22
   2   1  11 164.334 30.0652  24
   2   1  11 144.310 30.8204  22
   2   2 -10 151.681 30.6861  13
  -2  -2  10 127.838 27.7748  11
   2   2  -9 4050.47 203.376  13
  -2  -2   9 3668.54 186.423  11
  -2  -2   9 3530.87 174.728  17
   2   2  -8 423.428 78.2388  13
  -2  -2   8 515.650 78.4312  17
  -2  -2   8 461.625 77.6131  11
  -2  -2   7 276.343 62.4220  17
  -2  -2   7 189.218 48.9386  11
  -2  -2   6 6283.67 280.674  17
  -2  -2   5 1771.16 290.465  28
   2   2  -5 1907.65 309.766   1
   2   2  -5 2209.13 323.740   3
  -2  -2   4 2698.07 321.691  28
   2   2  -4 2626.06 311.820   1
   2   2  -4 2047.38 234.725  29
   2   2  -4 2367.51 293.362   3
  -2  -2   3 4.67642 22.9363  26
  -2  -2   3-21.1759 31.3002  32
   2   2  -3 28.1411 32.9496   3
  -2  -2   3-10.4047 42.2713  28
   2   2  -3 46.4673 37.7037  29
  -2  -2   2 3215.32 237.406  32
  -2  -2   2 2666.91 201.857  26
   2   2  -2 2787.84 191.369  29
  -2  -2   2 3016.83 248.580  28
   2   2  -2 2820.35 207.649   2
   2   2  -2 3074.36 260.254   1
  -2  -2   2 3080.62 224.932  31
   2   2  -2 3094.28 255.068   3
  -2  -2   1 22332.8 533.575  32
  -2  -2   1 22231.6 560.170  28
   2   2  -1 20782.4 370.202  29
   2   2  -1 22950.4 617.602   1
  -2  -2   1 22506.8 542.855  31
   2   2  -1 24200.7 597.643   3
   2   2  -1 23272.5 576.022   2
  -2  -2   1 23440.4 545.805  26
  -2  -2   0 988992. 2764.54  28
   2   2   0 993429. 3413.29   1
   2   2   0 999999. 3063.66   3
  -2  -2  -1 45799.1 454.106  27
   2   2   1 47196.6 729.973   6
   2   2   2 47.3421 30.6666   5
  -2  -2  -2 47.8408 19.6086  27
   2   2   2 63.0316 38.6590   8
   2   2   2 26.1091 29.1361   2
   2   2   2 102.422 34.8338   6
   2   2   3 3270.99 171.910  28
   2   2   3 3737.95 213.134   2
   2   2   3 3533.49 218.836   8
   2   2   3 4054.64 262.618   5
  -2  -2  -3 3306.22 179.337   7
   2   2   3 3563.93 215.696   6
   2   2   3 3338.85 233.544   4
   2   2   4 104.083 41.2440   8
   2   2   4 182.065 70.9687   5
   2   2   4 142.281 47.4965  28
   2   2   4 220.545 63.4146   4
  -2  -2  -4 156.193 67.1861   1
   2   2   5 1476.56 191.568  28
  -2  -2  -5 1421.79 200.842   1
   2   2   5 1523.68 206.636   5
   2   2   5 1481.29 160.263   8
  -2  -2  -5 1622.76 214.980   3
  -2  -2  -6 273.672 86.6342   3
   2   2   6 438.252 128.690   5
  -2  -2  -6 363.487 114.456   1
   2   2   7-0.22545 59.2447   5
  -2  -2  -7 97.2443 73.4839  29
  -2  -2  -7-18.8070 55.0798   3
   2   2   8 23.8172 25.2156  22
   2   2   8 41.7988 34.8295  24
   2   2   8 49.8782 31.7124  19
   2   2   9 20153.7 504.400  24
   2   2   9 18843.2 464.206  22
   2   2  10 2545.06 166.140  24
   2   2  10 2309.93 157.132  22
   2   2  11-22.1247 21.4649  22
   2   2  11-10.4191 20.2009  24
   2   3  -9 90.4239 28.8008  13
  -2  -3   9 33.6474 16.5346  17
  -2  -3   9 64.7872 23.1905  11
   2   3  -8 51.0126 33.4520  13
  -2  -3   8 137.935 40.5105  17
  -2  -3   8 44.7287 30.2385  11
   2   3  -7 1281.74 133.998  13
  -2  -3   7 1217.32 123.581  11
  -2  -3   7 1198.76 124.672  17
   2   3  -6 770.674 104.392  13
  -2  -3   6 869.249 106.981  11
  -2  -3   6 803.089 104.450  17
   2   3  -5 645.907 184.587   3
  -2  -3   5 514.789 81.0545  17
   2   3  -5 566.154 85.2013  13
   2   3  -5 686.945 196.763   1
  -2  -3   5 492.705 149.905  28
  -2  -3   5 628.768 90.9024  11
   2   3  -4 868.642 202.038   3
  -2  -3   4 1142.88 235.622  28
   2   3  -4 833.478 188.848   1
  -2  -3   3 5695.36 458.588  28
   2   3  -3 5627.82 447.281   1
   2   3  -3 5098.53 426.441   3
  -2  -3   2 2501.25 236.291  31
  -2  -3   2 1978.50 198.674  26
  -2  -3   2 2094.11 213.310  32
   2   3  -2 2264.46 249.284   1
  -2  -3   2 2237.38 254.079  28
   2   3  -2 2260.76 249.682   3
   2   3  -2 2205.08 197.503  29
  -2  -3   1 1570.44 167.822  31
  -2  -3   1 1346.75 165.241  28
  -2  -3   1 1306.51 151.502  26
  -2  -3   1 1445.30 156.226  32
   2   3  -1 1283.82 162.249   3
   2   3  -1 1409.21 130.718  29
  -2  -3   0 83012.4 1013.14  32
   2   3   0 78720.1 769.229  29
  -2  -3   0 82422.7 1144.65  26
  -2  -3   0 80602.4 1080.75  31
   2   3   0 80561.3 1146.65   3
   2   3   0 79079.2 1239.27   6
  -2  -3  -1 205027. 1616.63  31
  -2  -3  -1 212998. 1502.05  32
   2   3   1 210477. 1894.88   6
  -2  -3  -1 206633. 1771.51  26
   2   3   1 204161. 1851.55   4
  -2  -3  -2 16716.0 497.214  26
  -2  -3  -2 16508.5 394.932  32
   2   3   2 14692.6 513.819   4
   2   3   2 16223.3 489.181   5
  -2  -3  -2 16065.0 454.139  31
   2   3   2 15795.9 521.218   6
   2   3   3 121.845 61.8478   4
  -2  -3  -3 90.5096 54.2768  31
  -2  -3  -3 96.4968 48.5140  26
   2   3   3 125.252 56.9341   5
   2   3   3-3.21703 26.1417   6
   2   3   4 5.70881 42.2389   6
  -2  -3  -4 37.2444 36.7427   7
  -2  -3  -4-14.8164 24.0678  26
   2   3   4 24.8807 33.7091   4
   2   3   5 1255.98 181.312   4
   2   3   5 1249.94 187.938   5
  -2  -3  -5 1325.26 172.042  30
  -2  -3  -6 238.602 96.8996   1
   2   3   6 193.783 84.4144   5
  -2  -3  -7 1267.81 247.482   3
   2   3   7 851.580 185.507   5
   2   3   8 4720.20 234.877  24
   2   3   8 4372.92 224.817  22
   2   3   8 4826.59 246.516  19
   2   3   9 2408.18 169.218  22
   2   3   9 2422.29 174.365  24
   2   3  10 43.1865 25.0058  24
   2   3  10 33.6597 28.2455  22
   2   3  11 3169.19 167.492  22
   2   3  11 3139.96 163.857  24
   2   3  12 246.813 36.8607  22
   2   3  12 218.828 32.6353  24
   2   4  -8 245.012 45.0510  13
  -2  -4   8 255.052 48.4601  11
  -2  -4   8 229.739 41.7042  17
   2   4  -7 769.176 94.5663  13
  -2  -4   7 676.089 86.4312  11
  -2  -4   7 780.909 93.6025  17
  -2  -4   6 538.417 83.8182  17
   2   4  -6 609.636 90.1046  13
  -2  -4   6 493.185 80.5372  11
  -2  -4   5 1111.31 121.611  11
   2   4  -5 1139.02 123.658  13
  -2  -4   5 1137.84 122.555  17
   2   4  -4 1428.62 264.738   3
   2   4  -4 1611.36 139.111  13
   2   4  -4 1790.27 320.127   6
  -2  -4   4 1686.90 147.118  11
  -2  -4   4 1816.73 150.552  17
   2   4  -3 952.254 212.145   6
   2   4  -3 565.399 155.446   3
  -2  -4   2 19360.3 735.979  26
   2   4  -2 19417.5 833.445   3
   2   4  -2 18982.8 839.097   6
  -2  -4   1 33037.2 897.687  31
   2   4  -1 32273.7 945.898   4
   2   4  -1 30706.1 952.196   3
   2   4  -1 29097.5 963.125   6
  -2  -4   1 30462.9 852.213  26
   2   4   0 23942.5 757.287   4
  -2  -4   0 23070.8 675.455  30
  -2  -4   0 25621.0 718.582  31
  -2  -4   0 23285.5 615.220  32
   2   4   0 24330.7 772.869   3
   2   4   0 24218.0 597.147  29
   2   4   0 23729.5 800.774   6
  -2  -4   0 23252.9 705.026  26
   2   4   1 84611.0 1402.75   4
   2   4   1 83663.8 1438.16   6
  -2  -4  -1 87295.1 1190.93  31
  -2  -4  -1 84789.9 1303.78  26
  -2  -4  -2 255.226 61.3258  26
   2   4   2 160.856 69.3300   4
  -2  -4  -2 92.4978 33.6873  32
  -2  -4  -2 128.571 52.1537  31
   2   4   2 190.569 68.6649   6
  -2  -4  -3 7759.63 324.645  31
  -2  -4  -3 7393.36 376.766  26
   2   4   3 7685.69 430.495   4
  -2  -4  -3 7281.35 404.894  30
   2   4   3 8282.24 397.040   5
   2   4   3 7806.49 432.907   6
  -2  -4  -4 1396.52 160.816  26
  -2  -4  -4 1514.86 193.443  30
   2   4   4 1408.52 191.175   4
   2   4   4 1482.13 187.674   5
  -2  -4  -4 1709.28 200.211   7
   2   4   4 1574.68 208.098   6
  -2  -4  -4 1551.07 151.845  31
   2   4   5 3265.59 309.728   4
  -2  -4  -5 3701.35 318.797   7
   2   4   5 3386.45 311.562   5
   2   4   5 3712.17 335.114   6
  -2  -4  -5 3847.37 323.938  30
   2   4   6 40431.9 1182.32   5
  -2  -4  -6 43690.2 1151.74  30
  -2  -4  -7 15587.2 894.911   1
   2   4   7 14510.1 776.380   5
   2   4   8 2059.86 156.311  22
   2   4   8 2411.34 174.963  19
   2   4   8 2367.60 168.468  18
   2   4   8 2328.77 165.016  24
   2   4   8 2074.13 147.788  16
   2   4   9 161.543 50.6910  24
   2   4   9 84.7332 35.6100  22
   2   4   9 54.9748 32.1377  19
   2   4  10 7676.52 302.158  22
   2   4  10 6920.28 286.224  24
   2   4  11 108.512 36.1634  22
   2   4  11 29.5429 19.1077  24
   2   4  12 2039.48 106.936  24
   2   4  12 2164.24 116.576  22
  -2  -5   7 216.548 41.3250  17
   2   5  -7 267.184 49.5065  13
  -2  -5   7 197.791 39.7872  11
   2   5  -6-29.0131 36.9953  13
  -2  -5   6-7.25846 25.7266  17
  -2  -5   6-18.6587 22.4411  11
   2   5  -5 220.431 55.9276  13
  -2  -5   5 120.425 39.2359  17
  -2  -5   5 203.298 54.8223  11
  -2  -5   4 242.102 59.0627  17
   2   5  -4 169.093 46.9907  13
  -2  -5   4 295.826 66.6419  11
   2   5  -3-10.9252 21.3514  13
  -2  -5   3-4.38148 30.5247  17
  -2  -5   3 29.5069 25.0083  11
   2   5  -2 890.273 200.443   6
  -2  -5   2 797.395 178.137  26
   2   5  -2 718.430 177.478   3
   2   5  -1 14775.5 781.925   3
   2   5  -1 13827.9 757.502   6
  -2  -5   1 12376.9 636.672  26
  -2  -5   0 5454.45 357.263  30
  -2  -5   0 6663.87 436.365  26
   2   5   0 6143.85 432.310   4
   2   5   0 6549.23 497.542   6
  -2  -5  -1 335.118 89.6088  26
   2   5   1 298.102 93.4151   4
  -2  -5  -1 452.789 115.166  30
  -2  -5  -1 468.381 98.4977  31
   2   5   1 499.100 140.058   6
  -2  -5  -2 5551.19 378.257  26
   2   5   2 5634.67 414.582   4
   2   5   2 5445.63 424.718   6
  -2  -5  -2 5253.25 372.089  30
  -2  -5  -2 5146.21 315.706  31
  -2  -5  -3 7523.44 351.228  31
  -2  -5  -3 7815.31 441.305  26
  -2  -5  -3 7753.05 454.023  30
   2   5   3 8537.48 511.993   4
   2   5   3 8180.29 514.567   6
   2   5   4 1651.90 233.885   6
  -2  -5  -4 1514.00 193.716  26
  -2  -5  -4 1771.32 220.399  30
   2   5   4 1613.13 228.025   4
   2   5   4 1616.48 199.677   5
   2   5   5 6158.20 460.866   4
  -2  -5  -5 6136.15 439.981  30
  -2  -5  -5 5574.81 440.805   7
   2   5   5 5298.41 398.185   5
   2   5   5 6176.38 471.588   6
   2   5   6-120.289 71.8530   5
  -2  -5  -6-114.002 67.8708  30
  -2  -5  -7 2653.74 329.819  30
  -2  -5  -7 2980.29 424.786   1
   2   5   7 1970.67 286.115   5
   2   5   8 5370.11 243.863  16
   2   5   8 5153.11 257.682  19
   2   5   8 4684.93 234.481  24
   2   5   8 4911.28 239.096  18
   2   5   9 1738.77 150.543  19
   2   5   9 1710.17 138.107  16
   2   5   9 1762.34 147.583  24
   2   5   9 1557.85 135.835  22
   2   5   9 1861.55 150.492  18
   2   5  10 57.1407 34.2910  24
   2   5  10 80.4031 36.9375  22
   2   5  10 0.80778 21.6247  19
   2   5  11 253.548 51.2341  22
   2   5  11 216.707 45.6817  24
   2   5  12 134.832 29.4174  22
   2   5  12 97.7828 27.1333  24
  -2  -6   6 42.6443 22.2136  17
   2   6  -6 110.153 32.6388  13
  -2  -6   6 85.6175 33.0530  11
  -2  -6   5 3899.59 204.960  11
   2   6  -5 3965.79 208.277  13
  -2  -6   5 3923.41 202.396  17
   2   6  -4 284.107 61.9851  13
  -2  -6   4 228.976 55.9164  11
  -2  -6   4 318.802 67.7342  17
  -2  -6   3 50.7919 33.1092  17
  -2  -6   3 26.2723 21.3281  11
   2   6  -3 94.4199 43.3463  13
   2   6  -2 719.916 96.5613  13
  -2  -6   2 751.360 97.5371  11
   2   6  -2 734.892 99.6046  20
  -2  -6   2 803.637 102.228  17
  -2  -6   1 30.5315 40.4692  26
  -2  -6   1 36.1081 26.0124  17
   2   6  -1-3.29610 24.2507  13
   2   6  -1 26.5387 19.9793  20
   2   6  -1 68.6104 96.8999   6
  -2  -6   0-26.0485 34.4366  26
   2   6   0 140.284 94.4488   6
  -2  -6  -1 334.406 92.9624  30
  -2  -6  -1 280.234 68.2443  26
   2   6   1 499.264 159.940   6
  -2  -6  -2 78.9392 50.0479  30
  -2  -6  -2 29.0422 31.4738  26
  -2  -6  -3 11358.2 616.643  30
  -2  -6  -3 12097.0 631.072  26
   2   6   3 11352.2 649.636   4
   2   6   3 12435.4 729.284   6
   2   6   4 4992.14 437.398   4
  -2  -6  -4 5242.37 423.725  30
  -2  -6  -4 4866.76 393.864  26
   2   6   4 5118.94 464.768   6
  -2  -6  -5 198.496 66.1929  30
   2   6   5 287.625 134.060   4
  -2  -6  -5 148.261 56.4061   7
   2   6   5 139.783 81.5002   6
  -2  -6  -6 1007.77 205.364  30
  -2  -6  -6 750.560 193.088   7
   2   6   6 610.383 166.551   6
   2   6   7 1626.67 135.010  16
  -2  -6  -7 1571.99 273.720  30
   2   6   7 1595.39 142.996  19
   2   6   7 1686.86 139.294  18
   2   6   8 637.776 86.4861  16
   2   6   8 522.688 78.3286  24
   2   6   8 518.792 82.6979  19
   2   6   8 480.114 75.3270  18
   2   6   9 613.245 86.2008  16
   2   6   9 491.242 74.8385  18
   2   6   9 522.346 86.7579  24
   2   6   9 605.460 88.7684  19
   2   6  10 777.457 98.6237  24
   2   6  10 793.870 99.3831  19
   2   6  10 662.391 85.2509  18
   2   6  11 348.163 58.3465  24
   2   6  11 347.666 60.2815  19
   2   6  12 364.088 48.3070  24
  -2  -7   5 740.444 74.5611  17
  -2  -7   4 15.0825 20.5929  17
   2   7  -4-8.14207 18.9837  13
  -2  -7   3 51.4649 29.2628  17
   2   7  -3 2.48942 20.3180  13
  -2  -7   3-4.27166 19.6646  11
   2   7  -2 137.058 41.4295  13
  -2  -7   2 153.041 49.0382  17
   2   7  -2 135.311 44.1591  20
  -2  -7   2 164.499 50.0072  11
   2   7  -1 2840.16 191.729  13
   2   7  -1 2992.81 205.177  20
  -2  -7   1 3183.35 204.849  17
   2   7   0 73.8959 37.3893  13
  -2  -7   0 59.9101 27.8648  17
   2   7   0 90.4411 38.1578  20
   2   7   1 173.200 50.0321  13
  -2  -7  -1 146.501 45.8953  17
   2   7   1 97.1440 32.5334  20
   2   7   1 156.310 46.8261  18
  -2  -7  -2 179.747 82.1217  30
   2   7   2 138.691 42.9422  13
   2   7   2 117.231 38.4962  20
   2   7   2 165.936 48.0924  18
   2   7   2 151.083 94.5652   6
  -2  -7  -3 295.613 90.6910  26
   2   7   3 192.530 48.6637  13
  -2  -7  -3 213.684 93.2544  30
   2   7   3 283.416 60.7830  20
   2   7   3 297.574 62.1132  18
   2   7   3 104.982 80.6285   6
  -2  -7  -4 1464.77 249.319  26
   2   7   4 1733.57 142.751  13
  -2  -7  -4 1837.93 319.304   7
   2   7   4 1989.53 162.520  18
   2   7   4 1354.00 260.258   6
  -2  -7  -4 1786.48 270.585  30
   2   7   5 1175.18 113.953  16
   2   7   5 1224.42 124.728  15
   2   7   5 1388.68 126.943  13
  -2  -7  -5 1372.82 272.496   7
   2   7   5 1352.87 135.962  19
   2   7   5 1516.60 142.795  18
   2   7   5 1347.39 265.258   6
   2   7   6 119.398 42.9286  16
   2   7   6 166.946 48.8601  19
   2   7   6 127.201 46.3718  18
   2   7   7 244.749 59.6559  19
   2   7   7 286.933 58.8422  16
   2   7   7 351.389 64.0807  18
   2   7   8 66.8379 24.1991  16
   2   7   8 60.0913 32.4155  18
   2   7   8 15.2005 23.1593  19
   2   7   9 108.395 38.3501  24
   2   7   9 91.8049 35.8336  19
   2   7   9 43.0893 23.2897  18
   2   7  10 506.139 75.6462  24
   2   7  10 545.226 79.4528  19
   2   7  10 516.737 72.5740  18
   2   7  11 14.2271 19.8670  19
   2   7  11 12.1938 19.4173  24
   2   7  12-38.5570 15.5646  24
  -2  -8   4 118.936 29.5139  17
  -2  -8   3-24.1573 23.4499  17
   2   8  -3 35.2083 21.7976  13
  -2  -8   2 70.2816 32.3776  17
   2   8  -2 4.03564 16.7446  13
  -2  -8   1 379.788 71.6094  17
   2   8  -1 428.059 72.6473  13
   2   8   0 6819.78 291.244  13
   2   8   0 7013.58 311.000  20
  -2  -8   0 7097.38 301.905  17
  -2  -8  -1 729.332 99.7110  17
   2   8   1 952.734 110.254  18
   2   8   1 829.670 103.889  13
   2   8   1 897.667 112.144  20
   2   8   2 163.894 49.2347  13
   2   8   2 107.343 41.0934  20
   2   8   2 148.298 45.1775  18
   2   8   3 20.4900 31.7627  13
   2   8   3-18.7623 31.9256  20
   2   8   3-14.8339 23.9780  18
   2   8   4 3269.72 216.207  15
   2   8   4 2985.52 192.558  13
   2   8   4 3591.17 223.956  18
   2   8   5 2479.98 186.222  15
   2   8   5 2239.82 164.924  13
   2   8   5 2204.26 176.767  19
   2   8   6 1278.51 122.737  16
   2   8   6 1279.82 129.186  15
   2   8   6 1306.04 135.644  19
   2   8   6 1676.93 155.913  18
   2   8   7 57.8936 36.5047  16
   2   8   7 85.7745 39.6489  19
   2   8   7 147.660 50.3905  18
   2   8   8 1662.38 138.943  16
   2   8   8 1650.18 144.777  19
   2   8   8 1677.58 145.693  18
   2   8   9 1203.93 115.507  18
   2   8   9 1150.01 115.795  19
   2   8  10 263.327 48.8114  18
   2   8  10 277.366 52.8726  19
   2   8  11-10.0675 13.0408  19
  -2  -9   2 24.8358 17.3456  17
   2   9  -1 27.9992 21.3378  13
  -2  -9   1 21.7351 22.7888  17
   2   9  -1 34.8834 17.7689  15
  -2  -9   0 7.50401 16.9743  17
   2   9   0 57.8446 32.2409  13
   2   9   0-5.78367 19.7531  15
   2   9   1 1306.96 119.939  13
   2   9   1 1459.81 131.823  15
   2   9   1 1214.56 108.768  18
  -2  -9  -1 1245.75 117.684  17
   2   9   2 1907.76 156.175  15
   2   9   2 1893.69 149.434  13
   2   9   2 1850.73 142.190  18
   2   9   3 52.1245 30.9280  15
   2   9   3 22.6680 24.3396  13
   2   9   3 28.3017 24.1674  18
   2   9   4 674.578 97.2805  15
   2   9   4 701.587 97.7487  19
   2   9   4 811.547 103.713  18
   2   9   4 710.934 93.1881  13
   2   9   5 102.476 42.7353  15
   2   9   5 90.6747 31.7795  19
   2   9   5 133.549 67.8140  18
   2   9   6 63.9092 27.7000  15
   2   9   6 97.1509 33.9138  19
   2   9   6 66.4108 29.6555  18
   2   9   7 1416.86 125.511  15
   2   9   7 1522.44 134.097  19
   2   9   8 110.257 39.1560  18
   2   9   8 76.5624 33.4238  19
   2   9   9 66.3321 31.2735  19
   2   9   9 77.7321 34.8163  18
   2   9  10 37.6586 22.0787  19
   2   9  10 65.1812 27.0068  18
   2  10   1 396.025 50.8080  13
   2  10   1 472.060 61.9493  15
   2  10   2 246.485 44.5159  13
   2  10   2 340.934 56.7128  15
   2  10   2 245.779 42.0097  18
   2  10   3 857.482 91.8899  15
   2  10   3 923.324 89.5993  18
   2  10   4 25.0574 20.2295  15
   2  10   4 23.6258 22.9184  18
   2  10   5 31.3851 25.3234  15
   2  10   5 42.2603 24.2892  18
   2  10   6 992.535 98.8467  15
   2  10   6 817.817 83.2126  19
   2  10   6 1023.63 103.062  18
   2  10   7 351.163 53.2069  19
   2  10   7 260.311 46.1583  15
   2  10   7 388.052 58.9691  18
   2  10   8 698.886 76.3277  18
   2  10   9 31.7884 21.7678  18
   2  11   4 498.697 52.7784  15
   2  11   5 888.848 71.6031  15
   2  11   5 791.551 64.1287  18
   2  11   6 62.9674 19.3744  18
  -2 -11  -7 21.5003 17.7044  25
   2  11   7 24.9555 14.6578  18
   3  -8  -8 2.67543 12.5607  25
  -3   8   8 20.3782 19.4432  23
   3  -8  -7 117.790 33.9031  25
  -3   8   6-27.9945 25.1114  15
   3  -8  -6 42.5046 26.2886  25
  -3   8   6-23.9428 19.5823  18
   3  -8  -5 54.7863 36.9709  25
  -3   8   5 9.07248 16.7346  15
  -3   8   5 6.26324 14.3279  18
   3  -8  -4 105.255 35.7580  25
  -3   8   4 53.7673 25.6216  15
  -3   8   4 67.3115 25.8052  18
   3  -8  -3-9.44466 18.5692  25
  -3   8   3 5.41733 17.2303  18
  -3   8   2 189.754 38.8579  18
  -3   8   1 282.412 43.8336  18
  -3   8   0 5.17902 10.5030  18
  -3   7  10 3.72769 9.61097  24
  -3   7  10-1.60719 11.8782  23
  -3   7   9 31.9777 21.7720  23
   3  -7  -8 1802.72 133.029  25
  -3   7   8 1789.67 133.027  23
  -3   7   7 670.004 86.3700  15
   3  -7  -7 623.599 89.5157  25
  -3   7   6 122.128 43.0208  15
   3  -7  -6 150.367 46.2650  25
   3  -7  -5-45.6243 36.0258  25
  -3   7   5-9.17438 26.5154  15
  -3   7   5-13.6476 26.3383  18
  -3   7   4 3.86494 20.0799  15
   3  -7  -4 54.5382 33.5342  25
  -3   7   4 48.0345 31.4585  18
   3  -7  -3 112.523 51.5220  25
  -3   7   3 135.446 43.2463  15
  -3   7   3 159.339 45.9522  18
   3  -7  -2 3128.59 189.397  25
  -3   7   2 3077.05 195.609  15
   3  -7  -1 122.602 38.9186  17
   3  -7  -1 126.887 37.8604   9
  -3   7   1 48.0568 29.5843  18
   3  -7   0 10.9679 18.9376  17
   3  -7   0 31.2649 19.1622   9
   3  -7   1 18.3330 20.1128  17
   3  -7   1 21.5198 23.8494   9
   3  -7   2-13.1179 15.6173   9
  -3   7  -2 27.8880 18.6394  18
   3  -7   2 32.2551 19.4697  17
  -3   6  11 1453.52 82.3511  24
  -3   6  10 295.577 47.3388  23
  -3   6  10 272.901 46.0835  24
  -3   6   9 554.291 74.7571  23
  -3   6   8 129.741 41.9634  23
  -3   6   7 112.951 45.1380  15
   3  -6  -7 109.845 43.4401  25
  -3   6   6 441.866 77.8919  15
   3  -6  -6 345.098 74.8629  25
   3  -6  -5 1695.80 154.753  25
  -3   6   5 1422.84 146.113  15
  -3   6   5 1451.77 132.051  18
   3  -6  -4-1.50484 25.4281  25
  -3   6   4 26.1906 27.1165  15
  -3   6   4-33.3501 29.5935  18
  -3   6   3 540.405 91.4884  15
   3  -6  -3 558.513 92.6709  25
  -3   6   3 512.411 80.8768  18
  -3   6   2 7000.55 322.625  15
   3  -6  -2 6983.63 297.723   9
   3  -6  -2 7055.50 312.721  25
   3  -6  -2 6909.42 298.048  17
   3  -6  -1 254.351 60.7323  17
   3  -6  -1 282.548 63.0337   9
   3  -6  -1 172.009 50.8502  25
   3  -6   0 385.465 70.8538  17
   3  -6   0 405.207 69.7126   9
   3  -6   1 98.9002 38.6525  17
   3  -6   1 135.769 45.2559   9
   3  -6   2 927.408 90.3250  12
   3  -6   2 942.220 95.7717   9
   3  -6   2 891.418 95.4139  17
   3  -6   3 716.991 71.8236  12
   3  -6   3 716.710 75.9848  17
   3  -6   4 265.385 39.3054   9
   3  -6   4 221.784 32.5849  12
  -3   5  11 42.5700 19.7926  24
  -3   5  11 72.2095 24.4929  23
  -3   5  10 74.1742 29.2814  23
  -3   5  10 136.313 39.3657  24
  -3   5   9 138.741 46.2763  23
  -3   5   8 856.283 104.981  23
   3  -5  -7 1284.72 143.481  25
  -3   5   7 1146.60 123.104  15
   3  -5  -6 2334.96 190.282  25
  -3   5   6 1803.06 158.052  15
   3  -5  -5 284.472 66.6856  25
  -3   5   5 335.458 73.4195  15
  -3   5   4 0.37231 18.4675  15
   3  -5  -4 31.4940 36.3946  25
  -3   5   4 42.8253 31.0018  18
  -3   5   3 248.333 61.2184  15
   3  -5  -3 224.711 57.4066  25
   3  -5  -3 189.017 100.472   7
   3  -5  -3 228.015 59.2869  17
   3  -5  -2 5682.05 263.508   9
  -3   5   2 5868.46 286.467  15
   3  -5  -2 6184.08 291.359  25
   3  -5  -2 6200.61 280.819  17
   3  -5  -1 1721.43 145.673   9
   3  -5  -1 1764.52 152.614  25
   3  -5  -1 1866.74 153.105  17
   3  -5   0 42.2647 25.7912   9
   3  -5   0 111.196 40.7751  17
   3  -5   1 3621.20 209.482   9
   3  -5   1 3633.54 205.586  12
   3  -5   1 3753.71 213.228  17
   3  -5   2 496.094 80.2214  17
   3  -5   2 494.348 76.9321   9
   3  -5   2 436.610 73.9741  12
   3  -5   3 506.855 75.5317  17
   3  -5   3 540.508 78.8146   9
   3  -5   3 573.272 80.8988  12
   3  -5   4-3.90286 27.6384   9
   3  -5   4 15.8560 17.3274  17
   3  -5   4 1.23595 17.6424  12
   3  -5   5 110.320 31.8997   9
   3  -5   5 71.9425 28.9172  12
  -3   4  11 640.365 67.7929  24
  -3   4  11 701.318 71.3098  23
  -3   4  11 543.898 59.6659  22
  -3   4  10 27.2581 22.0956  24
  -3   4  10-37.5717 28.0676  23
  -3   4   9 63.0569 28.0355  23
  -3   4   8 6754.38 295.115  23
  -3   4   7 62.0269 29.6936  23
  -3   4   6 1922.14 156.986  15
   3  -4  -6 2075.64 177.771  25
   3  -4  -5 2155.93 351.819   1
  -3   4   5 3131.51 377.221  28
   3  -4  -5 2921.69 408.378   7
   3  -4  -5 3084.55 394.353  30
  -3   4   4 7900.19 513.015  27
   3  -4  -4 8949.76 646.676  30
   3  -4  -4 8616.96 646.833   1
   3  -4  -4 8780.22 668.241   7
   3  -4  -3 2610.43 344.680  30
  -3   4   3 2059.12 260.692  27
   3  -4  -3 2114.92 306.096   7
   3  -4  -2 18372.2 867.193   7
  -3   4   2 19336.1 794.050  27
  -3   4   2 22023.3 887.888  29
   3  -4  -2 20261.4 896.135   8
   3  -4  -2 20852.9 936.032  30
  -3   4   1 2987.56 317.633  27
   3  -4  -1 2948.81 352.467   8
  -3   4   1 3163.18 338.525  29
   3  -4  -1 2943.96 354.465  30
  -3   4   0 2542.56 311.930  27
  -3   4   0 2730.73 324.870  29
   3  -4   0 2646.15 346.224   8
   3  -4   1 5516.50 247.753   9
  -3   4  -1 5597.27 479.618  29
  -3   4  -1 5423.35 484.348  27
   3  -4   1 5823.93 531.779   8
   3  -4   1 5518.12 246.194  12
   3  -4   1 5666.79 255.646  17
   3  -4   2 42.4360 27.5910  17
   3  -4   2 26.8748 20.6426   9
   3  -4   2 50.5250 31.2346  12
   3  -4   3 1813.00 148.455   9
   3  -4   3 1801.28 148.190  12
   3  -4   3 1595.03 142.213  17
   3  -4   4 94.6143 32.0597  17
   3  -4   4 132.352 49.1960   9
   3  -4   4 136.425 47.7896  12
   3  -4   5 20.5141 24.2276   9
   3  -4   5-10.5222 25.7018  12
   3  -4   6 372.928 54.4418   9
   3  -4   6 391.089 55.9619  12
   3  -4   7 26.0681 15.6346  12
  -3   3  11 41.5679 18.3728  24
  -3   3  11 61.9991 23.2702  23
  -3   3  11 72.4133 25.2246  22
  -3   3  11 75.6213 26.4339  11
  -3   3  10 53.9092 28.0438  24
  -3   3  10 0.60742 24.4574  23
  -3   3   9 937.945 109.407  23
  -3   3   8 4293.15 237.678  23
  -3   3   7-9.03561 28.1530  23
  -3   3   6 3643.83 408.425  28
   3  -3  -6 3344.52 421.554  30
   3  -3  -6 3565.22 461.417   1
  -3   3   6 3062.92 351.565   5
   3  -3  -6 3798.36 472.625   7
   3  -3  -5 775.455 192.969   2
   3  -3  -5 619.690 185.643   1
  -3   3   5 522.762 149.756  28
   3  -3  -5 481.664 146.380  30
   3  -3  -5 584.330 192.185   7
  -3   3   4 1462.52 211.665  27
   3  -3  -4 1092.24 212.017  30
   3  -3  -4 1138.68 220.739   1
   3  -3  -4 1069.19 220.419   7
  -3   3   3 1713.42 226.142  27
   3  -3  -3 1865.54 270.385   7
   3  -3  -3 1729.23 256.250  30
   3  -3  -2 3780.95 338.502   8
   3  -3  -2 3282.76 342.543  30
   3  -3  -2 4154.39 371.649   7
  -3   3   2 3694.89 313.807  27
  -3   3   2 3855.99 333.385  29
  -3   3   1 858.690 152.815  27
   3  -3  -1 880.688 174.779  30
  -3   3   1 822.528 153.901  29
   3  -3  -1 765.939 160.956   8
   3  -3  -1 499.016 127.828   7
   3  -3   0 5448.97 439.284  30
  -3   3   0 5868.23 436.375  27
   3  -3   0 6081.85 465.060   8
  -3   3   0 5808.61 416.193  29
  -3   3  -1 5534.80 465.179  27
   3  -3   1 4833.60 437.872   8
  -3   3  -1 4899.43 408.349  29
  -3   3  -2 3105.57 368.689  27
  -3   3  -2 3567.75 376.641  29
   3  -3   2 3813.82 414.489   8
   3  -3   3 88.5378 37.0616  12
   3  -3   3 67.0649 31.0138  11
   3  -3   3 101.477 40.1893  17
   3  -3   4 7037.38 296.966  11
   3  -3   4 6525.99 276.816  12
   3  -3   5 380.615 67.6471   9
   3  -3   5 318.744 62.2990  12
   3  -3   6 107.544 35.1515   9
   3  -3   6 95.6650 34.5848  12
   3  -3   7 28.6773 21.5322   9
   3  -3   7 45.7829 24.8939  12
   3  -3   7 41.2885 19.8004  10
   3  -3   8 214.219 35.1291  12
  -3   2  11 66.6871 24.4235  22
  -3   2  11 52.5305 21.6652  11
  -3   2  10 118.592 33.1892  24
  -3   2  10 188.903 47.1357  23
  -3   2   9 40.7665 21.1375  17
  -3   2   9 35.4489 23.3829  24
  -3   2   9 31.4430 25.0024  23
  -3   2   8 7500.77 313.504  23
  -3   2   7 32509.1 634.033  23
   3  -2  -6 5987.75 570.797   1
   3  -2  -6 5756.17 557.157   7
  -3   2   6 5750.56 502.057  28
   3  -2  -5 35.7854 49.7427  30
  -3   2   5 51.8421 71.3514  28
   3  -2  -5-11.9696 40.2800   7
   3  -2  -4 1389.42 226.470  30
  -3   2   4 1220.11 173.740  27
   3  -2  -4 1301.99 223.544   1
   3  -2  -4 1297.96 219.420   2
  -3   2   4 1332.87 210.345  28
   3  -2  -4 1626.10 256.701   7
   3  -2  -3 3997.38 345.606  30
   3  -2  -3 4373.04 362.525   1
  -3   2   3 4299.18 325.475  27
   3  -2  -3 4010.86 366.845   7
  -3   2   2 21220.2 680.051  29
  -3   2   2 20673.2 680.667  27
   3  -2  -2 20111.2 691.611   8
   3  -2  -2 20705.3 756.816   7
  -3   2   2 19912.5 561.778  32
   3  -2  -2 19905.2 743.676  30
  -3   2   1 1008.47 150.674  27
   3  -2  -1 1346.99 186.022   8
  -3   2   1 1087.33 135.033  32
   3  -2  -1 1142.86 181.788  30
  -3   2   1 994.459 146.943  29
   3  -2  -1 983.909 155.367   7
  -3   2   0 2373.00 234.367  29
   3  -2   0 2628.45 269.353   8
  -3   2   0 2292.67 245.433  27
  -3   2   0 2492.50 236.574  32
   3  -2   0 2082.30 208.181   7
   3  -2   0 2969.74 295.979  30
  -3   2  -1 21220.3 766.926  29
   3  -2   1 20137.1 782.684   8
  -3   2  -1 23311.0 863.202  27
   3  -2   1 21109.2 787.103  30
  -3   2  -2 7005.00 479.207  29
  -3   2  -2 7407.76 515.299  27
   3  -2   2 7581.12 524.507   8
   3  -2   2 7716.22 530.635   2
  -3   2  -3-54.9403 55.3937  27
   3  -2   3 286.256 116.724   8
  -3   2  -3 116.043 69.9496  29
  -3   2  -4 651.207 166.475  29
  -3   2  -4 1283.54 259.169  27
   3  -2   4 784.251 92.1708  12
   3  -2   4 1015.47 229.536   8
   3  -2   5 1330.23 122.856  24
   3  -2   5 1125.16 113.719  12
   3  -2   5 1136.15 118.795  11
   3  -2   6 1857.15 144.824  12
   3  -2   6 2108.63 158.798  11
   3  -2   7 393.875 64.4004   9
   3  -2   7 453.811 69.9374  12
   3  -2   7 583.606 78.8741  11
   3  -2   8 313.329 51.3123  12
  -3   1  11 347.991 47.9461  22
  -3   1  11 284.070 41.8756  11
  -3   1  10 328.551 54.4406  17
  -3   1  10 498.695 72.4674  23
  -3   1  10 483.072 71.2498  11
  -3   1   9 423.837 69.5967  17
  -3   1   9 457.579 80.5929  23
  -3   1   8 10024.0 363.032  23
  -3   1   8 8649.93 321.168  24
   3  -1  -7 4874.45 540.319   7
  -3   1   7 5122.31 252.090  23
   3  -1  -6 1026.01 235.363   3
  -3   1   6 711.457 181.471  28
   3  -1  -6 1125.17 245.711   1
   3  -1  -6 342.683 94.6078   7
   3  -1  -5 5181.56 459.480   3
  -3   1   5 5335.60 380.839  32
  -3   1   5 4939.10 426.289  28
   3  -1  -5 4678.58 443.852   7
   3  -1  -5 5749.40 447.355  30
   3  -1  -5 5506.60 491.864   1
  -3   1   4 5701.04 337.370  32
   3  -1  -4 5535.88 414.415  30
   3  -1  -4 5794.19 451.454   1
  -3   1   4 4822.78 375.948  28
   3  -1  -4 5548.31 443.672   7
   3  -1  -4 5434.30 389.806   2
  -3   1   3 9933.14 448.878  27
  -3   1   3 10278.6 505.971  28
   3  -1  -3 10456.8 526.302  30
   3  -1  -3 10794.2 569.925   7
   3  -1  -3 10692.9 530.512   1
   3  -1  -3 10533.5 536.443   2
  -3   1   3 11329.7 420.627  32
  -3   1   2 38663.6 684.359  31
  -3   1   2 43220.2 819.845  32
  -3   1   2 41006.7 893.375  27
   3  -1  -2 40470.3 912.721   1
   3  -1  -2 41436.2 1011.17   7
   3  -1  -2 40511.6 853.461   8
   3  -1  -2 40946.9 1022.09   2
   3  -1  -2 40071.1 968.580  30
  -3   1   1 119486. 1302.05  32
  -3   1   1 116510. 1331.45  29
  -3   1   1 116894. 1424.88  27
   3  -1  -1 118779. 1556.28   8
   3  -1  -1 108050. 1260.73   1
   3  -1  -1 112110. 1523.89   7
   3  -1  -1 122134. 1647.69  30
  -3   1   0 469.792 93.8969  32
   3  -1   0 409.550 101.786  30
   3  -1   0 387.045 93.8086   8
   3  -1   0 461.572 92.9303   7
  -3   1   0 370.841 79.8547  29
  -3   1   0 530.668 98.3911  27
  -3   1  -1 26.7288 40.6997  29
   3  -1   1 63.1035 34.4873   2
  -3   1  -1 29.9359 44.5253  27
   3  -1   1 75.2569 61.9515   8
  -3   1  -2 1012.28 155.615   3
  -3   1  -2 1146.51 176.060  29
   3  -1   2 1161.02 178.462   2
  -3   1  -2 1077.95 178.539  27
   3  -1   2 1104.80 177.764   8
  -3   1  -3 4868.92 395.399  29
  -3   1  -3 4282.12 377.202  27
   3  -1   3 4809.62 409.273   8
  -3   1  -4 3884.04 403.695  27
   3  -1   4 4433.33 441.959   8
  -3   1  -4 4109.77 406.208  29
  -3   1  -5 8933.16 675.691  27
   3  -1   5 8758.79 674.867   8
  -3   1  -5 9523.43 677.391  29
   3  -1   6 2851.96 180.434  24
   3  -1   6 2569.52 171.835  22
   3  -1   6 2612.22 176.703  11
   3  -1   7 7077.66 278.994  24
   3  -1   7 6344.80 263.443  22
   3  -1   7 6417.45 261.612  12
   3  -1   8 1662.53 124.440  24
   3  -1   8 1652.16 124.024  22
   3  -1   8 1663.01 127.231  12
   3  -1   9 178.554 37.9733  12
   3   0 -11 33.5012 17.4968  13
  -3   0  11 68.2112 18.8703  11
  -3   0  10 1241.08 102.592  22
  -3   0  10 1310.14 109.113  11
  -3   0  10 1006.45 88.5888  17
  -3   0   9 1885.68 145.376  17
  -3   0   9 2197.57 165.587  23
  -3   0   8 585.078 90.6817  23
  -3   0   8 492.483 78.0059  17
  -3   0   7 5968.90 278.085  23
  -3   0   6 4246.94 444.224  28
   3   0  -6 3679.24 435.834   7
   3   0  -6 4009.46 461.613   1
   3   0  -6 4472.68 478.084   3
  -3   0   5 4107.18 340.753  32
  -3   0   5 3887.55 386.892  28
   3   0  -5 4252.42 421.728   7
   3   0  -5 4025.80 418.183   1
   3   0  -5 4091.22 410.228   3
  -3   0   4 4036.88 295.279  32
  -3   0   4 3822.15 338.465  28
   3   0  -4 4155.56 369.627   7
   3   0  -4 3741.02 304.754   2
   3   0  -4 3987.73 370.233   1
   3   0  -4 3782.86 345.163   3
  -3   0   3 333.733 80.2673  32
   3   0  -3 283.322 81.3346   1
  -3   0   3 262.655 76.8730  28
   3   0  -3 238.369 73.1788   3
  -3   0   3 355.540 66.0507  31
   3   0  -3 210.788 81.1830   2
   3   0  -3 316.602 98.8231   7
   3   0  -3 141.778 61.2320  30
   3   0  -2 4441.36 306.285  30
  -3   0   2 4404.34 288.288  28
  -3   0   2 4724.35 283.480  27
   3   0  -2 4691.49 247.876   8
  -3   0   2 4322.27 223.496  31
   3   0  -2 4425.92 309.251   2
   3   0  -2 4831.37 328.052   7
   3   0  -2 5112.72 313.251   1
  -3   0   1 15939.3 463.373  31
  -3   0   1 16315.3 429.020  29
   3   0  -1 15634.3 546.177  30
  -3   0   1 16780.5 506.008  27
   3   0  -1 17012.0 530.745   8
   3   0  -1 17747.9 572.223   7
  -3   0   1 17794.2 499.045  32
   3   0  -1 16546.9 571.642   2
   3   0  -1 15531.2 446.276   1
  -3   0   0 28078.9 560.310  29
  -3   0   0 29082.9 653.512  27
   3   0   0 29295.7 733.344   8
  -3   0   0 30515.3 668.252  32
   3   0   0 29465.3 656.866   7
   3   0   0 30461.0 766.742   2
   3   0   0 26803.8 382.386   1
  -3   0  -1 15199.2 495.363  29
  -3   0  -1 15942.0 544.380  27
   3   0   1 14743.2 545.541   8
   3   0   1 13680.8 369.546   4
   3   0   1 14343.3 385.222   7
   3   0   1 16538.0 562.719   2
  -3   0  -2 96419.6 1499.09  27
   3   0   2 93352.1 1453.48   8
   3   0   2 95071.7 1374.61   2
  -3   0  -2 94495.9 1398.46  29
   3   0   3 13849.6 542.819   5
  -3   0  -3 14246.6 622.867  27
   3   0   3 15236.8 645.765   8
  -3   0  -3 14462.0 615.647  29
   3   0   3 14693.3 528.136   2
  -3   0  -3 13050.7 503.264   3
   3   0   4 24341.3 905.331   8
  -3   0  -4 25846.9 934.496  29
   3   0   4 23454.5 794.360   5
  -3   0  -5 1812.18 274.005  29
   3   0   5 1341.87 216.328   5
   3   0   5 1459.50 245.230   8
  -3   0  -6 5029.84 498.211  29
   3   0   6 5102.99 231.724  24
   3   0   6 4821.75 232.672  22
   3   0   7 1809.61 142.411  24
   3   0   7 1955.07 150.986  22
   3   0   7 1929.07 151.761  10
   3   0   8 2995.05 180.465  24
   3   0   8 2989.07 183.255  22
   3   0   8 2981.05 176.448  12
   3   0   9 57.3151 25.9305  24
   3   0   9 58.8170 30.1235  22
   3   0  10 20.0946 19.4592  22
  -3  -1  10 35.8472 18.1324  17
   3   1 -10 91.4456 34.8885  13
  -3  -1  10 81.7699 25.3841  22
  -3  -1  10 116.909 33.3726  11
  -3  -1   9 1768.87 134.853  22
  -3  -1   9 1882.71 145.261  11
  -3  -1   9 1619.48 130.962  17
  -3  -1   8 217.773 57.2924  17
  -3  -1   7 2314.40 174.105  17
  -3  -1   7 2644.39 190.256  23
   3   1  -6 372.737 142.353   3
  -3  -1   6 471.789 138.984  28
   3   1  -6 535.268 171.170   1
  -3  -1   5 5194.66 465.275  28
   3   1  -5 5704.42 514.290   1
   3   1  -5 4495.77 452.181   3
  -3  -1   4 2232.60 234.510  32
   3   1  -4 2267.85 292.019   1
  -3  -1   4 2482.82 292.737  28
   3   1  -4 2312.95 282.687   3
  -3  -1   3 6743.63 423.348  28
  -3  -1   3 6005.60 329.896  32
   3   1  -3 6191.15 367.555   2
   3   1  -3 6554.13 433.915   7
  -3  -1   3 6386.95 310.771  31
   3   1  -3 6334.45 428.151   1
   3   1  -3 6295.51 394.467   3
  -3  -1   2 71251.6 1045.39  32
  -3  -1   2 70230.0 954.075  31
   3   1  -2 68898.4 1243.01   7
   3   1  -2 69490.1 1180.08   2
  -3  -1   2 70507.9 1181.77  28
   3   1  -2 70586.4 1235.40   1
   3   1  -2 68633.0 1106.13   3
  -3  -1   1 3867.02 239.319  28
  -3  -1   1 4467.50 253.186  27
   3   1  -1 4115.70 238.532   8
  -3  -1   1 3985.13 233.479  31
   3   1  -1 4076.51 274.514   7
   3   1  -1 4167.45 272.501   2
   3   1  -1 4199.55 253.907   1
  -3  -1   1 4132.98 248.135  32
   3   1  -1 3753.46 199.268   3
  -3  -1   0 11360.8 388.681  32
  -3  -1   0 11515.6 402.520  31
  -3  -1   0 10247.3 240.622  29
   3   1   0 9881.81 294.490   1
  -3  -1   0 10512.3 366.087  27
   3   1   0 10961.7 402.015   7
   3   1   0 10739.4 425.787   2
   3   1   0 11349.4 424.257   8
  -3  -1  -1 12209.0 414.308  27
   3   1   1 11669.1 449.584   8
  -3  -1  -1 11473.8 421.422  32
   3   1   1 11920.4 401.818   4
   3   1   1 11375.9 436.575   2
  -3  -1  -1 11120.9 339.251  29
   3   1   2 2129.26 207.947   8
  -3  -1  -2 1972.14 176.639  29
  -3  -1  -2 2083.20 194.294  27
   3   1   2 2318.73 207.846   5
   3   1   2 2065.55 177.886   4
   3   1   2 2247.88 193.162   2
  -3  -1  -2 1638.40 97.2246   3
   3   1   3 13489.3 562.941   8
  -3  -1  -3 14320.0 559.816  29
   3   1   3 14124.6 478.682   4
   3   1   3 13692.0 464.766   2
  -3  -1  -3 13447.9 434.730   3
   3   1   3 14070.9 542.802   5
   3   1   4 3107.07 284.032   5
  -3  -1  -4 3339.43 317.508  29
  -3  -1  -4 3136.76 270.196   3
   3   1   4 3342.41 307.366   8
   3   1   5 3100.42 321.579   5
   3   1   5 3171.45 323.056   8
  -3  -1  -5 3230.95 350.775  29
  -3  -1  -6 13.9828 46.3013  29
   3   1   6 148.949 75.1293   5
   3   1   7 77.2035 34.8152  22
   3   1   7 37.4837 18.4770  24
   3   1   8 480.483 75.9438  22
   3   1   8 471.988 76.8789  24
   3   1   9 588.531 79.3800  24
   3   1   9 584.327 80.9292  22
   3   1  10 24.3588 21.0021  24
   3   1  10-6.05783 15.7364  22
   3   2 -10 268.400 39.9539  13
  -3  -2  10 196.701 31.9154  11
   3   2  -9 264.557 51.7541  13
  -3  -2   9 119.745 34.2573  17
  -3  -2   9 210.607 48.0045  11
   3   2  -8 1005.06 113.574  13
  -3  -2   8 1030.05 113.090  11
  -3  -2   8 963.764 112.117  17
  -3  -2   7 65.0694 37.9836  17
  -3  -2   7 64.4003 33.9466  11
  -3  -2   6 1285.23 130.937  17
  -3  -2   6 1158.15 127.517  23
   3   2  -5 194.193 97.0475   1
   3   2  -5 134.092 84.9088   3
  -3  -2   5 190.408 87.7447  28
  -3  -2   4 18770.9 749.912  32
   3   2  -4 18321.8 840.104   3
  -3  -2   4 20904.0 897.312  28
   3   2  -4 19050.9 878.047   1
  -3  -2   3 1357.57 180.140  32
   3   2  -3 1299.77 197.589   3
  -3  -2   3 1384.15 168.928  31
   3   2  -3 1127.56 191.962   1
   3   2  -3 818.805 134.753   2
  -3  -2   3 1185.30 157.627  26
  -3  -2   3 1100.25 181.640  28
  -3  -2   2 3295.15 242.987  32
  -3  -2   2 2902.23 262.417  28
   3   2  -2 3027.22 254.405   2
  -3  -2   2 3040.82 224.257  31
   3   2  -2 3209.55 286.374   1
   3   2  -2 3172.41 265.092   3
  -3  -2   1 137879. 1527.96  28
  -3  -2   1 140897. 1487.34  32
   3   2  -1 137293. 1611.26   1
   3   2  -1 136170. 1617.79   2
   3   2  -1 133390. 1406.27   3
   3   2   0 62784.7 983.025   8
  -3  -2   0 60038.9 803.566  28
  -3  -2   0 60433.4 847.220  27
   3   2   0 57697.3 880.919   1
   3   2   0 59459.6 1006.72   2
  -3  -2   0 65630.8 986.639  31
   3   2   0 59408.3 709.372   3
  -3  -2   0 65896.1 975.790  32
  -3  -2  -1 3473.48 221.601  32
  -3  -2  -1 2540.01 101.366  29
  -3  -2  -1 2820.31 120.636  28
  -3  -2  -1 3146.71 176.165  27
   3   2   1 3540.13 237.343   8
  -3  -2  -1 3407.97 230.350  31
   3   2   1 3294.17 229.991   2
   3   2   1 3236.16 234.547   4
   3   2   1 3295.38 201.860   6
  -3  -2  -2 23702.3 552.803  27
   3   2   2 24772.9 652.042   8
   3   2   2 24614.3 669.481   4
  -3  -2  -2 25006.1 646.454  32
   3   2   2 24304.1 624.773   2
  -3  -2  -2 22570.4 524.250  29
   3   2   2 23490.3 509.622   6
   3   2   3 44040.9 919.309   8
  -3  -2  -3 42216.2 862.821  27
   3   2   3 44915.6 943.402   4
   3   2   3 46375.2 866.504   2
   3   2   3 40852.6 674.374   6
   3   2   3 44502.1 970.272   5
  -3  -2  -3 41631.8 724.042   3
  -3  -2  -3 44220.8 912.136  29
   3   2   4 22011.0 735.331   5
   3   2   4 23088.8 717.921   4
  -3  -2  -4 23656.9 786.613  29
   3   2   4 23367.9 714.697   8
  -3  -2  -4 21094.6 652.697   3
  -3  -2  -5 9265.50 559.768  29
   3   2   5 9187.75 478.891   8
   3   2   5 9789.07 546.335   5
  -3  -2  -6 354.384 130.457  29
   3   2   6 223.904 99.4896   5
  -3  -2  -7 2196.85 335.192  29
   3   2   7 1877.95 292.625   5
   3   2   7 1756.92 137.605  24
   3   2   7 1879.48 141.018  22
   3   2   8 173.826 47.7599  24
   3   2   8 163.244 46.3118  22
   3   2   8 170.704 50.4420  19
   3   2   9 46.1078 25.7023  22
   3   2   9 20.4068 20.1748  24
   3   2  10 1100.43 105.968  24
   3   2  10 945.611 96.7756  22
   3   2  11 544.886 59.9334  24
   3   2  11 432.899 56.6660  22
  -3  -3   9 160.433 34.2852  17
   3   3  -9 214.005 41.4006  13
  -3  -3   9 196.694 37.2159  11
   3   3  -8 715.613 90.5249  13
  -3  -3   8 554.443 74.8294  11
  -3  -3   8 631.821 82.5055  17
   3   3  -7 1205.14 127.256  13
  -3  -3   7 1219.19 126.965  11
  -3  -3   7 1258.80 127.090  17
   3   3  -6 424.758 75.5392  13
  -3  -3   6 524.848 86.1454  17
  -3  -3   6 488.866 85.4079  11
  -3  -3   5 170.718 90.1525  28
   3   3  -5 162.695 46.3825  13
   3   3  -5 74.7150 68.8386   1
   3   3  -5 158.070 97.3863   3
  -3  -3   5 383.044 73.0615  11
  -3  -3   5 224.333 54.0174  17
  -3  -3   4 5583.76 520.840  28
   3   3  -4 5563.06 506.085   1
   3   3  -4 5141.85 480.389   3
  -3  -3   3 3455.71 328.663  32
  -3  -3   3 3316.70 298.129  31
  -3  -3   3 2950.70 339.672  28
   3   3  -3 2999.64 337.985   1
   3   3  -3 3031.61 329.978   3
  -3  -3   2 21141.8 716.502  32
  -3  -3   2 18637.3 657.911  26
   3   3  -2 20457.5 706.946   2
   3   3  -2 20166.5 791.740   1
  -3  -3   2 21679.3 705.101  31
   3   3  -2 19516.0 741.196   3
  -3  -3   2 20220.9 749.541  28
  -3  -3   1 14195.3 513.405  32
  -3  -3   1 13748.8 512.033  31
   3   3  -1 12287.0 546.419   1
  -3  -3   1 13787.2 530.600  26
  -3  -3   1 12815.9 502.292  28
   3   3  -1 13114.8 519.386   3
   3   3  -1 14420.1 569.799   2
  -3  -3   0 41287.8 825.977  32
   3   3   0 39056.3 893.815   2
  -3  -3   0 39614.1 808.088  31
   3   3   0 40255.8 803.338   3
   3   3   0 38375.5 895.021   6
  -3  -3  -1 129792. 1409.71  32
   3   3   1 125195. 1618.26   4
  -3  -3  -1 125130. 1449.73  31
   3   3   1 121544. 1496.64   6
   3   3   1 127167. 1542.67   2
  -3  -3  -2 17540.3 504.620  32
  -3  -3  -2 15241.3 314.176  27
   3   3   2 16625.8 590.444   4
   3   3   2 19756.8 601.414   2
  -3  -3  -2 17833.6 571.762  31
   3   3   2 17582.1 565.656   6
   3   3   3 648.489 127.508   5
  -3  -3  -3 481.675 73.1191  27
   3   3   3 419.463 91.7542   8
   3   3   3 403.163 97.3814   4
  -3  -3  -3 413.330 96.7197  31
  -3  -3  -3 507.975 94.9325  32
   3   3   3 572.570 110.798   2
   3   3   3 458.053 92.6951   6
  -3  -3  -4 13257.8 470.202  27
   3   3   4 15306.6 552.540   8
   3   3   4 14931.1 610.459   4
   3   3   4 14827.4 611.685   5
   3   3   4 14630.6 534.919   6
   3   3   5 36692.6 1039.24   5
   3   3   5 37060.1 1038.76   4
   3   3   5 37580.2 904.494   8
  -3  -3  -5 35367.5 980.605   3
   3   3   6 4201.37 387.699   5
  -3  -3  -7 494.689 158.654  29
   3   3   7 340.439 131.379   5
   3   3   8 646.754 85.7097  24
   3   3   8 607.978 82.4993  22
   3   3   8 755.871 98.7851  19
   3   3   9 63.0715 30.1940  24
   3   3   9 14.8999 22.5763  22
   3   3   9 77.4304 38.2918  19
   3   3  10 110.412 42.7805  24
   3   3  10 92.9858 32.2251  22
   3   3  11 370.591 55.0750  24
   3   3  11 391.100 58.4087  22
  -3  -4   8 311.116 49.3353  17
   3   4  -8 289.845 52.0504  13
  -3  -4   8 307.338 48.6016  11
  -3  -4   7 26.9934 20.9173  17
   3   4  -7 84.3813 39.1985  13
  -3  -4   7 35.6714 30.3636  11
  -3  -4   6 255.917 63.7416  17
   3   4  -6 200.037 51.8679  13
  -3  -4   6 191.340 55.9514  11
  -3  -4   5 1.61401 29.5841  17
   3   4  -5 17.9005 23.9102  13
  -3  -4   5 28.8625 26.2759  11
  -3  -4   4 10926.1 782.069  28
   3   4  -4 9734.95 342.259  13
   3   4  -4 9802.39 708.251   3
  -3  -4   4 11010.2 387.118  11
  -3  -4   4 11706.1 395.445  17
  -3  -4   3 1370.70 256.803  28
   3   4  -3 1121.33 219.572   3
  -3  -4   2 252.199 94.2483  32
   3   4  -2 152.902 82.2860   3
  -3  -4   2 175.950 84.0031  28
  -3  -4   2 53.6446 53.6513  26
  -3  -4   2 146.388 83.1269  31
  -3  -4   1 3916.43 306.096  32
  -3  -4   1 3658.40 316.818  28
  -3  -4   1 3802.97 312.770  26
  -3  -4   1 4035.84 324.579  31
   3   4  -1 3969.55 339.302   3
   3   4  -1 3611.26 351.142   6
  -3  -4   0 24476.1 674.809  32
  -3  -4   0 25713.2 783.509  26
   3   4   0 23800.2 818.410   4
   3   4   0 24580.1 777.678   3
  -3  -4   0 23901.5 713.347  31
   3   4   0 24005.1 824.857   6
  -3  -4  -1 17423.5 572.597  31
  -3  -4  -1 18250.6 642.732  26
   3   4   1 17177.8 658.464   4
  -3  -4  -1 17942.0 543.116  32
   3   4   1 16763.8 653.192   6
  -3  -4  -2 9094.61 453.427  26
   3   4   2 7884.19 445.426   4
  -3  -4  -2 8903.37 407.340  31
  -3  -4  -2 8915.01 385.732  32
   3   4   2 7875.96 443.384   6
  -3  -4  -3 16060.8 600.769  26
  -3  -4  -3 15355.8 565.434  31
   3   4   3 15060.1 633.243   4
  -3  -4  -3 14771.4 482.911  32
   3   4   3 15436.1 618.754   6
   3   4   4 15500.0 651.169   5
  -3  -4  -4 15451.0 599.791  31
  -3  -4  -4 16482.5 606.557  26
   3   4   4 15397.5 660.938   4
  -3  -4  -4 15459.5 529.120  32
   3   4   4 15059.2 628.183   6
  -3  -4  -5 32397.3 907.277  31
   3   4   5 31902.8 994.257   5
   3   4   5 31498.4 995.842   4
  -3  -4  -5 35099.1 1073.74  30
   3   4   5 31117.5 942.061   6
  -3  -4  -6 191.654 87.8443  30
   3   4   6 376.917 125.611   5
   3   4   7 2550.22 328.587   5
   3   4   8 3360.21 195.997  24
   3   4   8 3060.36 185.646  22
   3   4   8 3646.12 216.975  19
   3   4   8 3566.89 213.280  18
   3   4   9-17.9002 19.9667  24
   3   4   9 49.0887 34.3658  22
   3   4   9 61.1237 32.5854  19
   3   4  10 121.027 39.6692  24
   3   4  10 111.934 32.3639  22
   3   4  10 198.843 54.7436  19
   3   4  11 139.891 36.0131  24
   3   4  11 165.513 41.9846  22
   3   4  12-3.03351 11.3890  24
   3   4  12 47.8823 19.9413  22
   3   5  -7-3.88693 27.1697  13
  -3  -5   7 24.7682 21.4127  17
  -3  -5   7-25.1453 19.7438  11
  -3  -5   6 124.211 45.0254  17
   3   5  -6 150.353 49.8843  13
  -3  -5   6 57.3996 30.9243  11
  -3  -5   5 19.4302 26.9848  17
   3   5  -5 61.9896 37.1917  13
  -3  -5   5-18.8060 33.4769  11
  -3  -5   4 311.370 67.5180  17
   3   5  -4 341.120 68.7663  13
  -3  -5   4 303.927 64.1027  11
   3   5  -3 158.708 44.9548  14
  -3  -5   3 238.947 60.0026  17
   3   5  -3 189.128 51.1287  13
   3   5  -3 157.445 43.9555  20
  -3  -5   3 143.548 45.0701  11
   3   5  -2 2347.45 339.881   6
  -3  -5   2 1926.75 271.961  26
   3   5  -2 2095.47 306.205   4
   3   5  -2 2786.04 362.772   3
  -3  -5   1 6509.93 465.275  31
   3   5  -1 6882.80 520.267   4
   3   5  -1 6457.62 513.862   3
  -3  -5   1 5577.96 431.290  26
   3   5  -1 5997.72 508.791   6
  -3  -5   0 21529.8 711.120  32
  -3  -5   0 25064.8 840.129  31
  -3  -5   0 23051.0 825.735  26
  -3  -5   0 20642.1 763.166  30
   3   5   0 22716.1 890.417   4
   3   5   0 23294.9 936.356   6
  -3  -5  -1 3755.54 329.048  26
  -3  -5  -1 4903.96 339.087  31
   3   5   1 3772.46 350.192   4
   3   5   1 3802.06 362.424   6
  -3  -5  -2 4915.25 370.725  26
   3   5   2 4823.33 395.829   4
  -3  -5  -2 5564.78 347.783  31
   3   5   2 5059.54 408.487   6
  -3  -5  -3 12952.7 519.614  31
  -3  -5  -3 13469.6 607.050  26
   3   5   3 12066.2 634.662   4
   3   5   3 12895.3 653.831   6
  -3  -5  -4 15954.9 716.975  30
  -3  -5  -4 14839.1 632.777  26
   3   5   4 14094.5 693.786   4
   3   5   4 14986.6 711.898   6
   3   5   5 18095.4 784.501   5
   3   5   5 17647.2 793.156   4
  -3  -5  -5 18885.1 816.533  30
   3   5   5 17619.0 791.833   6
   3   5   6 290.657 116.092   5
   3   5   6 209.287 83.4393   4
  -3  -5  -6 219.174 95.8485  30
   3   5   7 2243.13 154.755  16
   3   5   7 1643.13 267.816   5
   3   5   7 2018.54 157.037  19
   3   5   7 2037.95 155.402  18
   3   5   8 3500.98 196.539  16
   3   5   8 3325.11 195.139  24
   3   5   8 3533.10 214.852  19
   3   5   8 3175.97 198.948  18
   3   5   9 2876.18 176.508  16
   3   5   9 2740.64 179.942  24
   3   5   9 2501.20 168.228  22
   3   5   9 3163.40 200.594  19
   3   5   9 2861.45 189.358  18
   3   5  10 735.168 92.3619  24
   3   5  10 718.765 87.8683  22
   3   5  11-6.54482 23.0124  24
   3   5  11 5.19642 17.9960  22
   3   5  12 62.9973 20.5719  22
   3   5  12 16.1907 12.4685  24
   3   6  -6 12.1200 17.5579  13
  -3  -6   6 47.4573 22.5940  11
  -3  -6   6 80.8136 29.0514  17
   3   6  -5-4.12852 20.4222  13
  -3  -6   5 46.2327 28.1664  17
  -3  -6   5 5.27664 16.6893  11
  -3  -6   4 34.0658 21.7214  17
  -3  -6   4 72.6310 33.0098  11
   3   6  -3 5026.84 250.989  13
   3   6  -3 4890.77 258.808  20
  -3  -6   3 4671.90 245.461  11
  -3  -6   3 5414.90 270.433  17
   3   6  -2 533.413 79.9126  13
  -3  -6   2 595.059 88.7867  17
   3   6  -2 468.640 80.4996  20
   3   6  -1 1017.96 111.480  14
   3   6  -1 1012.12 109.826  13
  -3  -6   1 1179.94 218.461  26
   3   6  -1 952.883 110.565  20
  -3  -6   1 946.154 107.239  17
   3   6  -1 1068.98 244.242   6
  -3  -6   0 1527.68 240.629  26
   3   6   0 2033.85 314.666   6
  -3  -6  -1 4525.48 378.932  31
  -3  -6  -1 4245.38 374.021  30
   3   6   1 4329.23 417.544   4
  -3  -6  -1 4618.99 404.436  26
   3   6   1 4500.14 449.575   6
  -3  -6  -2 8241.85 480.248  31
  -3  -6  -2 7743.67 522.745  30
  -3  -6  -2 8250.21 533.342  26
   3   6   2 7932.91 565.155   4
   3   6   2 7242.75 558.819   6
  -3  -6  -3 5373.32 432.750  30
  -3  -6  -3 5407.26 425.802  26
   3   6   3 5548.57 475.382   4
   3   6   3 5222.85 468.658   6
  -3  -6  -4 5518.12 426.570  26
  -3  -6  -4 5190.43 436.450  30
   3   6   4 5586.54 480.853   4
   3   6   4 5102.65 463.020   6
  -3  -6  -5 16765.5 809.267  30
   3   6   5 15663.0 814.677   4
  -3  -6  -5 15268.7 799.967   7
   3   6   5 16748.9 854.656   6
  -3  -6  -6 252.318 128.411  30
   3   6   6 6.75499 74.0266   4
   3   6   6 176.475 90.4075   6
   3   6   7 193.381 47.9556  19
   3   6   7 221.528 52.9033  18
   3   6   7 207.556 47.2346  16
   3   6   8 3388.56 198.513  16
   3   6   8 2749.50 180.313  24
   3   6   8 3189.87 204.774  19
   3   6   8 2816.43 182.936  18
   3   6   9 58.2093 28.4200  16
   3   6   9 64.7635 31.2107  24
   3   6   9 51.7727 25.7856  19
   3   6   9 42.4100 29.1435  18
   3   6  10 736.785 90.8789  24
   3   6  10 817.324 97.5772  19
   3   6  11-24.7685 14.6544  24
   3   6  11 30.4707 32.5689  19
   3   6  12 63.6231 21.5103  24
  -3  -7   5 22.1270 19.0014  17
   3   7  -5 2.17482 15.5650  13
   3   7  -4 78.6462 33.6197  13
  -3  -7   4 42.4743 26.7395  17
  -3  -7   4 30.7417 21.8070  11
  -3  -7   3-13.3475 29.7340  17
   3   7  -3 7.63389 25.2286  13
   3   7  -3 39.5594 29.1096  20
   3   7  -2 1637.92 143.467  13
   3   7  -2 1495.08 142.149  20
  -3  -7   2 1599.77 144.706  17
  -3  -7   1 76.1943 28.5403  17
   3   7  -1 50.0034 29.5601  20
   3   7  -1 47.4815 39.9280  13
   3   7   0 11739.7 382.712  13
   3   7   0 11736.1 398.523  20
  -3  -7   0 10834.8 374.447  17
   3   7   1 23.1545 25.6286  13
   3   7   1 39.5403 14.2299  20
  -3  -7  -2 372.542 130.241  26
   3   7   2 488.969 75.1073  13
  -3  -7  -2 594.613 150.423  30
   3   7   2 462.452 78.2309  20
   3   7   2 518.714 165.347   6
  -3  -7  -3 189.396 88.3274  30
  -3  -7  -3 44.6559 45.0377  26
   3   7   3 151.754 117.937   4
   3   7   3 88.8781 32.6674  13
   3   7   3 98.2060 71.7578   6
  -3  -7  -4 1461.06 251.602  30
  -3  -7  -4 1509.57 254.548  26
   3   7   4 1230.53 120.394  13
   3   7   4 1129.58 231.974   4
   3   7   4 906.440 211.215   6
  -3  -7  -5 151.681 114.039   7
   3   7   5 2.71565 22.1518  16
  -3  -7  -5 192.059 90.7482  30
   3   7   5 95.3320 75.6094   4
   3   7   5 29.6332 19.3540  13
   3   7   5 1.76140 19.8780  19
   3   7   5 20.2007 19.5387  18
   3   7   5 142.676 88.5113   6
   3   7   6-7.83450 23.6607  16
   3   7   6 41.4133 23.9123  19
   3   7   6 36.1893 28.0714  18
   3   7   7 127.264 40.7158  16
   3   7   7 130.342 50.6441  19
   3   7   7 92.7048 35.6082  18
   3   7   8 1512.24 134.525  16
   3   7   8 1344.58 133.761  19
   3   7   8 1182.18 121.476  18
   3   7   9 681.445 87.7782  16
   3   7   9 651.577 91.5918  19
   3   7   9 573.795 79.9262  18
   3   7  10 169.686 42.6687  24
   3   7  10 173.154 43.9474  19
   3   7  11 25.8456 25.9964  24
   3   7  11-7.20612 17.5868  19
   3   8  -4 422.037 52.0171  13
  -3  -8   4 379.106 50.2231  17
  -3  -8   3 216.025 46.3314  17
   3   8  -3 130.694 37.3574  13
  -3  -8   2 22.1457 20.9669  17
   3   8  -2 1.05414 21.0755  13
   3   8  -2-9.67716 19.9573  20
   3   8  -1 2020.34 156.555  13
   3   8  -1 2078.49 166.886  20
  -3  -8   1 2045.18 157.678  17
   3   8   0 220.322 59.2655  13
   3   8   0 279.906 62.7430  20
  -3  -8   0 240.083 56.6637  17
   3   8   1 2030.48 165.552  20
   3   8   1 2155.36 166.066  13
   3   8   2 1694.73 145.125  13
   3   8   2 1619.83 148.543  20
   3   8   3 529.315 84.3040  13
   3   8   3 618.257 91.9792  20
   3   8   3 577.140 87.2873  18
   3   8   4 836.993 100.780  13
   3   8   4 853.552 109.165  20
   3   8   4 1002.61 120.065  18
   3   8   5 832.193 98.7275  16
   3   8   5 688.843 95.6854  15
   3   8   5 674.331 92.8369  13
   3   8   5 833.719 108.877  19
   3   8   5 820.897 109.275  18
   3   8   6 201.997 51.6458  16
   3   8   6 214.161 51.9509  19
   3   8   6 186.853 59.4070  18
   3   8   7 18.3965 22.0702  16
   3   8   7 30.1666 30.0755  19
   3   8   7-20.3796 31.5921  18
   3   8   8 3018.04 185.494  16
   3   8   8 2754.74 187.606  19
   3   8   8 3103.35 196.049  18
   3   8   9 5601.64 242.466  16
   3   8   9 5015.57 241.028  19
   3   8   9 5367.62 242.407  18
   3   8  10 12.0342 21.3639  19
   3   8  10 30.0589 24.5639  18
   3   8  11 61.8127 24.9420  19
   3   9  -2 75.6528 26.2097  13
   3   9  -2 41.6213 22.9836  15
  -3  -9   2 66.1554 22.2106  17
   3   9  -1 0.27410 18.5112  13
  -3  -9   1 34.5574 22.4054  17
  -3  -9   0 27.8492 20.2601  17
   3   9   0 22.2906 21.4702  13
   3   9   1 707.203 92.3882  13
   3   9   1 775.133 99.1851  20
   3   9   2 1711.12 145.146  13
   3   9   2 1606.68 142.714  20
   3   9   3 1818.38 147.451  13
   3   9   3 1881.04 147.816  18
   3   9   4 413.870 72.0307  13
   3   9   4 567.906 87.1940  15
   3   9   4 511.477 82.6866  19
   3   9   4 478.831 80.8022  18
   3   9   5 143.444 45.0906  15
   3   9   5 152.402 43.0844  13
   3   9   5 106.958 37.8918  19
   3   9   5 132.111 45.0735  18
   3   9   6 210.091 48.0377  16
   3   9   6 259.196 56.3496  15
   3   9   6 197.104 49.9458  19
   3   9   6 205.796 61.8030  18
   3   9   7 141.955 39.7857  16
   3   9   7 100.371 39.2017  19
   3   9   7 225.655 61.4417  18
   3   9   8 2709.91 163.743  16
   3   9   8 2344.01 159.936  19
   3   9   8 2859.38 182.373  18
   3   9   9 2514.88 155.420  19
   3   9   9 2687.26 164.660  18
   3   9  10 245.252 44.6176  19
   3   9  10 258.773 45.8412  18
   3   9  11 58.8120 21.0659  19
   3  10   0 111.020 30.9015  15
   3  10   0 115.847 29.0503  13
   3  10   1-21.5701 23.9591  15
   3  10   1 2.84840 18.2238  13
   3  10   2 1219.17 107.918  15
   3  10   2 1112.96 98.7247  13
   3  10   2 1112.02 100.971  19
   3  10   3 49.3981 31.1291  15
   3  10   3 53.2350 31.0897  13
   3  10   3 92.8646 37.2324  19
   3  10   4 101.598 38.0605  15
   3  10   4 159.422 39.1122  19
   3  10   4 97.5937 34.1032  18
   3  10   5 2.53359 18.0231  15
   3  10   5-8.26193 27.3840  19
   3  10   5 11.2309 18.8888  18
   3  10   6 151.985 39.3606  15
   3  10   6 123.217 39.3300  19
   3  10   6 169.715 43.5127  18
   3  10   7 75.9440 27.2796  19
   3  10   7 47.0107 23.4114  18
   3  10   8 267.343 47.9239  19
   3  10   8 380.126 58.9188  18
   3  10   9 898.444 77.2764  19
   3  10   9 1091.10 88.9413  18
   3  10  10 359.750 44.5675  18
   3  11   3 8.78477 11.3917  15
   3  11   4 275.825 43.7439  15
   3  11   5 210.336 39.1405  15
   3  11   5 157.875 29.6791  18
   3  11   6 168.538 30.9515  15
   3  11   6 254.813 40.1085  18
   3  11   7 35.7555 15.8244  18
  -4   8   6 4.24157 12.6486  23
   4  -8  -6 32.9025 18.7374  25
   4  -8  -5 13.4916 13.3781  25
   4  -8  -4 159.969 33.6387  25
  -4   7   9 308.197 41.5355  23
   4  -7  -8 190.216 36.4428  25
  -4   7   8 236.210 41.1903  23
   4  -7  -7 22.4441 25.2906  25
  -4   7   7 56.7095 33.6131  23
   4  -7  -6 431.009 65.7446  25
   4  -7  -5-17.9469 23.8482  25
  -4   7   5 10.8164 23.8943  15
  -4   7   4 249.389 52.1983  15
   4  -7  -4 277.179 57.9185  25
  -4   7   4 215.722 43.5589  18
  -4   7   3 19.4516 18.8884  15
   4  -7  -3 28.9987 25.0432  25
  -4   7   3-11.2741 21.3914  18
   4  -7  -2-0.38994 18.1759  25
  -4   7   2-17.8135 21.5866  18
   4  -7  -1 9.60707 16.0545   9
  -4   7   1 45.6847 26.2963  18
   4  -7   0 39.3964 18.8307   9
  -4   7   0 35.4856 20.3948  18
  -4   7  -1 202.280 34.1062  18
  -4   6  10 225.686 35.5471  23
  -4   6  10 172.803 29.9385  24
  -4   6   9 119.628 32.7315  23
  -4   6   8 156.360 43.4578  23
   4  -6  -8 85.4287 26.7730  25
  -4   6   7 2291.30 161.700  23
   4  -6  -7 2185.70 160.278  25
  -4   6   6 194.628 51.7028  15
   4  -6  -6 117.500 46.1210  25
  -4   6   5 211.504 57.0320  15
   4  -6  -5 211.845 59.3425  25
   4  -6  -4 7.51996 28.8075  25
  -4   6   4-26.1748 33.9403  15
  -4   6   3 101.601 40.9426  15
   4  -6  -3 60.7322 45.4724  25
  -4   6   3 32.2441 31.8351  18
   4  -6  -2 290.722 60.8553   9
   4  -6  -2 287.807 63.6418  25
  -4   6   2 410.949 72.1837  18
   4  -6  -1 4303.18 213.174   9
   4  -6   0 242.946 52.3260   9
   4  -6   0 275.613 59.4129  17
   4  -6   1 929.851 92.1949   9
   4  -6   1 941.753 95.5231  17
   4  -6   2 106.552 29.6888   9
   4  -6   2-21.6113 15.1470  12
   4  -6   3 225.697 35.5958   9
  -4   5  10 315.730 48.4902  24
  -4   5  10 363.837 52.7159  23
  -4   5   9 147.716 40.7288  23
  -4   5   8 394.050 68.3338  23
  -4   5   7 28.1130 41.1021  23
   4  -5  -7-9.21929 35.6528  25
  -4   5   6-12.6179 30.4117  15
   4  -5  -6-16.1565 33.3581  25
  -4   5   5 1311.42 139.414  15
   4  -5  -5 1373.59 140.549  25
   4  -5  -4 2254.24 177.763  25
  -4   5   4 2313.59 185.874  15
   4  -5  -3 2136.02 166.965   9
  -4   5   3 2176.91 179.237  15
   4  -5  -3 2584.02 194.260  25
  -4   5   3 2227.23 165.295  18
   4  -5  -2 102.713 38.6865   9
  -4   5   2 44.8926 25.6791  15
   4  -5  -2 80.7792 43.4392  25
   4  -5  -1 3121.37 196.028   9
   4  -5  -1 3141.90 203.411  25
   4  -5  -1 3175.31 200.054  17
   4  -5   0 3216.84 194.026   9
   4  -5   0 2861.22 178.671  12
   4  -5   0 3384.36 203.934  17
   4  -5   1 50.8743 26.5648  17
   4  -5   1 56.8482 30.1800   9
   4  -5   1 51.0879 32.1449  12
   4  -5   2 6300.26 258.491   9
   4  -5   2 6138.10 246.657  12
   4  -5   2 6638.90 268.659  17
   4  -5   3 108.506 36.2898  17
   4  -5   3 71.7479 36.9274   9
   4  -5   3 27.5275 23.6385  12
   4  -5   4 740.985 73.3323   9
   4  -5   4 646.027 65.5695  12
  -4   4  11 3.97907 10.9892  23
  -4   4  10 825.740 75.3738  17
  -4   4  10 850.166 82.7902  24
  -4   4  10 888.826 87.0698  23
  -4   4   9 616.781 80.2391  23
  -4   4   8-17.5689 19.6781  23
  -4   4   7 78.0463 37.1725  23
   4  -4  -6 8561.52 361.689  25
  -4   4   5 904.234 113.312  15
   4  -4  -5 1012.31 122.213  25
  -4   4   4 134.249 45.9013  15
   4  -4  -4 142.438 43.4505  25
   4  -4  -3 179.684 51.1326   9
  -4   4   3 131.807 84.2970  27
  -4   4   3 131.419 44.9936  15
   4  -4  -3 167.017 52.9637  25
   4  -4  -3-42.5158 57.4166   7
   4  -4  -2-20.9364 33.3701   9
  -4   4   2 13.8908 22.5367  15
   4  -4  -2 22.1998 34.8600  25
  -4   4   2 60.3193 69.7846  27
   4  -4  -2-15.3109 17.9938  17
   4  -4  -1 5676.88 264.835   9
   4  -4  -1 5345.40 263.431  25
   4  -4  -1 5486.73 253.141  12
   4  -4  -1 5720.76 269.183  17
   4  -4   0 409.300 74.5086  17
   4  -4   0 321.785 61.5397   9
   4  -4   0 302.205 62.9076  12
   4  -4   1 1892.75 150.191   9
   4  -4   1 1949.59 151.668  12
   4  -4   1 2056.73 159.042  17
   4  -4   2 2495.81 173.650   9
   4  -4   2 2391.76 166.792  12
   4  -4   2 2559.11 179.341  17
   4  -4   3 362.907 68.0981  17
   4  -4   3 391.391 71.4566   9
   4  -4   3 406.364 70.6385  12
   4  -4   4 1782.77 136.656   9
   4  -4   4 1912.59 139.292  12
   4  -4   5 38.9468 25.0108   9
   4  -4   5 51.9535 20.1712  12
   4  -4   6 29.2388 16.8919  10
   4  -4   6 49.0898 21.3031   9
   4  -4   6 36.2554 19.3613  12
  -4   3  11-5.51154 14.6431  23
  -4   3  11 25.9284 14.4632  22
  -4   3  10 292.780 53.7006  23
  -4   3  10 277.406 49.3354  17
  -4   3  10 284.161 50.3023  24
  -4   3   9 848.119 97.3630  23
  -4   3   8 1569.61 140.500  23
  -4   3   7 5610.01 266.274  23
   4  -3  -6 3178.42 215.192  25
  -4   3   6 3244.07 203.764  23
   4  -3  -5 987.932 222.617  30
   4  -3  -5 1077.24 255.721   2
  -4   3   5 1109.10 119.260  15
  -4   3   5 1070.13 224.223  28
   4  -3  -5 1368.21 139.423  25
   4  -3  -5 1374.50 272.518   7
   4  -3  -4-7.65312 91.5143  30
   4  -3  -4 51.4032 40.1434   2
  -4   3   4 83.5281 55.5739  27
   4  -3  -4-132.832 83.3260   7
  -4   3   4-91.8933 62.1820  28
  -4   3   3 23.8076 63.1872  27
   4  -3  -3 31.5945 73.8743   7
   4  -3  -2-48.8049 59.1181  30
  -4   3   2 55.2629 56.4870  29
   4  -3  -2-0.64208 79.2503   7
  -4   3   2 35.1605 35.7284  27
   4  -3  -1 502.170 155.431  30
  -4   3   1 149.027 64.5860  29
   4  -3  -1 533.880 149.447   8
  -4   3   1 362.555 117.940  27
  -4   3   0 534.626 149.840  29
   4  -3   0 659.171 174.249   2
  -4   3   0 529.286 134.960  27
   4  -3   0 493.700 166.761   8
  -4   3  -1 233.711 127.930  29
   4  -3   1 279.828 118.204   2
   4  -3   1 159.720 42.5003   9
  -4   3  -1 104.020 69.2086  27
   4  -3   1 258.546 114.366   8
   4  -3   2 4508.87 228.242   9
   4  -3   2 4074.75 213.725  12
   4  -3   2 3844.62 216.103  17
   4  -3   3 28981.7 596.537   9
   4  -3   3 26960.0 566.460  12
   4  -3   4 678.961 92.5205   9
   4  -3   4 560.699 82.2291  12
   4  -3   5 2630.75 166.355   9
   4  -3   5 2630.77 167.040  12
   4  -3   6 44.8502 27.4335   9
   4  -3   6-3.86942 19.4413  12
   4  -3   7-7.92673 12.2193  10
   4  -3   7 7.56272 11.3533   9
   4  -3   7-7.57789 13.1217  12
  -4   2  11 16.6659 14.9902  22
  -4   2  11 6.89427 9.89865  11
  -4   2  10 85.6566 29.9457  17
  -4   2  10 58.5832 19.9202  23
  -4   2  10 62.9421 22.2192  24
  -4   2   9-5.26161 21.3809  24
  -4   2   9 14.0676 26.2265  23
  -4   2   8 753.542 100.478  23
  -4   2   7 65.9177 34.7644  23
  -4   2   6 4.12567 19.9530  23
   4  -2  -6 184.880 128.282   1
   4  -2  -5 753.720 197.598  30
  -4   2   5 507.463 152.689  28
   4  -2  -5 846.115 206.338   1
   4  -2  -5 914.733 219.409   7
   4  -2  -4 1030.40 217.484   2
  -4   2   4 1270.47 227.883  28
  -4   2   4 1471.46 224.453  27
   4  -2  -4 1292.93 230.364   1
   4  -2  -4 1303.92 247.871   7
   4  -2  -3 36.5985 39.4909  30
   4  -2  -3-19.7121 65.2474   7
   4  -2  -2 390.890 121.100  30
   4  -2  -2 147.984 76.6860   2
  -4   2   2 204.975 71.4335  27
   4  -2  -2 373.297 128.016   7
   4  -2  -2 292.908 105.728   8
   4  -2  -1 154.016 93.0147  30
   4  -2  -1 281.877 102.674   8
  -4   2   1 200.615 83.5191  29
   4  -2  -1 47.2292 73.7580   2
   4  -2  -1 192.254 67.3226   7
  -4   2   1 77.1126 48.8149  27
   4  -2   0 16371.6 796.164  30
  -4   2   0 16453.4 694.004  29
   4  -2   0 15475.1 746.692   8
  -4   2   0 15491.7 647.981  32
  -4   2   0 17262.7 736.587  27
   4  -2   0 15779.8 782.664   2
  -4   2  -1 3793.19 372.114  32
  -4   2  -1 4158.01 370.682  29
  -4   2  -1 4396.49 415.723  27
   4  -2   1 3601.03 373.854   8
   4  -2   1 3595.26 387.086   2
  -4   2  -2 706.682 165.895  29
   4  -2   2 661.002 168.118   8
  -4   2  -2 732.218 179.910  27
  -4   2  -3-67.3853 63.4995  29
   4  -2   3 0.65076 16.4047   9
   4  -2   3 25.4200 16.3713  12
  -4   2  -3-118.743 77.8164  27
   4  -2   4 8871.75 325.247   9
   4  -2   4 9200.14 327.941  12
   4  -2   5 2336.18 167.218   9
   4  -2   5 2526.43 173.026  12
   4  -2   6 1280.74 116.761   9
   4  -2   6 1324.71 119.986  12
   4  -2   7 10.8130 17.8223  10
   4  -2   7 74.7835 27.0894   9
   4  -2   7 12.6033 24.6066  12
   4  -2   8 156.266 34.7596  12
   4  -1 -11 11.9995 13.7236  13
  -4   1  11 14.2631 11.0589  22
  -4   1  11 1.87506 10.0899  11
  -4   1  10 423.331 61.2243  17
  -4   1  10 364.248 60.3591  23
  -4   1   9 1869.60 143.138  17
  -4   1   9 2020.93 155.767  23
  -4   1   8 726.920 99.4469  23
  -4   1   7 3304.80 204.965  23
  -4   1   6 126.721 41.2017  23
   4  -1  -6-82.9302 71.4102   3
  -4   1   6 122.029 80.7014  28
   4  -1  -6 1.81758 26.0483   1
   4  -1  -6 123.231 92.2480   7
  -4   1   5 1281.99 236.029  28
   4  -1  -5 1218.04 235.270   3
   4  -1  -5 1329.45 261.133   7
   4  -1  -5 1247.00 243.934   1
  -4   1   4 5369.97 356.850  32
   4  -1  -4 5406.38 461.545  30
  -4   1   4 5363.91 438.348  28
   4  -1  -4 5680.49 500.685   7
   4  -1  -4 5414.64 455.351   2
   4  -1  -4 5627.33 470.555   1
   4  -1  -3 9835.27 542.977   1
   4  -1  -3 10177.8 593.655  30
  -4   1   3 10902.1 588.027  28
  -4   1   3 11041.6 557.058  27
   4  -1  -3 10971.6 644.898   7
  -4   1   3 10743.5 481.531  32
   4  -1  -3 10581.8 617.899   2
  -4   1   2 18298.4 639.001  32
   4  -1  -2 17128.4 727.049  30
  -4   1   2 16434.4 662.960  27
   4  -1  -2 17931.9 687.863   8
   4  -1  -2 16964.7 737.110   7
   4  -1  -2 18186.6 787.639   2
  -4   1   1 24272.5 697.133  32
   4  -1  -1 26193.8 889.743  30
  -4   1   1 25486.0 720.308  29
  -4   1   1 24923.1 763.197  27
   4  -1  -1 25706.2 867.388   8
   4  -1  -1 24706.2 817.456   7
   4  -1  -1 25558.2 900.673   2
  -4   1   0 42614.9 984.156  32
  -4   1   0 41331.7 948.773  29
  -4   1   0 40569.3 1006.16  27
   4  -1   0 44266.7 1156.84   8
   4  -1   0 40525.1 963.923   7
   4  -1   0 42948.3 1159.67   2
  -4   1  -1 10091.3 519.972  29
  -4   1  -1 10571.4 580.863  27
   4  -1   1 9147.17 545.280   8
  -4   1  -1 11205.0 587.600  32
   4  -1   1 9501.02 557.989   2
   4  -1   2 30.3555 46.8354   2
  -4   1  -2 36.8024 51.8938  29
  -4   1  -2 136.668 74.4616  27
   4  -1   2 191.119 71.3090   8
  -4   1  -3 467.074 140.796  27
   4  -1   3 292.687 114.532   8
  -4   1  -3 383.866 130.238  29
  -4   1  -4 3490.47 395.798  29
  -4   1  -4 3960.51 450.077  27
   4  -1   4 3709.91 439.321   8
   4  -1   5 1067.69 110.118   9
   4  -1   5 1249.99 123.071  24
   4  -1   5 1289.69 121.765  22
   4  -1   5 1257.39 119.692  12
   4  -1   6 19235.9 469.778  24
   4  -1   6 17881.9 450.290  22
   4  -1   6 17804.3 448.694  12
   4  -1   7 392.459 68.7470  10
   4  -1   7 354.683 60.4605  22
   4  -1   7 317.990 57.0539  12
   4  -1   8 1137.65 97.5204  12
   4  -1   8 984.072 84.4892  10
  -4   0  10 11.4592 15.1814  17
   4   0 -10 0.09019 16.2875  13
  -4   0  10 33.4145 24.0885  22
  -4   0  10 6.97210 15.0311  11
  -4   0   9 1685.08 134.339  17
  -4   0   9 1807.14 144.736  23
  -4   0   8-5.26248 24.6292  17
  -4   0   8 11.0432 29.8047  23
  -4   0   7 9514.89 349.784  23
   4   0  -6 249.768 118.050   3
  -4   0   6 198.441 102.961  28
   4   0  -6 162.905 99.8223   1
   4   0  -6-7.84602 57.2658   7
  -4   0   6 201.957 50.0047  23
   4   0  -5 344.411 129.097   3
  -4   0   5 489.050 154.053  28
   4   0  -5 256.263 89.8620   1
   4   0  -5 348.923 133.876   7
  -4   0   5 372.838 115.072  32
  -4   0   4 895.000 149.973  32
  -4   0   4 997.150 192.295  28
   4   0  -4 703.833 158.026   2
   4   0  -4 857.738 175.800   3
   4   0  -4 1012.17 203.865   1
   4   0  -4 1051.69 207.913   7
  -4   0   3 45886.2 993.810  32
  -4   0   3 42184.3 1038.30  27
  -4   0   3 42985.7 1109.64  28
   4   0  -3 44637.9 1246.34   7
   4   0  -3 44392.8 1180.43   2
   4   0  -3 41780.7 1122.24   1
   4   0  -3 39444.6 1018.53   3
   4   0  -2 108.886 68.3013   2
  -4   0   2 139.335 60.8747  31
  -4   0   2 85.2326 43.2255  28
   4   0  -2 107.430 47.3853   8
   4   0  -2 172.687 84.4383   7
  -4   0   2 197.216 76.1747  32
  -4   0   2 170.758 65.6825  27
   4   0  -2 48.1174 44.2021   1
  -4   0   1 4108.16 286.573  32
  -4   0   1 3870.53 270.135  31
  -4   0   1 3810.44 244.714  29
  -4   0   1 3993.22 293.438  27
   4   0  -1 3797.27 298.951   8
   4   0  -1 3779.36 303.780   7
   4   0  -1 4233.47 343.632   2
  -4   0   0 22919.8 590.749  29
  -4   0   0 24483.6 696.329  27
   4   0   0 22804.5 689.392   7
   4   0   0 25157.8 814.908   8
  -4   0   0 24026.0 682.569  32
   4   0   0 24136.8 805.094   2
  -4   0  -1 21353.0 655.112  29
  -4   0  -1 23645.7 775.899  27
   4   0   1 22199.8 791.563   8
  -4   0  -1 23345.4 762.369  32
   4   0   1 21554.4 767.536   2
  -4   0  -2 9498.66 499.634  29
  -4   0  -2 10935.2 587.950  27
   4   0   2 9904.42 556.912   8
   4   0   2 9494.91 521.124   2
  -4   0  -3 701.332 153.640  29
  -4   0  -3 635.931 147.508  27
   4   0   3 522.566 137.853   8
  -4   0  -4 833.639 186.546  27
  -4   0  -4 1286.97 232.371  29
   4   0   4 793.367 185.032   8
  -4   0  -5 2210.57 327.187  29
  -4   0  -5 1979.70 321.362  27
   4   0   5 2159.18 325.954   8
   4   0   6 8323.38 304.179  24
   4   0   6 8487.55 318.685  22
   4   0   6 8031.99 297.165  12
   4   0   7 4234.86 215.292  24
   4   0   7 3959.16 214.716  22
   4   0   7 3869.56 204.562  12
   4   0   7 4169.89 226.668  10
   4   0   8 14.1145 27.3925  10
   4   0   8-5.57798 18.4482  24
   4   0   8 12.2358 27.9550  22
   4   0   8 21.5481 30.0523  12
   4   0   9 538.759 65.4270  22
  -4  -1  10-3.12329 14.1747  17
   4   1 -10 1.14587 19.1774  13
  -4  -1  10 3.96835 12.7267  22
  -4  -1  10 38.5305 19.8872  11
  -4  -1   9 412.570 67.2160  17
   4   1  -9 398.553 67.3548  13
  -4  -1   9 383.714 65.3070  11
  -4  -1   8 553.114 84.5792  17
  -4  -1   8 629.068 92.2037  23
  -4  -1   7 324.415 68.3700  17
  -4  -1   7 123.006 47.0468  23
   4   1  -6 1615.61 305.088   3
  -4  -1   6 1881.17 155.911  23
  -4  -1   5 972.822 180.001  32
   4   1  -5 887.604 207.266   3
  -4  -1   5 769.579 187.249  28
   4   1  -5 1036.31 228.677   1
  -4  -1   4 3420.23 305.644  32
  -4  -1   4 3946.67 394.420  28
   4   1  -4 3408.15 374.071   1
   4   1  -4 3067.02 334.486   3
  -4  -1   3 36263.1 806.295  31
   4   1  -3 38544.7 1153.47   7
   4   1  -3 38799.8 1077.50   2
   4   1  -3 38822.3 1124.55   1
  -4  -1   3 38074.1 911.941  32
   4   1  -3 35786.6 982.141   3
  -4  -1   3 39667.0 1104.97  28
  -4  -1   2 13556.2 486.944  31
  -4  -1   2 13816.1 572.583  28
  -4  -1   2 14173.1 558.568  27
   4   1  -2 13557.6 607.127   2
   4   1  -2 13846.8 585.015   1
  -4  -1   2 14315.6 547.715  32
   4   1  -2 14067.6 638.831   7
  -4  -1   1 2969.21 255.326  32
  -4  -1   1 2510.41 221.396  28
  -4  -1   1 2645.05 233.593  27
   4   1  -1 2626.13 230.108   8
  -4  -1   1 2407.12 218.063  31
   4   1  -1 2147.43 227.625   7
   4   1  -1 2280.24 206.060   1
   4   1  -1 2401.74 246.242   2
  -4  -1   0 8418.15 284.615  29
  -4  -1   0 9193.72 405.633  27
   4   1   0 9626.49 459.971   8
  -4  -1   0 8707.49 410.988  31
   4   1   0 9530.30 440.722   7
   4   1   0 8620.03 456.118   2
  -4  -1   0 8998.81 408.408  32
  -4  -1  -1 310.993 85.0397  32
   4   1   1 321.530 91.4950   2
  -4  -1  -1 279.975 62.0678  29
   4   1   1 327.755 90.3686   8
  -4  -1  -1 343.347 81.6306  27
   4   1   1 278.626 74.3502   4
  -4  -1  -2 6232.40 408.911  32
  -4  -1  -2 5451.92 333.183  29
  -4  -1  -2 6018.83 387.050  27
   4   1   2 5548.02 389.866   8
   4   1   2 5262.50 313.705   4
   4   1   2 5512.13 366.493   2
   4   1   3 420.585 97.1063   2
  -4  -1  -3 291.198 80.0404  29
  -4  -1  -3 658.149 152.582  27
   4   1   3 433.892 122.876   8
   4   1   4 329.408 99.6627   5
  -4  -1  -4 264.088 86.7993  29
  -4  -1  -4 319.803 107.123  27
   4   1   4 201.045 100.604   8
   4   1   5 3960.37 387.443   5
  -4  -1  -5 3512.29 389.535  27
   4   1   5 3147.17 360.032   8
  -4  -1  -5 3719.97 397.094  29
   4   1   6 4539.39 454.583   5
  -4  -1  -6 4861.65 495.411  29
  -4  -1  -6 4523.73 477.243  27
   4   1   6 4789.46 223.379  24
   4   1   6 5171.96 241.556  22
   4   1   6 4888.83 235.802  10
   4   1   7 6383.37 263.564  24
   4   1   7 6872.49 284.885  22
   4   1   7 6465.19 275.845  10
   4   1   8 1752.73 139.044  24
   4   1   8 1962.33 147.940  22
   4   1   9 141.148 39.9747  24
   4   1   9 252.277 52.9272  22
   4   1  10 93.6464 31.0427  24
   4   1  10 56.5234 22.4858  22
  -4  -2   9 164.550 40.3901  17
   4   2  -9 177.003 40.7602  13
  -4  -2   9 179.935 44.5055  11
   4   2  -8 1888.02 149.424  13
  -4  -2   8 1777.72 144.299  11
  -4  -2   8 1927.28 150.659  17
  -4  -2   7 3295.94 206.712  17
  -4  -2   6 7450.37 309.153  17
  -4  -2   6 7605.49 324.966  23
   4   2  -5 1954.24 312.639   3
  -4  -2   5 2142.44 332.311  28
   4   2  -5 2128.38 337.929   1
  -4  -2   4 7457.41 483.279  32
  -4  -2   4 7460.80 564.458  28
   4   2  -4 7058.49 564.190   1
   4   2  -4 7435.35 547.035   3
  -4  -2   4 6799.86 424.614  31
  -4  -2   3 10132.7 501.640  32
  -4  -2   3 9962.97 590.874  28
   4   2  -3 10084.9 559.200   2
   4   2  -3 9702.25 595.528   1
   4   2  -3 8900.00 524.249   3
  -4  -2   3 9894.29 470.084  31
  -4  -2   2 43.9465 34.0137  32
   4   2  -2 15.2852 39.7320   3
  -4  -2   2 103.431 78.6252  28
   4   2  -2 47.2736 42.1183   1
  -4  -2   2-15.6901 33.4577  31
   4   2  -2-21.0966 34.2817   2
  -4  -2   1 6039.19 342.865  31
  -4  -2   1 5492.46 338.365  28
  -4  -2   1 5948.89 332.534  27
   4   2  -1 5474.85 346.063   1
   4   2  -1 5743.32 384.432   2
  -4  -2   0 13944.3 530.696  31
  -4  -2   0 13317.6 445.031  28
  -4  -2   0 13897.1 493.436  27
  -4  -2   0 14719.4 541.011  32
   4   2   0 13570.7 558.293   2
   4   2   1 365.569 71.3957   6
  -4  -2  -1 433.677 98.4902  31
  -4  -2  -1 494.060 86.5654  27
   4   2   1 408.863 96.5940   8
   4   2   1 553.714 115.303   4
  -4  -2  -1 561.411 109.681  32
   4   2   1 404.126 95.6373   2
  -4  -2  -2 2260.99 181.527  29
  -4  -2  -2 2699.89 221.393  27
   4   2   2 2448.42 240.935   8
  -4  -2  -2 2471.52 238.438  32
   4   2   2 2536.20 236.028   4
   4   2   2 2524.88 238.771   2
  -4  -2  -3 628.540 114.493  29
  -4  -2  -3 706.073 132.177  27
   4   2   3 634.343 127.973   8
   4   2   3 555.245 117.621   4
   4   2   3 561.012 110.768   2
  -4  -2  -4 3112.93 306.632  29
  -4  -2  -4 3125.07 300.745  27
   4   2   4 3205.84 310.232   8
   4   2   4 2828.35 275.566   4
   4   2   4 3209.00 313.661   5
   4   2   5 1601.27 243.292   5
  -4  -2  -5 1331.32 225.203  29
  -4  -2  -5 1437.60 223.189  27
   4   2   5 1399.88 216.254   8
   4   2   6 7268.20 564.319   5
  -4  -2  -6 7548.07 596.832  29
  -4  -2  -6 6924.05 533.049  27
   4   2   7 2715.13 171.016  24
   4   2   7 2463.37 165.607  22
   4   2   7 2403.99 160.412  10
   4   2   8 1560.98 130.377  24
   4   2   8 1827.01 141.919  22
   4   2   9 50.9781 22.0958  24
   4   2   9 44.2649 23.6491  22
   4   2  10 88.0607 28.6482  24
   4   2  10 91.5478 35.1516  22
   4   2  11 16.8550 15.2354  24
   4   2  11-5.85666 12.0741  22
   4   3  -9-1.10119 12.2718  13
  -4  -3   9-22.3432 13.9920  17
  -4  -3   9 14.5200 18.9664  11
   4   3  -8 3001.86 174.944  13
  -4  -3   8 2926.09 171.267  11
  -4  -3   8 2846.32 168.334  17
   4   3  -7 1373.91 130.400  13
  -4  -3   7 1491.08 139.919  11
  -4  -3   7 1501.93 138.727  17
   4   3  -6 5701.48 272.809  13
  -4  -3   6 5811.54 287.618  11
  -4  -3   6 5583.67 274.720  17
  -4  -3   5 13.7599 32.8888  17
   4   3  -5 24.7397 31.4407  13
  -4  -3   4 2341.42 297.494  32
   4   3  -4 1696.88 272.727   3
  -4  -3   4 2231.48 334.266  28
   4   3  -4 2459.96 346.337   1
  -4  -3   3 2002.97 250.286  32
  -4  -3   3 1921.38 228.673  31
   4   3  -3 1516.95 236.003   3
  -4  -3   3 1778.15 266.067  28
   4   3  -3 1839.88 278.409   1
  -4  -3   2 177.223 73.3553  32
  -4  -3   2 56.3526 47.6375  28
  -4  -3   2 62.0699 51.1252  26
  -4  -3   2 40.1573 43.4296  31
   4   3  -2 124.169 62.2600   3
   4   3  -2 8.22164 41.8933   1
   4   3  -2 22.1100 42.0632   2
  -4  -3   1 2363.70 230.467  32
  -4  -3   1 1800.21 196.262  28
   4   3  -1 1989.54 236.752   1
  -4  -3   1 2143.53 216.246  31
   4   3  -1 2124.42 246.030   2
   4   3  -1 1942.44 202.741   3
  -4  -3   0 50638.9 1020.99  31
   4   3   0 46468.9 1090.67   2
   4   3   0 51433.7 1228.00   4
   4   3   0 46552.3 1065.84   6
  -4  -3  -1 86676.7 1094.16  27
   4   3   1 87123.1 1433.03   2
   4   3   1 93108.8 1540.35   4
  -4  -3  -1 96509.0 1392.89  32
  -4  -3  -1 92374.1 1421.89  31
   4   3   1 91759.7 1376.38   6
  -4  -3  -2 27760.6 734.087  32
  -4  -3  -2 24904.4 562.045  27
   4   3   2 28037.1 808.469   8
  -4  -3  -2 28709.5 807.311  31
   4   3   2 26944.3 788.090   2
   4   3   2 26388.9 827.186   4
   4   3   2 25390.8 680.346   6
  -4  -3  -3 11888.6 521.019  32
  -4  -3  -3 11368.5 530.576  31
   4   3   3 11533.5 527.717   8
   4   3   3 10683.7 503.995   2
   4   3   3 11163.1 555.563   4
   4   3   4 5722.64 420.432   5
   4   3   4 5292.76 374.337   8
   4   3   4 5119.17 355.234   2
   4   3   4 6147.41 427.908   4
  -4  -3  -4 5768.87 414.568  32
  -4  -3  -4 5612.43 391.645  29
   4   3   5 9224.97 565.797   5
  -4  -3  -5 9799.21 597.004  29
   4   3   5 9545.75 531.058   8
   4   3   5 8412.95 532.152   4
   4   3   6 3315.89 370.926   5
  -4  -3  -6 3223.09 382.229  29
  -4  -3  -7 654.835 184.597  29
   4   3   7 633.841 84.0450  24
   4   3   7 745.301 89.0485  22
   4   3   7 563.699 82.2205  19
   4   3   8 2063.68 151.820  24
   4   3   8 2043.39 149.717  22
   4   3   8 2342.58 173.164  19
   4   3   9 111.703 41.5749  22
   4   3   9 61.9235 26.9219  24
   4   3  10 124.227 35.9341  24
   4   3  10 112.764 36.4398  22
   4   3  11 25.0502 16.8520  22
   4   3  11 39.4503 22.6701  24
  -4  -4   8 111.525 33.1817  17
   4   4  -8 145.421 37.9938  13
  -4  -4   8 97.0000 28.1799  11
   4   4  -7 200.628 51.0041  13
  -4  -4   7 120.092 40.5274  17
  -4  -4   7 200.592 44.0820  11
   4   4  -6 1046.20 114.127  13
  -4  -4   6 835.050 107.229  11
  -4  -4   6 853.177 109.127  17
   4   4  -5 7944.02 319.838  13
  -4  -4   5 8279.83 349.796  11
  -4  -4   5 8348.62 344.987  17
   4   4  -4 2368.06 176.332  14
   4   4  -4 2876.50 188.663  13
   4   4  -4 2336.98 174.826  20
  -4  -4   4 2845.30 200.504  11
  -4  -4   4 2730.41 197.297  17
  -4  -4   3 12779.9 711.483  32
   4   4  -3 12237.1 764.654   1
   4   4  -3 11096.7 692.750   3
  -4  -4   2 445.340 126.760  32
  -4  -4   2 340.403 113.496  26
   4   4  -2 304.151 116.144   3
  -4  -4   2 645.227 150.163  31
   4   4  -1 1548.14 246.046   6
  -4  -4   1 1864.22 219.053  32
  -4  -4   1 1498.93 201.710  31
   4   4  -1 1563.99 235.215   2
  -4  -4   1 1420.64 210.993  26
   4   4  -1 1450.45 211.544   3
  -4  -4   0 115275. 1629.35  32
   4   4   0 113202. 1894.86   2
  -4  -4   0 110477. 1805.89  26
  -4  -4   0 111431. 1627.54  31
   4   4   0 109831. 1929.20   4
  -4  -4  -1 1908.75 208.051  32
  -4  -4  -1 1740.08 202.042  31
   4   4   1 2028.71 243.004   2
  -4  -4  -1 1581.14 210.396  26
   4   4   1 1651.21 229.576   4
   4   4   1 1512.86 206.899   6
  -4  -4  -2 3750.71 286.319  32
  -4  -4  -2 3798.87 306.238  31
   4   4   2 3687.01 315.804   2
   4   4   2 3773.58 336.184   4
   4   4   2 3480.32 305.945   6
  -4  -4  -3 146.481 76.1890  31
   4   4   3 187.267 81.8661   4
  -4  -4  -3 173.650 67.5403  32
   4   4   3 113.786 47.7976   2
   4   4   3 58.6384 44.9099   6
  -4  -4  -4 561.983 112.106  32
  -4  -4  -4 506.771 132.076  26
   4   4   4 359.950 101.186   4
  -4  -4  -4 300.387 76.4528  31
   4   4   5 733.795 166.180   5
   4   4   5 563.386 147.600   4
  -4  -4  -5 567.793 126.758  32
  -4  -4  -5 422.918 116.489  31
   4   4   6 371.609 117.738   5
   4   4   6 225.236 94.6613   4
   4   4   7 415.266 68.4754  24
   4   4   7 456.117 68.1361  22
   4   4   7 495.315 79.2287  19
   4   4   7 599.324 88.3016  18
   4   4   8 404.643 67.7744  24
   4   4   8 435.710 71.2273  22
   4   4   8 504.734 80.1292  19
   4   4   9 3111.99 182.424  24
   4   4   9 3281.31 189.235  22
   4   4   9 3710.62 212.504  19
   4   4  10 19.5459 25.1036  24
   4   4  10 26.8083 22.3382  22
   4   4  11 76.5192 26.0710  24
   4   4  11 82.5676 29.3125  22
  -4  -5   7 250.684 46.2831  17
   4   5  -7 293.096 51.0809  13
  -4  -5   7 252.830 43.8436  11
  -4  -5   6 190.715 50.6343  17
   4   5  -6 192.084 46.8645  13
  -4  -5   6 194.601 46.0408  11
   4   5  -5 30.7100 29.7001  13
  -4  -5   5 72.6831 41.9549  17
  -4  -5   5 23.1510 28.0781  11
   4   5  -4 5044.63 264.605  14
   4   5  -4 5522.27 263.645  13
   4   5  -4 4933.80 261.975  20
  -4  -5   4 5256.00 271.558  11
  -4  -5   4 5746.70 289.574  17
   4   5  -3 1841.15 157.792  14
   4   5  -3 2047.69 161.370  13
   4   5  -3 1981.93 164.818  20
  -4  -5   3 2146.30 174.009  17
  -4  -5   2 5111.14 444.447  26
   4   5  -2 5731.36 547.197   4
   4   5  -2 5634.12 515.338   3
   4   5  -2 5771.52 554.095   6
  -4  -5   1 6619.14 462.880  32
  -4  -5   1 7088.24 495.827  31
  -4  -5   1 6555.30 486.763  26
   4   5  -1 7302.75 580.568   4
   4   5  -1 6789.59 530.134   3
   4   5  -1 6277.22 545.154   6
   4   5   0 506.385 150.864   6
  -4  -5   0 529.816 126.056  32
  -4  -5   0 518.226 147.769  26
  -4  -5   0 319.345 94.3228  31
   4   5   0 299.119 107.420   4
  -4  -5  -1 74795.1 1314.91  32
  -4  -5  -1 84369.0 1684.35  26
  -4  -5  -1 81590.8 1485.77  31
   4   5   1 77206.4 1657.79   4
   4   5   1 75975.8 1663.30   6
  -4  -5  -2 24461.5 804.375  31
  -4  -5  -2 24241.6 887.769  26
   4   5   2 22284.0 889.817   4
   4   5   2 21876.8 872.434   6
  -4  -5  -3 95.6182 82.2192  26
  -4  -5  -3 39.2835 49.0998  31
   4   5   3 8.10248 56.4035   4
   4   5   3-77.2912 58.3815   6
  -4  -5  -4 234.350 94.9233  31
  -4  -5  -4 115.366 46.9194  26
   4   5   4 201.074 93.4583   4
   4   5   4 12.8988 76.1830   6
   4   5   5 110.700 90.3476   4
  -4  -5  -5 420.189 135.871  30
   4   5   6 1706.77 272.228   5
   4   5   6 1357.87 242.052   4
  -4  -5  -6 1833.01 285.519  30
   4   5   7 148.222 40.9388  16
   4   5   7 109.622 35.4856  24
   4   5   7 121.502 41.9672  19
   4   5   7 118.878 43.1339  18
   4   5   8 1555.29 130.923  16
   4   5   8 1315.97 122.349  24
   4   5   8 1344.06 122.812  22
   4   5   8 1473.32 136.110  19
   4   5   8 1518.17 141.949  18
   4   5   9 59.2606 23.1433  16
   4   5   9 86.6719 33.0677  24
   4   5   9 55.4413 25.1508  19
   4   5  10 442.904 69.2880  24
   4   5  10 487.432 69.9330  22
   4   5  10 512.792 76.9697  19
   4   5  11 323.248 52.5514  24
   4   5  11 339.118 53.9680  22
   4   5  12 94.9297 22.6555  24
  -4  -6   6 266.502 49.5635  17
   4   6  -6 288.275 52.6959  13
  -4  -6   6 217.268 40.1281  11
  -4  -6   5 212.641 53.0816  17
   4   6  -5 154.428 42.6821  13
  -4  -6   5 161.263 42.7724  11
  -4  -6   4 71.9358 39.1716  17
   4   6  -4 22.5436 27.7471  13
   4   6  -4 50.0199 29.0643  20
  -4  -6   4 78.7532 35.9633  11
   4   6  -3 1250.77 125.132  13
   4   6  -3 1246.55 133.423  20
  -4  -6   3 1335.08 136.955  17
   4   6  -2 23774.0 571.961  14
   4   6  -2 25348.1 563.804  13
   4   6  -2 24924.9 594.194  20
  -4  -6   2 24523.5 576.546  17
  -4  -6   1 1203.68 228.611  26
   4   6  -1 1329.38 130.129  14
   4   6  -1 1297.96 128.913  13
   4   6  -1 996.714 229.442   4
   4   6  -1 1473.13 138.704  20
  -4  -6   1 1132.11 120.983  17
  -4  -6   0 1117.42 210.747  31
  -4  -6   0 1328.29 226.652  26
   4   6   0 1222.62 244.480   4
   4   6   0 1248.86 248.682   6
  -4  -6  -1 36377.7 1108.64  31
  -4  -6  -1 37232.9 1209.27  26
  -4  -6  -1 33060.9 1153.82  30
   4   6   1 34416.3 1237.78   4
   4   6   1 36258.7 1297.79   6
  -4  -6  -2 123.211 68.0356  26
  -4  -6  -2 18.1277 42.7650  31
  -4  -6  -2 153.069 85.3921  30
   4   6   2 12.6785 45.2115   6
  -4  -6  -3 846.028 163.058  31
  -4  -6  -3 436.848 123.360  26
   4   6   3 744.566 179.135   4
  -4  -6  -3 595.940 152.132  30
   4   6   3 624.775 159.591   6
  -4  -6  -4-1.52984 20.3021  30
  -4  -6  -4-40.9851 43.6389  26
   4   6   4-22.7092 74.4821   6
   4   6   5 1937.57 293.382   4
  -4  -6  -5 1441.75 250.697  30
   4   6   5 1686.81 270.533   6
  -4  -6  -6 6991.15 589.532  30
   4   6   6 7817.47 299.592  16
   4   6   6 7639.14 303.542  19
   4   6   6 7629.82 302.990  18
   4   6   7 4869.11 236.764  16
   4   6   7 4688.76 240.795  19
   4   6   7 4478.56 237.925  18
   4   6   8 786.625 95.8067  16
   4   6   8 778.697 99.4976  19
   4   6   8 692.111 92.5875  18
   4   6   9 117.974 38.6649  16
   4   6   9 90.0618 32.3098  24
   4   6   9 118.386 39.9703  19
   4   6   9 104.579 39.4609  18
   4   6  10 797.518 87.9032  24
   4   6  10 938.906 99.3078  19
   4   6  11 229.297 44.7510  24
   4   6  11 292.560 50.7382  19
  -4  -7   5-17.1527 18.1517  17
   4   7  -5 36.5805 22.4852  13
   4   7  -4 404.147 66.5767  13
  -4  -7   4 521.440 75.0660  17
   4   7  -3 550.026 81.4780  13
  -4  -7   3 564.199 83.7644  17
   4   7  -3 520.992 82.2835  20
  -4  -7   2 287.284 64.0916  17
   4   7  -2 257.523 59.6444  13
   4   7  -2 321.048 68.9469  20
   4   7  -1 12987.7 410.522  13
   4   7  -1 12421.0 420.740  20
  -4  -7   1 11482.5 392.519  17
   4   7   0 1667.86 146.503  13
   4   7   0 1407.97 138.475  20
   4   7   1 6696.97 290.031  14
   4   7   1 6720.92 289.046  13
   4   7   1 6634.95 288.152  20
  -4  -7  -2 121.895 73.6400  30
  -4  -7  -2 114.886 82.9914  26
   4   7   2 28.7900 25.2403  14
   4   7   2 14.6052 11.5539  13
   4   7   2 24.6440 52.5754   4
   4   7   2-10.6376 15.7629  20
   4   7   2 187.720 103.014   6
  -4  -7  -3 161.643 88.2367  26
  -4  -7  -3 32.7191 37.7579  30
   4   7   3 187.038 47.8591  13
   4   7   3 178.023 114.893   4
   4   7   3 149.248 45.3175  20
   4   7   3 233.994 108.270   6
  -4  -7  -4-0.70661 13.5275  30
   4   7   4 58.3397 29.3530  16
  -4  -7  -4-44.4299 44.7994  26
   4   7   4 65.8923 31.2909  13
   4   7   4 113.177 81.6879   4
   4   7   4 86.9719 43.0170  18
   4   7   4-56.6575 56.1835   6
   4   7   5 629.018 88.4325  16
   4   7   5 480.121 76.3862  13
   4   7   5 632.121 93.2588  19
   4   7   5 632.420 89.0962  18
   4   7   6 679.720 92.2651  16
   4   7   6 697.849 96.9531  19
   4   7   6 765.858 101.111  18
   4   7   7 30.5334 22.9434  16
   4   7   7 17.7723 19.7137  19
   4   7   7-12.2792 22.8749  18
   4   7   8 241.694 54.4052  16
   4   7   8 336.003 68.3697  19
   4   7   8 239.317 54.7689  18
   4   7   9 181.939 47.1707  16
   4   7   9 198.288 50.6519  19
   4   7   9 142.973 38.4714  18
   4   7  10 32.7213 22.6834  16
   4   7  10 58.9670 31.1938  24
   4   7  10-10.7037 19.0632  19
   4   7  11 241.387 40.9923  24
   4   7  11 378.595 56.2444  19
   4   8  -4 407.506 53.3650  13
  -4  -8   4 373.470 48.6852  17
  -4  -8   3-76.2486 29.2801  17
   4   8  -3-22.1170 12.1126  20
  -4  -8   2 3.56788 18.8745  17
   4   8  -2-11.9040 27.5910  13
   4   8  -2-5.69542 25.3219  20
  -4  -8   1 399.917 69.2090  17
   4   8  -1 533.282 82.4510  13
   4   8  -1 465.919 81.5650  20
   4   8   0 1424.18 136.799  13
   4   8   0 1214.98 129.346  20
   4   8   1 667.832 96.4870  13
   4   8   1 607.673 91.5001  20
   4   8   2 188.843 52.6732  13
   4   8   2 171.937 52.4454  20
   4   8   3-12.4734 23.0145  13
   4   8   3-1.29838 21.8502  20
   4   8   4 3477.91 202.208  16
   4   8   4 3574.58 211.140  13
   4   8   4 3510.90 215.763  20
   4   8   4 4141.86 232.053  18
   4   8   5 79.9579 38.0585  16
   4   8   5 82.3031 23.8191  13
   4   8   5 70.5648 38.2763  19
   4   8   5 63.7559 38.7493  18
   4   8   6 437.420 74.8577  16
   4   8   6 308.242 70.5600  19
   4   8   6 423.479 75.7479  18
   4   8   7 253.959 58.8281  16
   4   8   7 386.726 75.6075  19
   4   8   7 254.924 59.4883  18
   4   8   8 14.6850 25.4533  16
   4   8   8 28.1692 24.2214  19
   4   8   8 18.4988 25.4953  18
   4   8   9 206.260 50.3356  16
   4   8   9 203.124 49.8204  19
   4   8   9 210.740 47.9549  18
   4   8  10-5.59557 23.3678  19
   4   8  10 45.0132 26.7381  18
   4   8  11 5.42117 13.2992  19
  -4  -9   2 3.68119 15.8695  17
   4   9  -2 11.7882 15.0017  13
   4   9  -1 97.6462 32.0390  13
   4   9  -1 63.3360 28.3783  20
   4   9   0 692.472 87.3035  13
   4   9   0 624.666 87.2117  20
   4   9   1 64.5852 31.6107  13
   4   9   1 39.0625 28.9528  20
   4   9   2 876.360 104.091  13
   4   9   2 816.274 100.823  20
   4   9   3 333.334 63.2952  13
   4   9   3 167.748 55.3852  20
   4   9   4 1024.57 115.234  15
   4   9   4 1201.75 120.093  13
   4   9   4 1031.90 114.310  20
   4   9   5 37.2499 24.9146  15
   4   9   5 20.4928 18.5831  13
   4   9   5 57.4619 32.1243  19
   4   9   5 38.6938 25.8166  18
   4   9   6 441.464 71.4698  16
   4   9   6 350.484 71.0581  19
   4   9   6 459.603 78.7722  18
   4   9   7 460.389 71.8359  16
   4   9   7 346.868 65.8293  19
   4   9   7 371.553 68.1242  18
   4   9   8 1252.90 110.731  16
   4   9   8 1202.14 115.608  19
   4   9   8 1217.04 118.772  18
   4   9   9 214.395 46.6941  16
   4   9   9 213.752 50.6762  19
   4   9   9 188.805 48.3180  18
   4   9  10 33.3103 19.8077  19
   4   9  10 60.0820 26.4414  18
   4   9  11 111.391 26.1791  19
   4  10   0 174.449 40.2967  15
   4  10   0 159.302 33.6632  13
   4  10   1 386.970 62.9479  15
   4  10   1 345.412 53.5342  13
   4  10   2 130.785 39.8649  15
   4  10   2 82.0354 33.4470  13
   4  10   3 153.334 44.3806  15
   4  10   3 232.869 49.4394  13
   4  10   3 212.967 50.8796  19
   4  10   4 210.321 48.8204  15
   4  10   4 118.900 36.3562  13
   4  10   4 136.344 42.4357  19
   4  10   5 327.001 58.4159  15
   4  10   5 397.112 66.6050  19
   4  10   5 348.974 57.1924  18
   4  10   6 45.3765 27.0525  19
   4  10   6 21.1994 22.7238  18
   4  10   7 18.9483 15.0644  16
   4  10   7 37.0386 21.8579  19
   4  10   7 31.6299 22.4326  18
   4  10   8 93.6961 34.3273  19
   4  10   8 91.3924 31.8493  18
   4  10   9 967.769 82.4782  19
   4  10   9 1111.45 91.4772  18
   4  10  10 204.272 32.9150  19
   4  11   3 71.5659 23.1566  15
   4  11   3 21.9130 15.6481  19
   4  11   4 9.72119 12.8708  15
   4  11   4 16.3994 14.0853  19
   4  11   5 128.486 29.4606  15
   4  11   5 134.761 31.3937  19
   4  11   6 7.41409 13.3285  19
   4  11   6 22.9324 15.4242  18
   4  11   7 10.3791 12.3007  19
   4  11   7 7.59437 9.26727  18
  -5   7   7 86.2583 24.4933  23
   5  -7  -6 49.4438 20.8095  25
  -5   7   6 11.3199 19.5961  23
   5  -7  -5 569.066 63.6691  25
  -5   7   5 687.422 69.8118  23
   5  -7  -4 8.44141 21.9200  25
   5  -7  -3-14.9696 14.8794  25
  -5   6   9 69.5344 21.0843  23
   5  -6  -8 220.231 39.3699  25
  -5   6   8 279.890 47.0835  23
   5  -6  -7 191.262 44.0590  25
  -5   6   7 168.431 40.8581  23
   5  -6  -6-2.05894 23.0620  25
  -5   6   6 51.2651 37.9755  23
   5  -6  -5 55.3970 33.5375  25
   5  -6  -4 476.886 73.4687  25
   5  -6  -3 90.8052 35.2460  25
   5  -6  -2 389.675 58.5814   9
   5  -6  -2 409.144 64.3687  25
  -5   6   2 404.530 57.7667  18
   5  -6  -1 86.5090 31.1749   9
  -5   6   1 132.852 35.8079  18
   5  -6   0 1640.55 110.172   9
  -5   6   0 1699.71 111.774  18
   5  -6   1 567.653 59.8912   9
  -5   6  -1 703.952 67.0192  18
  -5   5   9 19.1321 13.8247  23
  -5   5   8 18.1385 19.8420  23
   5  -5  -7 134.958 40.8015  25
  -5   5   7 138.638 40.2522  23
   5  -5  -6 1213.80 122.949  25
  -5   5   6 1219.64 125.698  23
   5  -5  -5 16.0241 24.8946  25
  -5   5   4 273.058 62.2845  15
   5  -5  -4 318.346 69.8588  25
   5  -5  -3 151.853 40.2898   9
  -5   5   3 177.748 52.6707  15
   5  -5  -3 167.455 50.2708  25
   5  -5  -2 5523.60 256.515   9
   5  -5  -2 5843.49 270.878  25
   5  -5  -1 15.8579 26.9192   9
   5  -5  -1 76.8745 30.0616  25
   5  -5  -1 30.2370 25.1424  12
   5  -5   0 22.3332 26.3127   9
   5  -5   0-26.9341 26.2889  12
   5  -5   1 1336.92 114.634   9
   5  -5   1 1269.21 104.940  12
   5  -5   2 1014.38 93.7378   9
   5  -5   2 927.844 83.8032  12
   5  -5   3 106.525 26.4537  10
   5  -5   3 136.537 31.8100   9
   5  -5   3 102.953 24.7710  12
  -5   4  10 169.376 31.0862  24
  -5   4  10 164.614 34.2931  23
  -5   4   9 511.486 67.9809  23
  -5   4   8 1439.51 122.948  23
   5  -4  -7 1101.76 117.971  25
  -5   4   7 1186.12 121.121  23
   5  -4  -6 338.369 73.6278  25
  -5   4   6 411.217 75.6201  23
   5  -4  -5 53.1480 40.9607  25
  -5   4   4 41.6212 26.4612  15
   5  -4  -4 67.8357 41.0549  25
   5  -4  -3 2030.59 162.907   9
  -5   4   3 1720.21 153.295  15
   5  -4  -3 2027.54 167.469  25
   5  -4  -2 7127.39 307.905   9
   5  -4  -2 6685.53 301.878  25
   5  -4  -2 6125.41 281.463  12
   5  -4  -1 245.430 59.9515   9
   5  -4  -1 235.294 55.6034  25
   5  -4  -1 284.426 61.5928  12
   5  -4   0 222.924 49.7492   9
   5  -4   0 247.543 53.7531  12
   5  -4   1-3.48518 28.6117   9
   5  -4   1-14.6854 25.6270  12
   5  -4   1-34.4342 37.1046  17
   5  -4   2 333.019 64.4621  17
   5  -4   2 230.341 57.7781   9
   5  -4   2 302.941 63.8386  12
   5  -4   3 176.253 49.1906   9
   5  -4   3 168.314 44.2586  12
   5  -4   4 2.81574 18.4392   9
   5  -4   4 0.15630 16.8322  12
   5  -4   5 168.771 31.6222   9
   5  -4   5 117.655 27.1639  10
   5  -4   5 149.117 29.0882  12
  -5   3  10 107.486 29.3017  17
  -5   3  10 104.272 24.5983  24
  -5   3  10 129.327 33.0521  23
  -5   3   9 75.5471 29.1156  23
  -5   3   8 4793.45 231.445  23
  -5   3   7 4534.87 238.386  23
   5  -3  -6 319.297 72.6668  25
  -5   3   6 298.461 64.6889  23
   5  -3  -5 2379.50 186.681  25
   5  -3  -4 735.888 99.0606  25
   5  -3  -3 635.963 90.2837   9
  -5   3   3 672.031 93.9739  15
   5  -3  -3 627.704 90.3558  25
   5  -3  -2 168.077 48.2015   9
   5  -3  -2 266.341 64.8464  25
   5  -3  -2 221.598 49.7838  12
   5  -3  -1 12173.0 391.136   9
   5  -3  -1 11304.7 383.433  25
   5  -3  -1 12578.1 388.450  12
   5  -3   0-17.3643 36.0441   9
   5  -3   0 40.5362 30.4793  25
   5  -3   0 0.73410 29.3339  12
   5  -3   0 6.53711 30.9083  17
   5  -3   1 1087.45 113.420   9
   5  -3   1 1062.32 112.361  12
   5  -3   1 931.372 109.937  17
   5  -3   2-6.60652 30.9605   9
   5  -3   2 19.6897 28.4523  12
   5  -3   3 23.6507 30.4676   9
   5  -3   3 17.4268 31.2569  12
   5  -3   4 2513.63 165.371   9
   5  -3   4 2472.76 161.520  12
   5  -3   5 428.132 62.1903   9
   5  -3   5 462.928 66.6523  12
   5  -3   5 371.822 59.4837  10
   5  -3   6 47.3517 18.0337  10
   5  -3   6 31.6762 17.4885   9
   5  -3   6 29.3136 17.9879  12
  -5   2  10 0.87018 13.4478  17
  -5   2  10 17.4659 20.1050  23
  -5   2   9 211.255 42.2656  24
  -5   2   9 273.316 53.7341  23
  -5   2   8 905.309 103.044  23
  -5   2   7 276.615 63.5789  23
  -5   2   6 8175.89 326.974  23
   5  -2  -5 3340.91 219.054  25
  -5   2   5 3198.15 204.425  23
   5  -2  -4 104.945 96.6371   2
  -5   2   4 161.188 81.3278  27
   5  -2  -4 135.219 37.9792  25
   5  -2  -4 68.1577 60.3426   7
  -5   2   3 2798.18 345.984  28
  -5   2   3 2940.13 336.876  27
   5  -2  -3 2737.85 365.431   7
   5  -2  -3 2846.18 369.149  30
   5  -2  -3 3373.61 419.088   2
  -5   2   2 21186.2 904.277  27
   5  -2  -2 19696.6 917.507   7
   5  -2  -2 22255.5 1032.14   2
  -5   2   1 1937.11 266.550  29
  -5   2   1 2133.12 283.727  27
   5  -2  -1 2185.99 318.705   8
   5  -2  -1 2030.43 311.754   2
   5  -2   0 823.135 198.154   2
  -5   2   0 751.047 169.977  29
  -5   2   0 879.705 193.279  27
   5  -2   0 659.178 171.954   8
   5  -2   1 5374.06 247.374   9
  -5   2  -1 5267.01 462.797  29
  -5   2  -1 5407.03 483.685  27
   5  -2   1 4915.85 491.515   8
   5  -2   1 4980.28 235.031  12
   5  -2   1 4319.56 465.856   2
   5  -2   2 3964.78 215.312   9
   5  -2   2 3299.37 192.241  12
   5  -2   3 136.414 45.7472   9
   5  -2   3 143.046 44.3126  12
   5  -2   4 803.396 98.6819   9
   5  -2   4 1024.71 111.955  12
   5  -2   5 1224.72 116.906   9
   5  -2   5 1397.86 124.459  12
   5  -2   6 14.4671 24.2195  10
   5  -2   6 31.4029 27.0019   9
   5  -2   6 38.7918 28.9342  12
   5  -2   7 8.88083 16.6857  10
   5  -2   7 24.8370 18.1224  12
  -5   1  10 979.838 82.6857  17
  -5   1   9 257.140 52.8507  17
  -5   1   9 177.813 44.3526  23
  -5   1   8 3205.88 195.473  23
  -5   1   7 65.8549 23.4664  23
  -5   1   6 2069.29 162.217  23
  -5   1   5 2119.43 320.544  28
  -5   1   5 1557.18 138.980  23
   5  -1  -5 1801.82 328.344   7
  -5   1   4 6904.70 540.345  28
  -5   1   4 6615.17 502.671  27
   5  -1  -4 6996.07 604.016   7
   5  -1  -4 6839.62 577.709   2
  -5   1   3 4986.99 439.768  28
  -5   1   3 4943.78 420.941  27
   5  -1  -3 4146.73 435.282   7
   5  -1  -3 5467.32 504.228   2
  -5   1   2 5549.26 406.046  32
  -5   1   2 4854.85 410.862  27
   5  -1  -2 4949.72 443.894   7
   5  -1  -2 5566.41 489.253   2
   5  -1  -1 1352.66 234.855   2
  -5   1   1 1273.69 185.514  29
  -5   1   1 1344.67 190.547  32
  -5   1   1 1354.15 208.156  27
   5  -1  -1 1476.93 238.281   8
  -5   1   0-5.48555 40.4078  32
   5  -1   0 65.9223 47.7065   2
  -5   1   0 112.988 56.0979  29
  -5   1   0 121.752 77.4379  27
   5  -1   0 138.148 105.429   8
  -5   1  -1 3536.21 356.511  32
  -5   1  -1 3168.95 320.357  29
  -5   1  -1 3632.91 373.797  27
   5  -1   1 3479.21 394.498   8
   5  -1   1 3208.39 369.288   2
  -5   1  -2 73.7191 59.9279  32
   5  -1   2 92.3026 75.3926   2
  -5   1  -2 92.5974 67.5256  29
  -5   1  -2-12.5877 72.4645  27
   5  -1   2-8.14518 48.3161   8
  -5   1  -3 1876.80 305.397  32
   5  -1   3 1673.30 136.425   9
  -5   1  -3 1454.89 247.227  29
  -5   1  -3 1505.03 271.258  27
   5  -1   3 1657.49 296.546   8
   5  -1   3 1667.41 131.491  22
   5  -1   3 1871.39 143.700  12
   5  -1   4 609.780 86.1508   9
   5  -1   4 553.108 82.0263  22
   5  -1   4 630.722 88.0741  12
   5  -1   5 88.0256 37.2249   9
   5  -1   5 86.0925 31.5586  22
   5  -1   5 93.5383 38.1445  12
   5  -1   6 358.763 68.7643  10
   5  -1   6 423.815 66.5001  22
   5  -1   6 356.050 63.0727  12
   5  -1   7 8.14141 20.5867  10
   5  -1   7 22.9515 25.8543  12
   5  -1   8 170.309 31.2788  10
   5  -1   8 162.920 30.5109  12
  -5   0  10 40.9843 18.8673  17
   5   0 -10 26.2874 17.8053  13
  -5   0  10 35.7567 16.6287  22
  -5   0  10 82.8250 24.6902  11
  -5   0   9 2371.25 153.059  17
  -5   0   9 2453.36 158.436  23
  -5   0   8 194.624 52.7460  17
  -5   0   8 178.831 46.9797  23
  -5   0   7 6603.81 292.303  23
  -5   0   6 80.8730 37.0266  23
  -5   0   5 205.026 110.189  28
   5   0  -5 64.4764 59.6515   1
  -5   0   5 202.101 52.7538  23
   5   0  -5 156.405 94.3115   7
  -5   0   4 5567.21 414.216  32
  -5   0   4 5793.04 494.479  28
   5   0  -4 6526.51 569.694   7
   5   0  -4 5625.96 490.065   2
  -5   0   3 38856.2 1053.81  32
  -5   0   3 37013.1 1143.71  28
  -5   0   3 40452.5 1163.80  27
   5   0  -3 37455.9 1275.52   7
   5   0  -3 37671.5 1245.01   2
  -5   0   2 10464.4 556.055  32
  -5   0   2 9179.58 536.872  28
  -5   0   2 9827.87 556.863  27
   5   0  -2 9111.38 578.588   7
   5   0  -2 10306.5 634.130   2
  -5   0   1 982.380 165.020  32
  -5   0   1 719.965 137.205  31
   5   0  -1 789.569 172.128   2
  -5   0   1 739.834 145.115  27
   5   0  -1 919.566 176.292   8
   5   0  -1 801.799 162.203   7
   5   0   0-2.95668 60.4958   2
  -5   0   0 57.4483 53.9744  32
  -5   0   0 34.7511 32.1926  27
  -5   0  -1 4914.10 390.952  32
  -5   0  -1 4281.74 324.751  29
  -5   0  -1 5057.71 400.127  27
   5   0   1 5300.66 449.778   8
   5   0   1 4197.00 391.300   2
  -5   0  -2 29614.0 1067.18  32
  -5   0  -2 26451.7 899.271  29
  -5   0  -2 29474.2 1077.39  27
   5   0   2 26455.1 1033.05   8
   5   0   2 25991.9 999.211   2
  -5   0  -3 7684.50 595.367  32
  -5   0  -3 7383.48 526.209  29
  -5   0  -3 8302.97 610.884  27
   5   0   3 8026.72 600.025   8
  -5   0  -4 133.077 81.7189  29
  -5   0  -4-18.1980 43.9399  27
   5   0   4 164.864 92.0190   8
   5   0   4 31.5827 25.3623  24
   5   0   4 53.2397 31.2658  22
   5   0   4 32.6616 24.2404  12
   5   0   5 251.033 58.6856  24
   5   0   5 130.386 44.3572  22
   5   0   5 192.820 50.7375  12
   5   0   6 1629.93 135.991  24
   5   0   6 1695.61 144.606  22
   5   0   6 1723.52 140.034  12
   5   0   6 1570.19 141.404  10
   5   0   7 2213.92 151.925  24
   5   0   7 2124.56 149.573  22
   5   0   7 1950.49 138.858  12
   5   0   7 2237.34 160.748  10
   5   0   8 114.761 32.0537  10
   5   0   8 180.304 40.9851  22
   5   0   8 139.695 35.4051  12
   5   0   9 381.547 44.1752  22
   5   1 -10 338.949 44.5776  13
  -5  -1  10 335.715 42.8299  11
   5   1  -9 437.633 65.0403  13
  -5  -1   9 363.823 58.3640  17
  -5  -1   9 318.433 58.0520  11
  -5  -1   8 262.817 59.3795  17
  -5  -1   8 235.930 55.0425  23
  -5  -1   7 14404.0 420.552  17
  -5  -1   7 14393.5 432.577  23
  -5  -1   6 3030.87 200.353  23
  -5  -1   5 71.3888 29.7203  32
   5   1  -5 155.723 91.7678   1
  -5  -1   5 96.0674 76.8030  28
  -5  -1   5 4.96835 22.4775  23
  -5  -1   4 3174.49 320.204  32
  -5  -1   4 2278.12 315.975  28
   5   1  -4 2892.03 358.452   1
  -5  -1   3 1692.38 222.127  32
  -5  -1   3 1679.89 246.406  28
   5   1  -3 1631.91 240.646   1
   5   1  -3 1603.51 274.517   7
   5   1  -3 1927.95 275.323   2
  -5  -1   2 66893.8 1262.96  31
  -5  -1   2 66730.8 1393.91  28
   5   1  -2 66606.1 1567.34   7
   5   1  -2 66451.6 1542.94   2
  -5  -1   1 34574.5 978.345  32
  -5  -1   1 30024.0 869.934  28
  -5  -1   1 34834.1 979.669  27
   5   1  -1 34204.5 955.371   8
   5   1  -1 31194.8 998.316   7
   5   1  -1 32509.7 1047.67   2
  -5  -1   1 31760.2 897.958  31
   5   1   0 50.1862 44.5191   2
  -5  -1   0 105.629 31.2273  27
  -5  -1   0 20.9591 37.3966  32
   5   1   0-0.45956 41.6047   8
   5   1   0 18.0562 37.7478   4
  -5  -1   0 58.1761 30.3680  31
   5   1   1 1196.90 200.121   2
  -5  -1  -1 1097.46 172.634  32
  -5  -1  -1 1081.01 163.440  27
   5   1   1 1200.13 194.884   8
   5   1   2 36.2541 48.8219   2
  -5  -1  -2 210.379 85.6175  27
  -5  -1  -2 140.052 60.1203  32
   5   1   2 280.748 107.276   8
   5   1   3 1034.36 188.304   2
  -5  -1  -3 1063.33 205.564  32
  -5  -1  -3 1260.40 198.243  29
  -5  -1  -3 1530.29 245.495  27
   5   1   3 1571.83 249.850   8
  -5  -1  -4 1972.20 278.613  29
  -5  -1  -4 2122.96 301.038  27
   5   1   4 2217.62 308.264   8
   5   1   5 74.4813 28.0737  10
  -5  -1  -5 63.0722 62.2578  27
   5   1   5 123.534 76.6795   8
   5   1   5 55.2526 27.3496  24
   5   1   5 88.9703 34.7069  22
   5   1   5 72.3347 32.8868  12
   5   1   6 138.230 42.7841  10
   5   1   6 139.437 42.4064  24
   5   1   6 165.519 47.9547  22
   5   1   6 198.694 46.6605  12
   5   1   7 1759.82 139.663  24
   5   1   7 1755.81 143.937  22
   5   1   7 1615.37 137.512  10
   5   1   8 2700.60 162.920  24
   5   1   8 2618.19 163.341  22
   5   1   8 2521.27 158.635  10
   5   1   9 53.4863 24.2895  22
  -5  -2   9 293.172 48.1974  17
   5   2  -9 317.576 51.1979  13
  -5  -2   9 279.889 48.1214  11
   5   2  -8 67.8465 24.6367  13
  -5  -2   8 99.0925 32.5299  17
  -5  -2   7 10953.3 364.063  17
   5   2  -7 10955.1 371.919  13
  -5  -2   6 1851.76 154.440  17
  -5  -2   6 2012.45 167.241  23
  -5  -2   5 1170.45 126.063  17
  -5  -2   5 1176.26 127.634  23
  -5  -2   4 119.841 65.6458  32
  -5  -2   4 60.4977 55.9706  28
   5   2  -4 248.214 109.352   1
  -5  -2   3 301.096 97.4510  32
  -5  -2   3 193.315 63.6188  31
  -5  -2   3 294.892 109.624  28
   5   2  -3 331.429 122.938   1
   5   2  -3 445.772 144.045   2
  -5  -2   2 137.022 67.8798  32
  -5  -2   2 22.4431 44.4086  28
   5   2  -2-5.34862 48.6810   1
   5   2  -2 32.9419 40.3837   2
  -5  -2   1 14607.7 657.218  32
  -5  -2   1 12636.5 563.147  27
   5   2  -1 12797.8 652.472   2
  -5  -2   1 13859.7 595.246  31
  -5  -2   0 6250.40 402.695  32
  -5  -2   0 5854.55 373.171  27
   5   2   0 6489.67 421.125   8
   5   2   0 6109.91 445.941   4
   5   2   0 5893.51 429.408   2
  -5  -2   0 5711.44 388.171  31
   5   2   1 14.6161 38.6588   2
  -5  -2  -1 50.0639 41.2383  32
  -5  -2  -1 77.6454 51.9113  31
  -5  -2  -1 17.0789 31.4655  27
   5   2   1-112.020 63.6999   8
   5   2   1 31.6085 36.7036   4
  -5  -2  -2 19107.4 725.570  32
  -5  -2  -2 19400.6 673.083  27
   5   2   2 19192.6 762.386   8
   5   2   2 18802.9 767.835   2
  -5  -2  -3 13981.8 681.366  32
  -5  -2  -3 14430.3 663.963  27
   5   2   3 12967.5 663.625   8
   5   2   3 12388.4 625.197   2
  -5  -2  -4 8187.08 574.289  32
  -5  -2  -4 8019.63 538.084  27
   5   2   4 7697.34 545.849   8
  -5  -2  -5 1861.82 280.368  27
   5   2   5 1934.14 284.807   8
   5   2   6 1561.18 131.409  24
   5   2   6 1786.87 142.724  22
   5   2   7 764.880 93.3138  24
   5   2   7 825.958 99.2368  22
   5   2   7 709.791 89.3847  10
   5   2   8 124.978 34.1492  10
   5   2   8 114.580 36.0133  24
   5   2   8 99.6560 37.5467  22
   5   2   9 86.7041 34.1787  24
   5   2   9 101.357 33.2304  22
   5   2  10 203.427 41.0270  24
   5   2  10 167.961 34.7155  22
   5   3  -9 447.421 50.5767  13
  -5  -3   9 399.719 44.0521  11
  -5  -3   9 402.017 45.3147  17
  -5  -3   8 77.4385 30.0496  17
   5   3  -8 88.8268 33.3313  13
  -5  -3   8 63.5563 25.9340  11
   5   3  -7 428.803 72.9073  13
  -5  -3   7 347.300 65.9576  17
  -5  -3   7 430.865 73.1988  11
  -5  -3   6 132.649 51.3777  17
   5   3  -6 98.0127 40.8273  13
  -5  -3   5 5689.24 277.897  17
   5   3  -5 5863.79 274.344  13
  -5  -3   4 286.434 108.699  32
  -5  -3   4 225.527 58.7692  17
   5   3  -4 210.950 54.1231  14
  -5  -3   4 243.237 57.3937  23
   5   3  -4 206.559 52.4584  13
   5   3  -4 192.637 103.146   1
  -5  -3   3 80.4319 69.4716  32
  -5  -3   3 196.566 85.3107  31
   5   3  -3-55.5431 60.1218   1
  -5  -3   2 10843.5 566.393  32
  -5  -3   2 10042.4 530.570  31
   5   3  -2 9029.21 584.341   1
   5   3  -2 10003.5 631.759   2
  -5  -3   1 11203.8 546.618  31
   5   3  -1 10325.7 610.232   2
  -5  -3   1 10812.4 550.797  32
   5   3   0 139.644 68.1398   6
  -5  -3   0 154.535 68.5139  32
  -5  -3   0 206.786 75.3905  27
  -5  -3   0 171.158 72.0098  31
   5   3   0 108.935 73.5674   4
   5   3   0 118.908 65.1495   2
  -5  -3  -1 1538.20 203.491  32
  -5  -3  -1 1654.10 215.473  31
  -5  -3  -1 788.010 127.657  27
   5   3   1 1492.42 211.574   8
   5   3   1 1464.50 213.962   2
   5   3   1 1461.46 223.795   4
  -5  -3  -2 4240.04 328.625  32
  -5  -3  -2 4341.62 349.560  31
   5   3   2 4716.95 371.254   8
   5   3   2 4683.30 380.827   2
   5   3   2 3810.97 343.756   4
  -5  -3  -3-87.7245 55.5343  32
   5   3   3 90.0798 66.4530   8
   5   3   3 104.661 85.0997   4
  -5  -3  -3 120.435 64.8006  31
   5   3   3 32.2236 30.9156   2
  -5  -3  -4 380.944 122.134  32
   5   3   4 288.800 101.596   8
   5   3   4 340.502 106.088   4
   5   3   4 425.914 119.187   2
  -5  -3  -5 274.112 118.712  32
   5   3   5 322.869 100.806   8
  -5  -3  -6 548.828 183.267  32
   5   3   6 717.352 88.8657  24
   5   3   6 707.838 88.6172  22
   5   3   6 620.400 82.2781  10
   5   3   7 10044.1 336.241  24
   5   3   7 10139.4 339.695  22
   5   3   7 9577.19 327.380  10
   5   3   8 28.8658 19.0408  24
   5   3   8 84.4398 39.3755  22
   5   3   8 19.2621 21.6281  10
   5   3   9 649.867 80.3880  24
   5   3   9 647.834 79.9831  22
   5   3  10 8.38554 19.0785  24
   5   3  10 40.7756 24.9451  22
   5   3  11 1114.81 75.9707  24
   5   3  11 1112.95 74.9426  22
  -5  -4   8 154.860 33.1941  17
   5   4  -8 146.474 33.8511  13
  -5  -4   8 146.639 29.4397  11
  -5  -4   7 203.544 50.4168  17
   5   4  -7 178.958 44.6956  13
  -5  -4   7 122.025 37.6319  11
  -5  -4   6 39.2874 25.8431  17
   5   4  -6 14.6059 24.3829  13
  -5  -4   6 2.78739 23.6630  11
  -5  -4   5 600.556 94.0661  17
   5   4  -5 544.707 87.0529  14
   5   4  -5 509.137 80.0876  13
   5   4  -5 545.509 86.8645  20
  -5  -4   5 537.400 90.5501  11
  -5  -4   4 19372.1 524.851  17
   5   4  -4 18192.4 505.281  14
   5   4  -4 18411.5 486.873  13
  -5  -4   3 1804.87 153.699  17
  -5  -4   3 2358.13 313.143  32
  -5  -4   3 2338.74 293.494  31
   5   4  -3 1934.63 151.759  13
   5   4  -3 2115.50 168.980  14
  -5  -4   2 971.984 187.652  32
  -5  -4   2 1065.01 188.982  31
  -5  -4   2 950.119 194.047  26
   5   4  -2 865.818 174.512   2
  -5  -4   1 9823.42 546.629  32
  -5  -4   1 9180.57 524.060  31
   5   4  -1 9406.56 622.565   2
  -5  -4   1 8364.57 563.461  26
   5   4  -1 9320.26 664.539   4
   5   4  -1 7713.66 575.270   6
   5   4   0 108.697 75.8789   6
  -5  -4   0 77.6585 46.6684  32
  -5  -4   0 215.226 89.5798  31
   5   4   0 54.3588 81.9168   4
   5   4   0 50.7338 50.9716   2
   5   4   1 813.107 166.103   6
  -5  -4  -1 1033.18 179.249  32
  -5  -4  -1 1112.72 178.641  31
   5   4   1 976.799 193.388   4
   5   4   1 870.527 162.958   2
  -5  -4  -2 3451.60 323.838  31
   5   4   2 3210.66 323.793   2
   5   4   2 3177.47 340.943   4
  -5  -4  -2 3182.91 296.942  32
  -5  -4  -3 514.610 122.997  32
  -5  -4  -3 349.013 117.012  31
   5   4   3 352.532 108.153   4
   5   4   3 508.311 128.027   2
  -5  -4  -4 1941.33 245.040  32
   5   4   4 2049.11 265.274   2
   5   4   4 1919.97 273.184   4
  -5  -4  -4 2106.10 269.296  31
  -5  -4  -5 747.353 161.422  32
  -5  -4  -5 456.630 149.298  31
   5   4   5 721.828 174.187   4
   5   4   6-27.8588 21.4999  10
   5   4   6-61.6114 53.4207   4
   5   4   6 43.4525 28.6471  22
   5   4   7 1206.13 117.739  24
   5   4   7 1094.71 111.379  22
   5   4   7 1133.49 112.366  10
   5   4   8 829.953 97.5511  24
   5   4   8 855.196 97.8610  22
   5   4   8 896.298 97.7793  10
   5   4   9 1605.57 127.285  24
   5   4   9 1735.54 135.332  22
   5   4   9 1796.20 143.508  19
   5   4  10 24.5718 21.3024  24
   5   4  10 69.0129 29.8823  22
   5   4  11 385.575 49.6008  24
   5   4  11 476.130 55.9611  22
  -5  -5   7 2.38174 13.9451  17
   5   5  -7 25.3352 14.4706  13
  -5  -5   6 163.193 41.7734  17
   5   5  -6 199.349 48.7957  13
  -5  -5   6 164.538 39.1295  11
   5   5  -5 186.556 48.9919  14
   5   5  -5 240.426 54.7720  13
  -5  -5   5 236.443 57.1369  17
  -5  -5   5 190.084 46.4686  11
  -5  -5   4 66.5187 34.3543  17
   5   5  -4 74.0545 37.6171  14
   5   5  -4 19.7540 27.6149  13
   5   5  -4 18.8455 20.6140  20
   5   5  -3 729.278 101.859  14
  -5  -5   3 643.761 95.3521  17
   5   5  -3 616.568 89.0076  13
   5   5  -3 640.176 96.5072  20
   5   5  -2 2564.87 386.164   6
  -5  -5   2 2968.78 355.058  32
   5   5  -2 3032.81 202.430  14
   5   5  -2 2476.93 175.250  13
   5   5  -2 2455.47 375.197   4
   5   5  -2 2618.72 187.491  20
  -5  -5   2 2436.31 180.625  17
   5   5  -1 263.411 116.062   6
  -5  -5   1 464.000 134.344  32
  -5  -5   1 521.210 141.296  31
  -5  -5   1 257.027 104.879  26
   5   5  -1 382.005 156.767   4
   5   5   0 470.150 149.032   6
  -5  -5   0 472.639 129.234  32
  -5  -5   0 466.076 130.950  31
  -5  -5   0 793.953 185.259  26
   5   5   0 527.008 165.833   4
  -5  -5  -1 2664.81 280.565  32
  -5  -5  -1 2670.10 293.186  31
   5   5   1 2280.39 308.944   2
  -5  -5  -1 2930.70 342.664  26
   5   5   1 2299.08 315.582   4
   5   5   1 2311.74 312.546   6
   5   5   2 175.904 84.8158   4
  -5  -5  -2-21.3956 59.4953  31
   5   5   2-93.2255 69.7314   2
  -5  -5  -2 139.836 116.713  26
   5   5   2 32.8553 74.2883   6
  -5  -5  -2-219.970 85.8807  32
  -5  -5  -3 377.821 105.467  32
  -5  -5  -3 478.082 122.891  31
  -5  -5  -3 550.235 154.103  26
   5   5   3 526.494 148.210   4
  -5  -5  -4 358.030 123.605  31
  -5  -5  -4 421.015 143.747  26
   5   5   4 330.188 123.308   4
  -5  -5  -5 2930.46 344.546  31
   5   5   5 2999.13 366.886   4
  -5  -5  -6 818.687 173.473  30
   5   5   6 1100.16 112.873  16
   5   5   6 1263.14 243.998   4
   5   5   6 1048.48 111.949  19
   5   5   6 1183.42 117.247  18
   5   5   6 1257.05 112.668  10
   5   5   7 113.547 32.5694  10
   5   5   7 145.883 50.7200  16
   5   5   7 69.8898 27.9060  24
   5   5   7 81.1740 35.2943  22
   5   5   7 102.001 34.2763  19
   5   5   7 197.597 56.3685  18
   5   5   8 3186.28 188.546  16
   5   5   8 2801.24 174.186  24
   5   5   8 2997.91 181.937  22
   5   5   8 3043.63 195.847  19
   5   5   9 51.6817 30.6577  24
   5   5   9 57.1707 29.7768  22
   5   5   9 28.5796 27.4793  19
   5   5  10 748.638 80.2938  24
   5   5  10 745.393 83.5236  22
   5   5  10 757.656 82.8001  19
   5   5  11 212.409 38.2177  24
   5   5  11 169.865 36.0978  22
  -5  -6   6-5.26414 15.6106  17
   5   6  -6-19.5650 25.4738  13
  -5  -6   5 59.7481 31.6253  17
   5   6  -5 42.7169 30.2468  13
   5   6  -4 1379.18 127.323  13
   5   6  -4 1376.71 133.775  20
  -5  -6   4 1324.23 130.948  17
   5   6  -3 2350.62 185.530  14
   5   6  -3 2379.35 174.799  13
   5   6  -3 2289.09 183.828  20
  -5  -6   3 2426.98 182.510  17
   5   6  -2 1539.14 149.585  14
   5   6  -2 1483.60 140.359  13
   5   6  -2 1615.11 154.651  20
  -5  -6   2 1399.41 140.906  17
   5   6  -1 7904.03 324.190  14
   5   6  -1 8225.24 323.904  13
   5   6  -1 7731.48 321.781  20
  -5  -6   0 486.442 135.931  31
  -5  -6   0 749.835 184.621  26
   5   6   0 438.853 74.9768  14
   5   6   0 408.845 71.0433  13
   5   6   0 298.546 139.502   4
   5   6   0 410.040 72.1193  20
   5   6   0 403.134 148.385   6
  -5  -6  -1 934.585 175.932  31
  -5  -6  -1 999.537 205.934  26
   5   6   1 947.237 222.634   4
   5   6   1 1083.10 230.749   6
  -5  -6  -2 2682.78 312.972  31
  -5  -6  -2 2995.05 367.621  26
   5   6   2 2791.92 368.188   4
   5   6   2 2870.64 371.432   6
  -5  -6  -3 2391.77 295.987  31
  -5  -6  -3 2652.71 334.288  26
   5   6   3 2006.68 312.523   4
   5   6   3 1964.52 298.929   6
  -5  -6  -4-35.5478 74.5176  26
   5   6   4 107.948 72.4289   4
   5   6   5 26.1707 19.0381  10
  -5  -6  -5 302.554 124.537  30
   5   6   5-15.5516 20.8382  16
   5   6   5 332.379 127.262   4
   5   6   5-10.0565 21.3901  19
   5   6   6 9614.26 334.492  16
   5   6   6 8994.31 330.029  19
   5   6   6 8871.58 321.557  18
   5   6   6 9911.81 309.525  10
   5   6   7 1336.88 125.410  16
   5   6   7 1210.15 121.928  19
   5   6   7 1304.22 126.381  18
   5   6   7 1200.17 109.772  10
   5   6   8 916.972 101.480  16
   5   6   8 893.664 105.131  19
   5   6   8 953.945 111.188  18
   5   6   9 863.930 93.7988  16
   5   6   9 769.926 87.5239  24
   5   6   9 747.109 90.5871  19
   5   6  10 251.665 47.2443  24
   5   6  10 255.714 53.1029  19
   5   6  11 195.852 36.4103  24
  -5  -7   5 247.224 41.9796  17
   5   7  -5 365.240 53.4902  13
  -5  -7   4 43.3819 27.3029  17
   5   7  -4 54.3263 29.8184  13
   5   7  -4-8.67152 15.1384  20
  -5  -7   3 57.2517 31.7222  17
   5   7  -3 15.2415 23.9203  13
   5   7  -3 74.3280 40.3961  20
  -5  -7   2 51.8032 28.6428  17
   5   7  -2 47.4818 33.2890  13
   5   7  -2 16.9845 23.2359  20
   5   7  -1 837.784 107.990  14
   5   7  -1 919.606 110.561  13
   5   7  -1 876.123 112.610  20
   5   7   0 7060.75 309.068  14
   5   7   0 7490.88 316.296  13
   5   7   0 6914.38 303.705  20
   5   7   1 2927.35 192.515  14
   5   7   1 2796.23 191.883  13
   5   7   1 2557.19 181.445  20
   5   7   2 1449.87 132.753  16
   5   7   2 1430.67 131.435  14
   5   7   2 1490.68 138.422  13
   5   7   2 1757.99 148.880  20
   5   7   3 389.962 72.9239  16
   5   7   3 552.610 85.5566  13
   5   7   3 389.400 69.2153  20
   5   7   4 2327.64 171.605  16
   5   7   5 8839.98 344.625  19
   5   7   5 9454.50 305.695  10
   5   7   6 3432.51 202.744  16
   5   7   6 3474.59 212.870  19
   5   7   6 2898.70 186.813  18
   5   7   6 3646.74 186.108  10
   5   7   7 1458.72 129.622  16
   5   7   7 1433.99 134.238  19
   5   7   7 1414.10 131.844  18
   5   7   7 1586.95 120.177  10
   5   7   8 2662.23 170.923  16
   5   7   8 2378.92 168.850  19
   5   7   8 2724.51 181.151  18
   5   7   9 667.904 81.8027  16
   5   7   9 611.239 82.6979  19
   5   7  10-6.93667 17.3948  16
   5   7  10-42.4836 29.1507  19
   5   7  11 322.861 46.3537  19
   5   8  -4 340.874 47.3810  13
  -5  -8   3 323.930 49.2070  17
   5   8  -3 361.337 58.6191  13
   5   8  -3 263.032 48.6690  20
   5   8  -2 85.0889 36.4379  13
   5   8  -2 114.080 40.9289  20
   5   8  -1-11.3726 22.3463  13
   5   8  -1-10.3298 35.6626  20
   5   8   0 39.3830 26.5185  13
   5   8   0 35.0776 28.5767  20
   5   8   1 790.627 104.133  13
   5   8   1 809.545 104.466  20
   5   8   2 1247.03 128.912  13
   5   8   2 1207.23 124.676  20
   5   8   3 31.8791 30.0355  13
   5   8   3 18.4501 23.0383  20
   5   8   4 151.984 46.0562  16
   5   8   4 202.074 53.1588  13
   5   8   5 1248.94 125.330  16
   5   8   5 1290.51 129.921  13
   5   8   5 1453.58 146.164  19
   5   8   6 330.956 63.3181  16
   5   8   6 319.330 67.7881  19
   5   8   6 256.631 56.1363  18
   5   8   7 145.117 44.0846  16
   5   8   7 145.465 46.3975  19
   5   8   7 181.934 46.4630  18
   5   8   8 744.327 88.1738  16
   5   8   8 650.335 89.3728  19
   5   8   8 749.676 92.8578  18
   5   8   9 379.531 63.1395  16
   5   8   9 374.748 64.6059  19
   5   8   9 345.704 61.8257  18
   5   8  10 235.360 42.7799  16
   5   8  10 353.463 55.9221  19
   5   8  11 124.359 28.8417  19
   5   9  -2 87.5103 28.4763  13
   5   9  -1 52.8948 23.4092  13
   5   9  -1 26.5973 20.6819  20
   5   9   0 1277.95 117.993  13
   5   9   0 1204.66 118.950  20
   5   9   1 157.164 48.2842  13
   5   9   1 151.562 47.1524  20
   5   9   2 9.17468 31.4887  13
   5   9   2-20.7234 29.1042  20
   5   9   3 95.4472 38.9670  13
   5   9   3 168.298 47.0328  20
   5   9   4 22.2827 31.2707  13
   5   9   4-27.3187 23.6446  20
   5   9   4 45.0155 37.6379  19
   5   9   5 11.2235 19.6124  16
   5   9   5 12.6129 32.2694  19
   5   9   6 540.000 75.3350  16
   5   9   6 646.022 93.5761  19
   5   9   6 624.600 82.1976  18
   5   9   7 338.499 60.9951  16
   5   9   7 214.155 52.0435  19
   5   9   7 300.783 58.0228  18
   5   9   8 719.271 83.7973  16
   5   9   8 603.551 83.2552  19
   5   9   8 763.499 92.4781  18
   5   9   9 1722.11 115.884  16
   5   9   9 1595.01 123.281  19
   5   9   9 1678.03 126.279  18
   5   9  10 162.430 36.3849  19
   5  10   0 454.639 55.8227  13
   5  10   1 28.7238 24.9764  13
   5  10   2-30.7083 24.5872  13
   5  10   2 8.96489 15.0029  20
   5  10   3 115.220 38.0111  15
   5  10   3 79.3730 30.8646  13
   5  10   3 117.447 38.0000  20
   5  10   3 53.3395 35.3171  19
   5  10   4 92.6549 29.4669  15
   5  10   4 128.083 41.2149  13
   5  10   4 134.251 45.6787  19
   5  10   5 72.1367 36.1958  19
   5  10   6 111.011 31.9377  16
   5  10   6 79.7222 33.0765  19
   5  10   7 201.760 41.1934  16
   5  10   7 250.316 51.9810  19
   5  10   7 205.395 41.2384  18
   5  10   8 698.303 70.1488  16
   5  10   8 760.296 81.7467  19
   5  10   8 633.205 69.5970  18
   5  10   9 176.427 37.2441  19
   5  10   9 244.124 42.2976  18
   5  11   3 60.9244 22.8267  15
   5  11   3 58.3205 21.7972  19
   5  11   4 86.8203 25.0909  15
   5  11   4 103.964 27.8154  19
   5  11   5-12.4363 13.1804  19
   5  11   6-16.5459 14.2288  19
   5  11   7 43.3578 16.8092  19
   6  -6  -6 42.6090 19.2496  25
  -6   6   6 38.1984 19.2887  23
   6  -6  -5 59.3952 26.3164  25
  -6   6   5 14.6198 11.0608  23
   6  -6  -4 83.4750 30.1840  25
   6  -6  -3 87.3409 29.8048  25
   6  -6  -2 29.0054 16.2797  25
  -6   5   8 26.8823 13.4684  23
   6  -5  -7 55.0603 27.6810  25
  -6   5   7 112.642 31.2393  23
   6  -5  -6 100.104 35.7832  25
  -6   5   6 67.5903 29.7287  23
   6  -5  -5 189.559 48.1555  25
  -6   5   5 283.657 55.8879  23
   6  -5  -4 280.894 56.6653  25
   6  -5  -3 194.511 45.6758  25
   6  -5  -2-53.3101 24.2721   9
   6  -5  -2-28.1743 27.4873  25
   6  -5  -1 79.8134 27.1233   9
   6  -5  -1 135.657 35.1656  25
   6  -5   0 371.994 55.8671   9
   6  -5   1 912.146 80.1805   9
   6  -5   1 734.025 65.4520  12
  -6   5  -1 818.455 70.6877  18
   6  -5   2 63.4920 22.0510   9
  -6   4   9 28.3924 11.3017  23
  -6   4   8 206.279 44.7780  23
   6  -4  -7 8.91970 17.4350  25
  -6   4   7-24.7297 24.7800  23
   6  -4  -6 187.772 52.2342  25
  -6   4   6 133.000 40.0099  23
   6  -4  -5-18.2387 36.0104  25
  -6   4   5-2.23807 24.0760  23
   6  -4  -4 254.043 61.1013  25
   6  -4  -3-15.4773 29.0167  25
   6  -4  -2-32.8263 29.6824   9
   6  -4  -2-7.18239 31.9601  25
   6  -4  -1 603.117 83.1390   9
   6  -4  -1 728.791 93.0059  25
   6  -4  -1 763.366 92.2538  12
   6  -4   0-9.27522 22.6000   9
   6  -4   0-17.4536 35.9057  12
   6  -4   1 12.8639 16.0817  10
   6  -4   1 52.5269 35.0849   9
   6  -4   1-5.81706 21.6875  12
   6  -4   2 456.634 61.1066  10
   6  -4   2 488.601 70.0610   9
   6  -4   2 433.940 63.2972  12
   6  -4   3 109.598 28.4696  10
   6  -4   3 143.763 32.9150   9
   6  -4   3 197.056 39.6744  12
   6  -4   4 1.06355 11.0691  10
   6  -4   4 27.6361 13.0718   9
   6  -4   4 38.6269 18.4426  12
  -6   3   9 356.153 51.4021  23
  -6   3   8 159.754 36.8761  23
  -6   3   7 277.163 60.5059  23
   6  -3  -6 2808.77 194.289  25
  -6   3   6 2702.54 186.777  23
   6  -3  -5 270.897 66.7629  25
  -6   3   5 204.970 54.4372  23
   6  -3  -4 1037.52 117.876  25
   6  -3  -3 23.6527 28.6804  25
   6  -3  -2 341.154 72.1195   9
   6  -3  -2 365.447 70.4672  25
   6  -3  -1 2184.81 168.118   9
   6  -3  -1 2163.98 166.025  25
   6  -3  -1 2157.35 166.327  12
   6  -3   0 55.5025 36.7092   9
   6  -3   0 18.9434 26.0801  25
   6  -3   0 109.000 43.8569  12
   6  -3   1 965.177 107.920   9
   6  -3   1 910.275 101.359  12
   6  -3   2 2359.46 164.462   9
   6  -3   2 2158.69 152.128  12
   6  -3   3 512.879 69.8316  10
   6  -3   3 638.334 84.5185   9
   6  -3   3 611.278 79.3646  12
   6  -3   4 289.723 50.3557  10
   6  -3   4 454.099 62.7914   9
   6  -3   4 378.189 58.8705  12
   6  -3   5 24.5147 17.1936  10
   6  -3   5-0.28386 14.3468   9
   6  -3   5 42.8931 21.9776  12
  -6   2   9 636.098 68.6573  17
  -6   2   9 634.113 72.3489  23
  -6   2   8 403.070 64.4168  23
  -6   2   7 14.8248 20.5298  23
   6  -2  -6 3609.75 223.996  25
  -6   2   6 3522.10 213.867  23
   6  -2  -5 2772.09 199.230  25
  -6   2   5 2467.22 181.688  23
   6  -2  -4 679.877 95.3255  25
  -6   2   4 698.395 97.7801  23
   6  -2  -3 1395.72 135.700  25
   6  -2  -2 1424.41 136.102   9
   6  -2  -2 1465.30 138.561  25
   6  -2  -1 7382.63 307.306   9
   6  -2  -1 7180.08 302.987  25
   6  -2  -1 7811.98 314.509  12
   6  -2   0 57.2891 31.8968   9
   6  -2   0 156.189 52.2881  25
   6  -2   0 103.128 38.3638  12
   6  -2   1-12.2451 27.9175   9
   6  -2   1-18.1436 22.1397  12
   6  -2   2-2.01802 32.4646   9
   6  -2   2 12.4129 20.0256  12
   6  -2   3-19.3194 31.9576   9
   6  -2   3-33.9228 25.4213  12
   6  -2   4 50.6923 24.5080  10
   6  -2   4 84.7345 34.3267   9
   6  -2   4 89.3157 38.3208  12
   6  -2   5 57.1175 29.2428  10
   6  -2   5 20.8403 21.4943   9
   6  -2   5 58.3402 28.9925  12
   6  -2   6 351.016 49.7058  10
   6  -2   6 423.912 52.7425  12
  -6   1  10 43.9848 17.5306  11
  -6   1   9 1710.66 115.731  17
  -6   1   9 1783.18 122.146  23
  -6   1   8 124.546 39.9348  23
  -6   1   7 5182.46 251.903  23
  -6   1   6 2144.18 167.214  23
   6  -1  -5 2882.25 203.949  25
  -6   1   5 2561.33 183.965  23
   6  -1  -4 742.450 103.859  25
  -6   1   3 1759.19 293.125  28
   6  -1  -3 2045.29 162.253  25
   6  -1  -3 1575.29 132.398  21
   6  -1  -3 1581.37 292.188   7
   6  -1  -2 724.032 192.036   2
   6  -1  -2 615.942 84.9231   9
  -6   1   2 428.599 146.419  28
  -6   1   2 444.712 134.522  27
   6  -1  -2 524.053 79.8814  25
   6  -1  -2 550.966 81.7852  21
   6  -1  -1 4283.19 228.185   9
  -6   1   1 3892.13 405.905  27
   6  -1  -1 3385.37 402.151   8
   6  -1  -1 3512.95 207.636  25
   6  -1  -1 4014.86 218.548  12
   6  -1  -1 3675.59 430.120   2
   6  -1   0 878.381 214.263   2
   6  -1   0 1187.72 121.434   9
  -6   1   0 1425.91 245.158  27
   6  -1   0 1229.83 124.538  25
   6  -1   0 736.220 192.536   8
   6  -1   0 1231.03 123.085  12
   6  -1   1 358.146 117.346   2
   6  -1   1 313.955 63.8659  10
   6  -1   1 453.944 73.0614   9
   6  -1   1 405.810 76.1637  25
   6  -1   1 456.493 71.3643  12
  -6   1  -1 440.683 142.365  32
   6  -1   2 3573.05 204.065   9
   6  -1   2 3667.82 204.768  12
   6  -1   3 8028.86 307.645   9
   6  -1   3 8283.51 307.784  12
   6  -1   4-26.5749 29.5380  10
   6  -1   4 5.51939 19.3357   9
   6  -1   4 57.5798 26.4610  12
   6  -1   5 270.701 57.5763  10
   6  -1   5 277.426 57.4956   9
   6  -1   5 283.061 58.3896  12
   6  -1   6 256.346 52.2287  10
   6  -1   6 255.256 50.1729  12
   6  -1   7 93.1250 28.4668  10
   6  -1   7 115.203 28.0012  12
  -6   0   9 29.8226 21.3646  17
   6   0  -9-1.91422 13.6417  13
  -6   0   8 8173.44 285.007  17
  -6   0   8 8164.74 292.617  23
  -6   0   7 1548.96 138.775  23
  -6   0   6 137.610 49.2704  23
  -6   0   5 1145.31 121.397  23
   6   0  -4 124.056 83.6784   2
   6   0  -4 101.642 43.3197  25
   6   0  -3 1232.96 260.509   2
  -6   0   3 1251.16 204.805  32
  -6   0   3 837.602 190.421  28
  -6   0   3 1002.59 200.644  27
   6   0  -3 1468.57 271.496   7
  -6   0   2 2968.57 322.925  32
  -6   0   2 2978.10 344.280  28
  -6   0   2 2526.29 310.437  27
   6   0  -2 3299.17 383.447   7
   6   0  -2 3591.09 422.013   2
  -6   0   1 794.337 171.133  32
   6   0  -1 681.406 169.000   2
  -6   0   1 862.280 183.232  28
  -6   0   1 823.805 180.007  27
   6   0  -1 834.233 190.057   8
   6   0   0 1935.91 296.460   2
  -6   0   0 2036.11 271.687  32
  -6   0   0 1959.66 267.115  31
  -6   0   0 2199.84 291.521  27
   6   0   0 2465.19 336.984   8
  -6   0  -1 1576.40 240.982  32
  -6   0  -1 2068.95 286.519  27
   6   0   1 1534.33 266.161   8
   6   0   1 1895.80 300.698   2
   6   0   2 213.509 104.326   2
  -6   0  -2 276.180 108.719  32
  -6   0  -2 415.674 122.718  27
   6   0   2 198.776 116.762   8
   6   0   2 311.986 60.6111  12
   6   0   3 476.126 74.3807  10
   6   0   3 700.671 89.2899   9
   6   0   3 633.842 86.5105  22
   6   0   3 726.320 90.6394  12
   6   0   4 182.790 48.2684  10
   6   0   4 257.205 57.2908   9
   6   0   4 252.751 57.2761  22
   6   0   4 195.690 48.3084  12
   6   0   5 51.3931 29.0652  10
   6   0   5 61.0257 35.1847  22
   6   0   5 82.0728 31.9385  12
   6   0   6 358.581 64.3049  10
   6   0   6 457.075 67.6395  22
   6   0   6 379.969 63.7657  12
   6   0   7 134.312 42.6550  10
   6   0   7 138.803 33.0216  22
   6   0   7 112.625 30.3528  12
   6   0   8 655.485 63.5415  10
   6   1  -9 2359.06 126.315  13
  -6  -1   9 2701.41 138.520  11
  -6  -1   9 2698.50 138.548  17
  -6  -1   8 1164.36 106.927  17
   6   1  -8 895.594 93.1539  13
  -6  -1   7 932.127 106.265  17
  -6  -1   7 908.355 107.415  23
  -6  -1   6 7595.42 316.336  23
   6   1  -5 75.4088 44.2157  14
  -6  -1   5 97.9873 42.7964  23
  -6  -1   4 25.7445 67.2710  28
   6   1  -4 10.0775 24.0125  25
  -6  -1   3 4884.55 416.237  32
  -6  -1   3 3435.20 378.736  28
   6   1  -3 3957.09 436.079   2
  -6  -1   2 10712.0 611.044  32
  -6  -1   2 10630.1 621.160  27
   6   1  -2 9745.04 671.778   2
  -6  -1   1 12937.7 671.284  32
  -6  -1   1 11819.3 606.588  31
  -6  -1   1 11791.6 644.475  27
   6   1  -1 12637.1 663.730   8
   6   1  -1 12917.6 753.338   2
  -6  -1   0 2686.70 297.229  32
  -6  -1   0 2668.76 299.699  31
  -6  -1   0 2869.10 311.035  27
   6   1   0 3080.30 343.616   8
   6   1   0 2850.33 350.157   2
  -6  -1  -1 12015.2 641.360  32
  -6  -1  -1 11260.5 640.310  31
  -6  -1  -1 11177.4 616.152  27
   6   1   1 11282.9 683.721   8
   6   1   1 10939.5 682.034   2
   6   1   2 1418.83 246.889   2
  -6  -1  -2 1950.93 282.894  32
  -6  -1  -2 1964.55 272.105  27
   6   1   2 1730.66 273.203   8
  -6  -1  -3 165.214 83.7302  32
  -6  -1  -3 290.514 138.047  27
   6   1   3 133.972 78.9497   8
   6   1   4 55.3745 29.8155  10
   6   1   4 70.8143 28.8625  22
   6   1   4 66.1628 28.7694  12
   6   1   5 52.4634 28.8907  10
   6   1   5 72.2872 33.2792  24
   6   1   5 90.9561 40.8167  22
   6   1   5 62.1702 36.1959  12
   6   1   6 1171.74 116.891  24
   6   1   6 1075.27 114.660  22
   6   1   6 1084.36 107.819  12
   6   1   6 1103.30 114.890  10
   6   1   7 374.598 68.5501  10
   6   1   7 506.634 76.6673  22
   6   1   8 1032.14 93.3200  22
   6   1   8 991.216 94.8084  10
   6   1   9 950.521 71.2235  22
   6   2  -9 600.124 57.5086  13
  -6  -2   9 697.974 61.4091  11
  -6  -2   9 698.841 63.5296  17
  -6  -2   8 323.894 57.1603  17
   6   2  -8 287.491 52.9811  13
  -6  -2   8 291.573 52.5265  11
  -6  -2   7 8124.06 298.213  17
   6   2  -7 8655.38 308.040  13
  -6  -2   6 2048.69 160.456  17
   6   2  -6 2097.68 161.970  13
  -6  -2   6 2217.98 172.040  23
  -6  -2   5 6322.08 284.797  17
   6   2  -5 7116.07 319.904  14
  -6  -2   5 6383.49 294.604  23
   6   2  -4 33.2216 25.3747  14
   6   2  -4 4.60778 20.5231  21
  -6  -2   3 5956.97 468.661  32
   6   2  -3 5666.04 523.692   2
  -6  -2   2 106.965 75.3316  32
  -6  -2   2 110.483 80.2400  31
   6   2  -2 164.119 70.0936   2
  -6  -2   1 75.1051 32.3112  31
  -6  -2   1 167.099 81.9834  32
  -6  -2   1 163.897 76.6761  27
   6   2  -1 76.1985 54.5045   4
   6   2  -1 181.088 101.695   2
  -6  -2   0 7673.74 505.076  32
  -6  -2   0 6704.05 468.466  31
  -6  -2   0 7412.91 486.038  27
   6   2   0 7287.31 501.858   8
   6   2   0 6535.37 497.516   4
   6   2   0 7385.91 551.279   2
  -6  -2  -1 1040.15 194.588  32
  -6  -2  -1 782.029 159.870  31
  -6  -2  -1 832.018 155.651  27
   6   2   1 906.500 174.051   8
   6   2   1 1150.95 219.413   2
  -6  -2  -2 2811.58 313.369  32
  -6  -2  -2 2772.87 320.721  31
  -6  -2  -2 2595.35 286.021  27
   6   2   2 2661.26 323.716   8
   6   2   2 2521.24 324.526   2
  -6  -2  -3 1026.25 198.404  32
  -6  -2  -3 851.334 172.963  27
   6   2   3 965.325 204.056   8
   6   2   3 1067.90 218.789   2
  -6  -2  -4 108.344 75.4444  32
   6   2   4 51.3097 26.5092  10
   6   2   4 127.153 75.5335   8
   6   2   4 3.08629 23.3260  22
   6   2   5 42.7057 24.5770  10
   6   2   5 91.5170 39.7142  24
   6   2   5 84.2139 30.3740  22
   6   2   6 5259.21 246.779  24
   6   2   6 4981.10 242.875  22
   6   2   6 4549.56 225.422  10
   6   2   7 461.015 73.6864  10
   6   2   7 477.905 75.9926  24
   6   2   7 449.488 72.4179  22
   6   2   8 19.7191 19.1460  10
   6   2   8 33.0665 24.5534  24
   6   2   8 34.5150 27.8538  22
   6   2   9-9.35738 16.8813  10
   6   2   9 7.29781 13.8954  22
  -6  -3   8 54.5812 22.9870  17
   6   3  -8 63.0037 23.3775  13
  -6  -3   8 57.5100 22.5089  11
  -6  -3   7 308.390 57.2847  17
   6   3  -7 257.732 53.3582  13
  -6  -3   7 330.054 60.0591  11
  -6  -3   6 7.63338 22.9505  17
   6   3  -6 33.6101 32.1066  13
  -6  -3   5 598.126 91.1576  17
   6   3  -5 686.291 96.7564  14
   6   3  -5 572.868 86.1506  13
  -6  -3   4 1527.10 143.413  17
   6   3  -4 1898.26 166.617  14
  -6  -3   4 1681.37 152.675  23
  -6  -3   3 109.939 66.1010  31
  -6  -3   3 122.076 37.5770  17
   6   3  -3 113.255 41.9117  14
   6   3  -3 171.988 46.5111  21
  -6  -3   2 9592.19 590.133  32
  -6  -3   2 9112.07 552.161  31
   6   3  -2 9500.24 670.496   2
  -6  -3   1 97.3187 63.1276  32
  -6  -3   1 8.71750 62.7445  31
   6   3  -1-90.9384 78.2245   4
   6   3  -1 0.90719 28.0182   2
  -6  -3   0 3301.83 350.088  32
  -6  -3   0 2998.60 314.256  31
   6   3   0 3070.34 358.505   2
   6   3   0 3104.66 384.238   4
  -6  -3  -1 981.785 184.797  32
  -6  -3  -1 1460.93 224.711  31
   6   3   1 1216.91 206.526   8
   6   3   1 958.678 197.361   4
   6   3   1 1255.98 232.410   2
  -6  -3  -2 2827.90 305.128  32
  -6  -3  -2 2691.43 308.303  31
   6   3   2 2871.24 325.133   8
   6   3   2 2410.22 297.832   4
   6   3   2 2984.79 352.649   2
  -6  -3  -3 4607.52 405.481  32
  -6  -3  -3 4637.69 425.824  31
   6   3   3 4394.02 414.228   8
   6   3   3 3906.63 401.731   2
  -6  -3  -4 2600.05 320.564  32
  -6  -3  -4 2415.95 324.619  31
   6   3   4 2377.27 315.094   8
   6   3   5 603.990 82.1471  24
   6   3   5 641.728 86.7247  22
   6   3   5 592.705 80.1093  10
   6   3   6 2357.59 165.608  24
   6   3   6 2529.15 171.284  22
   6   3   6 2189.92 155.185  10
   6   3   7 3346.56 194.855  24
   6   3   7 3575.11 203.538  22
   6   3   7 2930.98 181.008  10
   6   3   8-12.3324 32.6042  10
   6   3   8-33.1487 32.6087  24
   6   3   8-19.1270 36.9059  22
   6   3   9-15.8673 13.5341  10
   6   3   9 41.8985 24.8453  24
   6   3   9-1.91684 19.3151  22
   6   3  10 240.792 39.7670  22
  -6  -4   8 5.05428 11.8451  17
  -6  -4   7 119.007 33.5327  17
   6   4  -7 170.602 43.2844  13
  -6  -4   7 119.289 31.3009  11
   6   4  -6 3256.88 186.920  13
  -6  -4   6 2972.52 175.184  11
  -6  -4   6 3052.00 183.426  17
   6   4  -5 1022.60 118.475  14
   6   4  -5 940.344 107.344  13
   6   4  -5 886.296 111.348  20
  -6  -4   5 724.707 97.0352  11
  -6  -4   5 826.033 105.708  17
  -6  -4   4 4384.04 246.523  17
   6   4  -4 4163.04 227.751  13
  -6  -4   3 61.3200 25.0719  17
   6   4  -3 104.611 37.9602  14
   6   4  -3 51.8701 28.8382  13
  -6  -4   2 5551.89 469.118  32
  -6  -4   2 5361.27 448.907  31
   6   4  -2 5943.16 565.558   2
  -6  -4   2 5160.14 474.832  26
   6   4  -2 5022.04 256.396  25
   6   4  -2 5770.59 276.014  14
   6   4  -2 5205.42 551.641   4
   6   4  -2 6045.75 262.938  21
   6   4  -2 4929.46 513.830   6
  -6  -4   1 3935.70 377.940  32
  -6  -4   1 3682.10 360.012  31
  -6  -4   1 3385.27 381.371  26
   6   4  -1 3869.14 434.005   2
   6   4  -1 3865.90 460.036   4
   6   4  -1 2746.91 369.791   6
  -6  -4   0 3069.23 329.790  32
  -6  -4   0 3039.08 318.163  31
   6   4   0 2998.57 361.750   2
   6   4   0 3152.28 407.719   4
  -6  -4  -1 695.836 157.747  32
  -6  -4  -1 566.152 138.004  31
   6   4   1 756.180 176.450   4
   6   4   1 453.262 121.786   2
  -6  -4  -2 11978.9 643.194  32
  -6  -4  -2 11078.7 627.598  31
   6   4   2 11062.9 678.603   2
   6   4   2 10808.0 695.437   4
  -6  -4  -3 3504.46 348.774  32
  -6  -4  -3 3448.39 367.178  31
   6   4   3 3745.07 393.089   2
   6   4   3 2911.38 349.255   4
  -6  -4  -4 2816.60 329.880  32
  -6  -4  -4 3674.60 399.815  31
   6   4   4 3194.23 360.166   8
   6   4   4 2543.20 330.176   2
   6   4   4 2191.55 297.166   4
  -6  -4  -5 1646.50 261.719  32
  -6  -4  -5 1201.48 230.465  31
   6   4   5 1331.08 127.759  16
   6   4   5 1554.84 264.043   8
   6   4   5 1591.78 133.631  22
   6   4   5 1486.53 124.246  10
   6   4   6 1458.41 126.862  24
   6   4   6 1473.40 129.997  22
   6   4   6 1384.51 123.154  10
   6   4   7 3675.34 202.943  24
   6   4   7 4080.30 214.266  22
   6   4   7 3589.18 201.613  10
   6   4   8 10.8939 22.2795  10
   6   4   8 59.4995 29.9312  24
   6   4   8-10.4678 24.6019  22
   6   4   9 328.228 51.8679  10
   6   4   9 364.671 57.4715  24
   6   4   9 351.290 56.9827  22
   6   4  10 25.7322 19.5706  24
   6   4  10 7.16527 17.7277  22
  -6  -5   7 32.1535 19.9944  17
   6   5  -7 46.4570 18.6618  13
  -6  -5   6 13.7302 24.6078  17
   6   5  -6 8.05713 21.3218  13
  -6  -5   5 8.33777 24.9836  17
   6   5  -5 60.7054 32.4839  14
   6   5  -5 62.2802 30.1733  13
   6   5  -5 26.2445 25.0397  20
  -6  -5   4 13.6824 23.9304  17
   6   5  -4 43.4344 31.1999  14
   6   5  -4 19.8077 23.5031  13
   6   5  -4 30.3886 32.7743  20
   6   5  -3 1412.38 144.599  14
   6   5  -3 1208.40 124.054  13
   6   5  -3 1371.50 144.225  20
  -6  -5   3 1348.23 138.457  17
   6   5  -2 831.312 109.359  14
   6   5  -2 639.974 91.2467  13
   6   5  -1 508.252 170.827   6
  -6  -5   1 394.847 116.838  32
  -6  -5   1 408.685 136.886  26
   6   5  -1 358.833 68.8797  14
   6   5  -1 385.706 65.1154  21
   6   5   0 310.441 125.373   6
  -6  -5   0 344.925 111.913  32
  -6  -5   0 487.826 134.990  31
  -6  -5   0 137.979 80.4666  26
   6   5   0 239.214 117.674   4
   6   5   0 119.186 81.4167   2
  -6  -5  -1 10359.4 608.347  32
  -6  -5  -1 9757.18 591.250  31
   6   5   1 8836.18 647.224   2
  -6  -5  -1 10097.8 683.523  26
   6   5   1 10207.4 733.027   4
  -6  -5  -2 1333.57 224.920  32
  -6  -5  -2 1556.39 244.679  31
  -6  -5  -2 1558.19 287.537  26
   6   5   2 1201.61 244.252   4
   6   5   2 1451.51 250.331   2
  -6  -5  -3 11128.4 642.777  32
  -6  -5  -3 12631.4 705.996  31
   6   5   3 11604.5 725.351   2
  -6  -5  -3 11922.1 746.861  26
   6   5   3 11156.4 744.394   4
  -6  -5  -4 5094.51 471.085  31
   6   5   4 4431.18 230.663  16
   6   5   4 4638.85 459.384   2
  -6  -5  -4 5557.09 512.180  26
   6   5   4 4598.31 469.607   4
   6   5   4 5474.64 233.233  10
   6   5   5 1189.47 120.365  16
   6   5   5 1201.46 112.489  10
   6   5   6-14.8964 24.8875  10
   6   5   6 8.27746 26.1175  16
   6   5   6 13.0946 24.9033  22
   6   5   7 194.947 48.6941  10
   6   5   7 220.982 52.3339  16
   6   5   7 233.650 51.9451  22
   6   5   8 550.732 74.0554  24
   6   5   8 595.267 78.4469  22
   6   5   8 690.601 86.2774  10
   6   5   9 353.833 57.1154  24
   6   5   9 342.468 57.3108  22
   6   5  10-22.4622 15.7728  24
   6   5  10 21.4632 19.0028  22
  -6  -6   6 23.3885 10.9476  17
   6   6  -6 53.2406 21.9621  13
  -6  -6   5 115.515 33.2488  17
   6   6  -5 161.850 43.5545  13
  -6  -6   4 106.876 41.9177  17
   6   6  -4 151.534 49.5359  14
   6   6  -4 121.677 42.8032  13
   6   6  -4 100.609 39.7895  20
   6   6  -3 1369.84 138.881  14
   6   6  -3 1194.42 120.155  13
   6   6  -3 1390.62 142.490  20
  -6  -6   3 1124.13 121.256  17
   6   6  -2 23.8327 30.3582  14
   6   6  -2-17.1462 27.3430  13
   6   6  -2-0.44519 20.5757  20
   6   6  -1 11.5945 24.7671  14
   6   6  -1-19.6811 34.0639  13
   6   6  -1 15.3513 23.8679  20
   6   6   0 3817.72 223.915  14
   6   6   0 3520.83 212.622  20
   6   6   1 2387.37 170.830  14
   6   6   1 2107.29 162.127  20
  -6  -6  -2 2675.56 334.475  31
   6   6   2 2393.59 178.604  16
   6   6   2 2107.83 157.604  14
   6   6   2 2465.75 370.077   4
   6   6   2 2382.89 160.380  21
   6   6   2 2097.71 159.927  20
   6   6   2 2804.16 169.368  10
  -6  -6  -3 458.418 153.395  31
   6   6   3 357.917 68.0629  16
  -6  -6  -3 644.542 185.342  26
   6   6   3 301.055 125.023   4
   6   6   3 460.818 70.6158  10
   6   6   4 6417.26 278.979  16
   6   6   4 6136.52 281.425  19
   6   6   5 6967.11 291.050  16
   6   6   5 6524.27 290.040  19
   6   6   6 2014.45 155.910  16
   6   6   6 2164.23 166.912  19
   6   6   6 1969.03 152.703  18
   6   6   6 2281.61 152.756  10
   6   6   7 3319.43 197.438  16
   6   6   7 3006.61 194.826  19
   6   6   7 3452.00 188.298  10
   6   6   8 111.480 34.0301  10
   6   6   8 144.291 41.1857  16
   6   6   8 109.716 38.8548  19
   6   6   9 275.197 55.0016  19
   6   6  10 385.811 51.1776  24
   6   7  -5 10.4295 16.2390  13
  -6  -7   4 51.4551 25.4375  17
   6   7  -4 34.2617 25.8368  13
   6   7  -4 63.5592 25.4548  20
  -6  -7   3 48.5859 27.3942  17
   6   7  -3 28.4710 22.5234  13
   6   7  -3 26.0471 25.3822  20
   6   7  -2 486.981 82.3491  14
   6   7  -2 529.017 80.3285  13
   6   7  -2 488.068 83.4241  20
   6   7  -1 1186.54 125.708  14
   6   7  -1 1315.76 130.782  13
   6   7  -1 1116.17 126.000  20
   6   7   0 711.325 100.659  14
   6   7   0 666.769 96.3186  13
   6   7   0 586.349 89.6655  20
   6   7   1 10196.1 363.203  14
   6   7   1 10836.3 388.375  13
   6   7   1 10303.0 366.940  20
   6   7   2 4727.74 253.338  16
   6   7   2 4605.67 239.433  14
   6   7   2 4385.16 238.294  20
   6   7   3-13.3805 24.0259  16
   6   7   3 12.6891 19.5609  20
   6   7   4 172.234 50.1849  16
   6   7   4 203.594 52.9737  19
   6   7   4 250.096 54.5623  10
   6   7   5 2384.66 172.366  16
   6   7   5 2348.93 179.902  19
   6   7   5 2565.29 160.471  10
   6   7   6 9509.04 335.034  16
   6   7   6 9538.20 352.154  19
   6   7   7 225.595 53.7747  16
   6   7   7 236.434 56.2789  19
   6   7   7 198.870 49.0917  18
   6   7   7 302.744 54.7753  10
   6   7   8 4723.78 222.308  16
   6   7   8 5124.59 207.290  10
   6   7   9 978.500 93.8568  16
   6   7   9 861.167 91.6238  19
   6   7  10 581.466 60.1126  16
   6   7  10 670.817 70.3927  19
   6   8  -3-26.9318 16.6711  13
   6   8  -3-4.82746 22.0602  20
   6   8  -2 1152.85 109.052  13
   6   8  -2 1106.24 111.112  20
   6   8  -1 13.7558 20.9177  13
   6   8  -1 9.13335 27.3435  20
   6   8   0 365.157 66.7083  13
   6   8   0 356.395 67.4796  20
   6   8   1 8087.92 319.408  14
   6   8   1 8763.77 337.365  13
   6   8   1 8606.11 332.883  20
   6   8   2 282.756 61.1960  14
   6   8   2 392.459 76.8424  13
   6   8   2 355.036 70.6015  20
   6   8   3 44.8658 23.0165  16
   6   8   3 4.42409 22.2964  13
   6   8   3 71.8119 34.9845  20
   6   8   4 36.1584 26.4929  16
   6   8   4 27.8368 38.0345  19
   6   8   5 52.6076 29.8434  16
   6   8   5 83.7752 32.7673  19
   6   8   6 1562.32 133.984  16
   6   8   6 1632.72 150.244  19
   6   8   7 5866.82 248.233  16
   6   8   7 6710.03 287.144  19
   6   8   7 6043.23 250.552  18
   6   8   8 1273.92 111.433  16
   6   8   8 1306.21 120.830  19
   6   8   9 198.372 42.9827  16
   6   8   9 170.779 39.5075  19
   6   8  10 1158.00 86.1159  16
   6   8  10 1171.47 91.0639  19
   6   9  -2 251.933 54.1363  13
   6   9  -2 98.1286 28.7722  20
   6   9  -1-1.37527 16.2184  13
   6   9  -1-21.5983 21.0863  20
   6   9   0-3.80171 20.6583  13
   6   9   0 33.4813 19.6490  20
   6   9   1 955.799 102.861  13
   6   9   1 848.175 98.5358  20
   6   9   2 38.3296 28.9408  13
   6   9   2 36.5731 24.8452  20
   6   9   3 488.319 73.7699  13
   6   9   3 596.984 83.0313  20
   6   9   4-36.9524 20.9859  13
   6   9   4 11.1778 21.9143  19
   6   9   5 196.264 44.9204  16
   6   9   5 283.073 71.6083  19
   6   9   6 226.629 51.1732  16
   6   9   6 317.952 66.3284  19
   6   9   7 1199.95 108.069  16
   6   9   7 1157.14 117.424  19
   6   9   8 795.188 81.7515  16
   6   9   8 922.091 98.4638  19
   6   9   8 798.404 82.0499  18
   6   9   9 1356.36 97.3215  16
   6   9   9 1194.57 100.864  19
   6   9  10 1.16818 10.6596  19
   6  10   0 188.868 35.4854  13
   6  10   0 243.466 42.0753  20
   6  10   1 113.885 31.1056  13
   6  10   1 179.007 38.9516  20
   6  10   2 171.712 40.2088  13
   6  10   2 229.211 47.0760  20
   6  10   3 56.8568 26.5589  15
   6  10   3 66.7008 27.1197  13
   6  10   3 92.5909 31.6579  20
   6  10   3 37.9729 28.3309  19
   6  10   4 1919.41 144.985  19
   6  10   5 150.613 42.6849  19
   6  10   6 79.6176 22.3441  16
   6  10   6 159.122 43.9911  19
   6  10   7 355.613 51.3633  16
   6  10   7 406.122 63.5580  19
   6  10   8 824.694 74.4083  16
   6  10   8 879.417 85.2123  19
   6  10   9 26.3222 14.9805  16
   6  10   9 29.5600 22.4805  19
   6  11   3 46.6576 20.1388  19
   6  11   4 55.5960 20.1994  19
   6  11   5 104.722 29.5433  19
   6  11   6 705.559 67.9360  19
   6  11   7 26.9638 16.0610  19
   7  -5  -6-39.6646 18.0679  25
   7  -5  -5 273.442 44.3045  25
   7  -5  -4 420.400 56.3101  25
   7  -5  -3 272.986 45.0245  25
   7  -5  -2 9.99459 10.3999  25
   7  -4  -7 35.4863 17.3157  25
  -7   4   7 23.4100 15.2723  23
   7  -4  -6 68.2331 30.4210  25
  -7   4   6 2.53773 12.3746  23
   7  -4  -5 209.649 45.7313  25
   7  -4  -4 22.8820 20.6794  25
   7  -4  -3 220.982 51.3609  25
   7  -4  -2 171.989 42.4522  25
   7  -4  -2 89.2141 27.2216  21
   7  -4  -1 201.043 42.6155   9
   7  -4  -1 159.650 37.2424  25
   7  -4  -1 78.9535 27.2225  21
   7  -4   0-12.5467 21.6081   9
   7  -4   0-18.6642 20.9398  21
   7  -4   1 214.643 41.3585   9
   7  -4   1 252.317 43.7413  21
   7  -4   2 315.540 42.6074   9
   7  -4   2 294.539 39.2131  21
  -7   3   8 23.6990 16.2886  23
  -7   3   7 1026.40 88.6690  23
   7  -3  -6 610.013 77.8355  25
  -7   3   6 596.022 75.4851  23
   7  -3  -5 204.637 53.2890  25
   7  -3  -4 94.2842 35.5442  25
   7  -3  -3 11.8000 31.8109  25
   7  -3  -2 595.229 84.0032  25
   7  -3  -2 668.796 83.1284  21
   7  -3  -1 1389.98 123.723   9
   7  -3  -1 1239.33 115.961  25
   7  -3   0 253.411 59.1444   9
   7  -3   0 284.065 51.5178  25
   7  -3   0 345.485 58.6775  12
   7  -3   1 118.908 34.0314   9
   7  -3   1 129.250 38.9426  12
   7  -3   2 11.3672 16.9509  10
   7  -3   2-27.3955 27.4427   9
   7  -3   2 3.44283 21.1828  12
   7  -3   3 197.705 36.0507  10
   7  -3   3 232.469 42.1381   9
   7  -3   3 184.286 40.5226  12
   7  -3   4 84.5698 20.9869  10
   7  -3   4 99.0890 24.1019  12
  -7   2   8 206.274 40.3231  23
  -7   2   7 234.701 48.6808  23
   7  -2  -6 69.8532 29.1886  25
  -7   2   6 105.346 36.5305  23
   7  -2  -5 7.19772 30.3706  25
   7  -2  -4 20.2764 22.3515  25
   7  -2  -3 75.6284 34.1134  25
   7  -2  -3 89.2502 33.9255  21
   7  -2  -2 2142.22 166.449  25
   7  -2  -2 2073.67 157.717  21
   7  -2  -1 611.397 87.3591   9
   7  -2  -1 681.316 95.4617  25
   7  -2   0 2424.94 171.932   9
   7  -2   0 2177.66 163.388  25
   7  -2   0 2039.08 158.811  12
   7  -2   1 1843.49 145.113   9
   7  -2   1 1736.06 138.973  12
   7  -2   2 992.181 105.612   9
   7  -2   2 934.884 101.431  12
   7  -2   3 691.452 81.1482   9
   7  -2   3 807.559 89.2010  12
   7  -2   3 680.056 78.6894  10
   7  -2   4 291.156 47.8972  10
   7  -2   4 245.585 46.4546   9
   7  -2   4 370.103 55.8398  12
   7  -2   5 283.043 40.0388  10
   7  -2   5 318.003 40.0832   9
   7  -2   5 375.825 48.3641  12
   7  -2   5 248.112 34.5599  21
  -7   1   9 65.3504 21.0933  17
  -7   1   8 50.5124 22.3893  17
  -7   1   8 30.6396 15.3883  23
  -7   1   7 152.642 36.4737  23
  -7   1   6 114.086 37.0944  23
   7  -1  -5 242.347 58.9489  25
   7  -1  -4 873.771 110.635  25
   7  -1  -3-20.2965 24.4529  25
   7  -1  -3 0.96257 22.1051  21
   7  -1  -2 796.582 101.698  25
   7  -1  -2 959.328 109.266  21
   7  -1  -1 5334.47 262.048  25
   7  -1  -1 5473.38 259.845  21
   7  -1   0 36.2893 31.3530  25
   7  -1   0 24.5059 27.3490  12
   7  -1   1 1000.50 112.356   9
   7  -1   1 1007.39 115.056  25
   7  -1   1 923.780 108.116  12
   7  -1   2 3121.69 190.884   9
   7  -1   2 3060.12 188.467  12
   7  -1   3 664.009 87.9293   9
   7  -1   3 673.353 88.8288  12
   7  -1   3 590.573 81.2293  10
   7  -1   4 37.4230 29.1916  10
   7  -1   4-15.5141 19.7085   9
   7  -1   4 2.93430 21.8419  12
   7  -1   5 342.540 55.3596  10
   7  -1   5 333.303 49.4811  21
   7  -1   5 372.548 56.4564  12
   7  -1   6 308.373 45.8153  10
   7  -1   6 307.910 43.8379  12
  -7   0   9 513.244 51.5962  11
  -7   0   9 552.787 53.5102  17
  -7   0   8 55.8063 25.7982  17
  -7   0   8 28.1690 23.9477  23
  -7   0   7 613.478 82.0991  23
   7   0  -6 391.043 72.2056  14
  -7   0   6 421.606 71.3261  23
   7   0  -5 220.828 56.2778  25
   7   0  -4 1027.01 121.831  25
   7   0  -3 1465.60 142.625  25
   7   0  -3 1288.30 122.663  21
   7   0  -2 423.539 78.6410  25
   7   0  -2 343.780 66.3174  21
   7   0  -1 1505.98 138.747  25
   7   0  -1 1515.28 134.938  21
   7   0   0 1563.36 141.696   9
   7   0   0 1494.19 138.400  25
   7   0   0 1709.33 141.557  21
   7   0   1 2835.97 186.769   9
   7   0   1 2731.82 192.129  25
   7   0   1 3043.37 195.618  12
   7   0   2 3300.81 199.163   9
   7   0   2 3471.70 202.803  12
   7   0   3 2711.55 178.476   9
   7   0   3 3085.38 187.364  12
   7   0   3 2552.28 168.292  10
   7   0   4 6118.86 255.402   9
   7   0   4 6122.81 254.958  10
   7   0   5-5.18207 25.1429  10
   7   0   5 5.16578 15.8724  21
   7   0   5 42.0843 25.1556  12
   7   0   6 212.187 46.3764  10
   7   0   6 203.757 42.7209  12
   7   0   7 217.354 39.0700  10
   7   0   7 159.342 29.1279  12
  -7  -1   8 85.0002 30.3318  17
  -7  -1   7 1190.13 107.735  17
  -7  -1   7 1071.83 105.391  23
  -7  -1   6 1932.61 151.373  23
   7   1  -5 138.066 49.0443  14
   7   1  -4 849.952 105.260  25
   7   1  -3 288.578 68.5213  25
   7   1  -3 407.540 69.0255  21
   7   1  -2 1416.48 137.087  25
   7   1  -2 1342.67 123.803  21
   7   1  -1 17329.2 463.967  25
   7   1  -1 17390.3 441.681  21
  -7  -1   0 884.340 197.745  31
  -7  -1   0 721.281 183.114  27
   7   1   0 928.808 108.223  25
   7   1   0 760.440 198.857   8
   7   1   0 905.541 101.582  21
   7   1   1 499.233 78.4415   9
   7   1   1 512.047 81.1454  25
   7   1   1 582.601 85.5393  12
   7   1   1 410.979 69.1285  21
   7   1   2 223.302 51.7094  10
   7   1   2 250.121 58.0552   9
   7   1   2 244.370 62.0519  25
   7   1   2 292.812 62.7974  12
   7   1   2 278.924 58.3605  21
   7   1   3 1972.83 150.319  12
   7   1   3 1610.74 132.745  21
   7   1   3 1604.95 134.445  10
   7   1   4 1472.01 129.692  22
   7   1   4 1551.99 130.938  12
   7   1   4 1453.81 126.885  21
   7   1   4 1284.05 118.902  10
   7   1   5 3264.15 191.511  22
   7   1   5 3023.88 176.933  12
   7   1   5 2764.22 171.215  10
   7   1   6 63.8266 38.7642  10
   7   1   6-7.68131 18.6122  22
   7   1   6 27.1629 22.6609  12
   7   1   7 800.979 84.8338  10
   7   1   8 19.1513 14.6332  10
  -7  -2   8 17.6674 20.1870  17
  -7  -2   8 31.4486 19.4199  11
  -7  -2   7 3662.96 183.732  17
  -7  -2   6 402.023 68.2656  17
  -7  -2   5-33.8855 35.8939  17
   7   2  -5 38.7606 30.2207  14
   7   2  -4 952.580 119.371  14
   7   2  -4 856.153 102.067  21
   7   2  -3 4270.66 239.766  25
   7   2  -3 4210.73 225.228  21
   7   2  -2 1556.68 140.817  25
   7   2  -2 1570.93 134.762  21
  -7  -2   1 2.51250 74.3444  32
  -7  -2   1-49.0689 43.0029  31
  -7  -2   1 73.5712 81.0712  27
   7   2  -1 83.8683 37.9721  25
   7   2  -1 77.9154 31.8769  21
   7   2  -1 62.5004 64.3126   2
  -7  -2   0 5850.35 496.143  32
  -7  -2   0 5521.52 463.689  31
  -7  -2   0 5284.58 457.778  27
   7   2   0 6124.44 522.062   8
   7   2   0 5964.81 269.239  25
   7   2   0 6034.99 553.252   2
   7   2   0 6072.67 252.341  21
  -7  -2  -1 3168.35 361.322  32
  -7  -2  -1 3032.12 358.026  31
  -7  -2  -1 2867.73 342.266  27
   7   2   1 3155.90 385.517   8
   7   2   1 2782.09 186.565  25
   7   2   1 2917.05 379.540   2
   7   2   1 3429.69 191.037  21
   7   2   2 912.716 109.807  25
   7   2   2 990.839 108.687  12
   7   2   2 855.052 95.3023  21
   7   2   2 876.909 98.9096  10
   7   2   2 898.107 199.208   2
   7   2   3 462.043 74.2879  10
   7   2   3 592.766 81.6118  12
   7   2   3 594.072 80.2449  21
   7   2   4 100.141 33.0377  10
   7   2   4 143.253 45.1166  22
   7   2   4 105.051 35.8467  21
   7   2   5 217.856 51.0884  10
   7   2   5 159.863 41.7834  22
   7   2   6 7118.29 278.459  22
   7   2   6 6002.68 253.490  10
   7   2   7 1646.48 127.575  22
   7   2   7 1351.50 115.625  10
   7   2   8 83.8768 29.2126  10
   7   2   8 113.889 32.8900  22
  -7  -3   8 43.8486 21.6771  17
   7   3  -7 1706.94 110.627  13
  -7  -3   7 1750.55 112.804  11
  -7  -3   6 1003.60 103.615  17
  -7  -3   5 451.569 75.5100  17
   7   3  -5 454.758 77.2698  14
  -7  -3   4 146.297 48.4067  17
   7   3  -4 151.365 49.5419  14
   7   3  -3 125.965 43.5065  25
   7   3  -3 168.791 53.6557  14
   7   3  -3 141.935 43.0171  21
   7   3  -2 4084.31 229.495  25
   7   3  -2 4438.81 241.042  14
   7   3  -2 4616.25 231.212  21
  -7  -3   1 452.557 132.648  31
   7   3  -1 282.451 61.3989  25
   7   3  -1 355.528 147.459   4
   7   3  -1 373.029 65.9217  21
  -7  -3   0 696.312 170.369  32
  -7  -3   0 628.194 152.501  31
   7   3   0 641.912 89.9784  25
   7   3   0 743.632 194.465   4
   7   3   0 607.749 79.2334  21
   7   3   0 524.069 162.864   2
  -7  -3  -1 878.634 193.202  32
  -7  -3  -1 871.784 187.678  31
   7   3   1 929.367 197.586   8
   7   3   1 918.824 106.203  25
   7   3   1 969.870 99.6062  21
   7   3   1 1101.16 228.306   2
  -7  -3  -2 12498.1 721.597  32
  -7  -3  -2 13072.2 752.181  31
   7   3   2 14243.6 799.552   8
   7   3   2 13332.9 407.743  25
   7   3   2 12487.0 793.013   2
   7   3   2 13369.4 373.401  21
   7   3   2 13471.8 382.565  10
   7   3   3 1136.64 119.554  25
   7   3   3 1207.48 112.550  21
   7   3   3 1077.23 231.285   2
   7   3   3 1303.92 121.268  10
   7   3   4 4.27979 29.6152  10
   7   3   4 9.63865 20.3539  22
   7   3   5 516.379 75.3054  10
   7   3   5 593.500 85.7272  22
   7   3   6 760.739 95.7040  24
   7   3   6 748.562 94.9685  22
   7   3   6 718.635 89.1952  10
   7   3   7 2046.57 146.892  22
   7   3   7 1713.05 133.972  10
   7   3   8 1832.35 126.132  22
   7   3   8 1866.43 130.333  10
   7   3   9 0.98595 14.0942  10
   7   3   9 7.65963 14.4588  22
   7   4  -7 555.241 56.1715  13
  -7  -4   7 768.572 69.8215  17
  -7  -4   6 261.150 50.6514  17
   7   4  -6 255.964 48.7171  13
  -7  -4   5 19.7244 26.7705  17
   7   4  -5 0.82497 18.3886  14
   7   4  -5-22.0030 17.9757  13
   7   4  -5 3.16794 16.3977  20
  -7  -4   4 436.780 77.0800  17
   7   4  -4 449.336 84.5324  14
   7   4  -3-24.6224 31.6032  14
   7   4  -2 44.3838 31.8713  25
   7   4  -2 95.0835 41.5889  14
   7   4  -2 157.044 42.6104  21
   7   4  -1 11.4242 24.4254  25
   7   4  -1 7.97446 19.6065  21
   7   4   0 177.844 46.2054  25
   7   4   0 82.9579 32.7514  14
   7   4   0 176.966 46.4930  21
  -7  -4  -1 822.133 182.574  32
  -7  -4  -1 637.103 159.762  31
   7   4   1 665.857 90.0264  25
   7   4   1 615.150 86.3925  14
   7   4   1 607.326 181.852   4
   7   4   1 621.476 81.0137  21
   7   4   1 561.435 171.355   2
  -7  -4  -2 2789.20 348.693  32
  -7  -4  -2 2514.44 323.856  31
   7   4   2 2980.59 195.706  25
   7   4   2 2452.60 356.628   4
   7   4   2 3131.29 179.882  21
   7   4   2 2485.09 351.244   2
   7   4   2 3284.95 188.044  10
   7   4   3 3726.38 216.960  25
   7   4   3 3482.40 189.081  21
   7   4   3 4097.28 214.584  10
   7   4   4 265.508 59.2096  10
   7   4   4 166.001 46.5137  16
   7   4   4 299.728 61.6090  22
   7   4   5 197.992 44.5103  10
   7   4   5 232.860 55.6870  16
   7   4   5 269.292 60.8978  22
   7   4   6 2.17250 24.9921  10
   7   4   6 5.86005 18.9843  24
   7   4   6 72.2763 33.8186  22
   7   4   7 902.535 98.5097  24
   7   4   7 866.017 98.1616  22
   7   4   7 901.631 99.5894  10
   7   4   8 324.287 58.7860  10
   7   4   8 308.383 53.8827  24
   7   4   8 297.490 52.2521  22
   7   4   9 107.124 30.3983  10
   7   4   9 142.278 32.3924  22
  -7  -5   6 197.744 37.3063  17
   7   5  -6 129.165 32.7680  13
  -7  -5   5 54.9297 33.9028  17
   7   5  -5-26.0246 23.6782  14
   7   5  -5-12.9211 16.9192  13
   7   5  -5 64.4565 29.3268  20
  -7  -5   4 99.2867 37.7702  17
   7   5  -4 151.164 45.6678  14
   7   5  -4 90.1878 32.9491  13
   7   5  -4 217.579 59.9526  20
   7   5  -3 465.549 78.9708  14
   7   5  -2 688.242 98.5523  14
   7   5  -1 2409.67 181.223  14
   7   5  -1 2251.08 164.097  21
   7   5   0 58.1693 34.9966  14
   7   5   0 22.2776 18.6438  21
   7   5   1 121.972 41.3371  14
   7   5   1 201.510 50.6240  21
   7   5   1 163.846 42.8681  10
   7   5   2-1.92577 23.0609  10
   7   5   2 35.4945 24.3952  14
   7   5   2 6.35515 16.5797  21
   7   5   3 2596.59 186.829  16
   7   5   3 2201.38 151.316  21
   7   5   3 2719.55 171.871  10
   7   5   4 9378.41 354.480  16
   7   5   4 10465.2 337.542  10
   7   5   5 4593.15 243.471  16
   7   5   5 4971.32 239.326  22
   7   5   5 5252.73 236.920  10
   7   5   6 464.994 73.3550  10
   7   5   6 385.624 68.2380  16
   7   5   6 464.811 74.3251  22
   7   5   7 2346.98 154.799  22
   7   5   7 2263.49 154.836  10
   7   5   8 2353.08 143.082  24
   7   5   8 2252.67 142.246  22
   7   5   8 2415.66 148.846  10
   7   5   9 476.661 58.9842  24
   7   5   9 454.571 59.2261  22
   7   5   9 454.553 55.2117  10
   7   5  10 124.323 27.2343  22
  -7  -6   5 15.6142 11.4399  17
   7   6  -5 21.8394 15.7948  13
   7   6  -5 41.3214 21.8130  20
  -7  -6   4 468.006 64.9466  17
   7   6  -4 631.007 83.3079  14
   7   6  -4 520.266 70.0694  13
   7   6  -4 679.472 87.8975  20
   7   6  -3 109.200 38.8611  14
   7   6  -3 112.935 34.6222  13
   7   6  -3 53.6059 26.4784  20
   7   6  -2 1247.30 131.259  14
   7   6  -2 1218.87 129.392  20
   7   6  -1 26.0848 19.0093  14
   7   6  -1 57.1373 31.5245  20
   7   6   0 688.230 97.2195  14
   7   6   0 737.387 98.9461  20
   7   6   1 42.8456 30.3225  14
   7   6   1 63.6910 33.6503  21
   7   6   1 21.4057 18.2808  20
   7   6   2 14.1486 22.3603  16
   7   6   2 34.3461 22.2841  14
   7   6   2-4.57946 22.9349  21
   7   6   2 35.1041 22.7016  20
   7   6   2 35.9657 29.2482  10
   7   6   3 872.309 108.234  16
   7   6   3 997.261 104.348  21
   7   6   3 1207.31 111.383  10
   7   6   4 622.020 90.8058  16
   7   6   4 722.047 88.1430  10
   7   6   5 2714.69 186.166  16
   7   6   5 2730.78 167.675  10
   7   6   6 5017.80 246.687  16
   7   6   6 5371.16 235.946  10
   7   6   7 1277.17 118.709  16
   7   6   7 1436.22 120.214  10
   7   6   8 9.41995 19.3785  10
   7   6   8 22.9442 15.8690  16
   7   6   9 11.1293 14.5332  10
   7   7  -4 718.084 71.2838  13
   7   7  -4 711.833 73.4596  20
   7   7  -3 66.8864 29.4066  13
   7   7  -3 4.17286 17.6402  20
   7   7  -2 129.458 42.1060  14
   7   7  -2 194.744 47.6233  13
   7   7  -2 146.253 44.5956  20
   7   7  -1 24.2921 29.3601  14
   7   7  -1 21.0434 19.3463  13
   7   7  -1-20.1180 24.2011  20
   7   7   0 153.322 48.9227  16
   7   7   0 135.698 46.4451  14
   7   7   0 116.891 43.7725  20
   7   7   1 510.911 89.0909  16
   7   7   1 577.619 86.8404  14
   7   7   1 616.596 90.9420  20
   7   7   2 118.797 47.6904  16
   7   7   2 158.272 45.7975  14
   7   7   2 182.054 53.5288  20
   7   7   3 569.553 91.6698  16
   7   7   4 19.3750 36.5265  16
   7   7   4 25.0562 21.1842  10
   7   7   5 2753.50 184.183  16
   7   7   5 3110.08 175.758  10
   7   7   6 526.766 75.7842  16
   7   7   6 772.604 88.4656  10
   7   7   7 1237.24 116.861  16
   7   7   7 1422.01 113.740  10
   7   7   8 459.215 66.4322  16
   7   7   8 391.250 59.8210  10
   7   7   9 19.5341 13.3601  16
   7   7   9-4.27430 16.7343  10
   7   8  -3 207.566 37.0899  13
   7   8  -3 248.613 41.4280  20
   7   8  -2 557.177 68.3897  13
   7   8  -2 565.444 74.8432  20
   7   8  -1-3.38582 17.5242  13
   7   8  -1 30.1073 20.5790  20
   7   8   0 81.7498 36.8348  14
   7   8   0 85.4301 32.6177  13
   7   8   0 116.877 41.2962  20
   7   8   1-17.8490 22.3375  14
   7   8   1 13.6926 19.7129  20
   7   8   2 3258.29 199.098  16
   7   8   2 3367.22 201.102  14
   7   8   2 3470.40 209.299  20
   7   8   3 518.605 81.9180  16
   7   8   3 354.365 68.1295  20
   7   8   3 456.601 87.0680  19
   7   8   4-26.9505 32.4883  16
   7   8   4-4.70564 20.4628  19
   7   8   5 10.5945 22.4359  16
   7   8   5 0.96822 27.7443  19
   7   8   6 784.991 93.2562  16
   7   8   6 887.597 103.501  19
   7   8   7-10.7478 27.7167  16
   7   8   7 25.6752 24.1846  19
   7   8   8 437.496 62.1002  16
   7   8   8 402.899 61.1578  19
   7   8   9 4.10311 13.1543  16
   7   8   9-22.2214 13.1688  19
   7   9  -1 499.440 57.8524  13
   7   9  -1 485.505 63.9126  20
   7   9   0 7.71414 14.0992  13
   7   9   0 42.6264 34.5704  20
   7   9   1 87.4197 29.6743  13
   7   9   1 128.402 40.4721  20
   7   9   2 190.157 47.3360  20
   7   9   3 32.9321 22.0594  16
   7   9   3 65.9118 34.2765  20
   7   9   3 1.96998 22.9966  19
   7   9   4 50.1110 30.2826  16
   7   9   4 53.8767 28.2450  19
   7   9   5 200.778 48.5204  16
   7   9   5 157.550 45.5928  19
   7   9   6 1203.90 108.012  16
   7   9   6 1202.85 119.826  19
   7   9   7 89.6035 30.5673  16
   7   9   7 38.2098 18.5915  19
   7   9   8-13.0258 21.1822  16
   7   9   8 2.64989 19.3683  19
   7   9   9 110.864 26.9643  16
   7   9   9 60.6608 20.0217  19
   7  10   1 23.4050 13.4317  13
   7  10   1 0.96354 16.4868  20
   7  10   1 52.2182 22.0415  19
   7  10   2 657.248 72.2296  20
   7  10   2 665.602 74.6088  19
   7  10   3 348.907 53.1086  20
   7  10   3 253.401 49.8185  19
   7  10   4-13.8014 21.3657  19
   7  10   5 183.491 35.9188  16
   7  10   5 158.030 36.7003  19
   7  10   6 555.152 61.4862  16
   7  10   6 588.178 74.7751  19
   7  10   7-29.4423 17.9772  16
   7  10   7 4.32120 13.1748  19
   7  10   8 24.3461 16.3959  16
   7  10   8 23.1690 16.6180  19
   8  -4  -5 179.441 32.8731  25
   8  -4  -4 650.232 62.4007  25
   8  -4  -3 30.1211 17.1289  25
   8  -4  -2 14.7101 13.4249  25
   8  -3  -6 22.7566 18.2939  25
   8  -3  -5 19.6715 16.1916  25
   8  -3  -4 840.097 86.4397  25
   8  -3  -3 183.145 40.0685  25
   8  -3  -2-9.49520 21.0912  25
   8  -3  -2-0.58517 12.9654  21
   8  -3  -1 94.7050 28.5435  25
   8  -3  -1 111.795 30.4230  21
   8  -3   0 44.7771 17.2951  21
   8  -3   1-7.22266 13.6324  21
   8  -3   2-8.33299 12.0928  21
   8  -2  -6 229.391 40.6567  25
   8  -2  -6 248.121 43.9252  14
   8  -2  -5 64.7079 33.6262  25
   8  -2  -4 215.944 44.6492  25
   8  -2  -3 77.9277 28.2908  25
   8  -2  -3 36.7551 15.6985  21
   8  -2  -2 1098.13 109.603  25
   8  -2  -2 1134.59 103.457  21
   8  -2  -1 242.158 52.1187  25
   8  -2  -1 229.171 49.1980  21
   8  -2   0 22.8809 25.0661  25
   8  -2   0-13.2307 16.8577  21
   8  -2   1-20.8087 20.6236   9
   8  -2   1-24.7118 26.8900  21
   8  -2   2 77.3699 26.7665   9
   8  -2   2 102.943 31.8468  12
   8  -2   2 46.4400 21.1191  21
   8  -2   3-8.29813 9.21241  10
   8  -2   3-3.73273 20.0272  12
   8  -2   3-7.47980 12.4317  21
  -8   1   7-13.9755 16.0249  17
   8  -1  -6 399.646 60.0128  25
   8  -1  -6 407.356 61.0133  14
   8  -1  -5-1.39984 18.4090  25
   8  -1  -4 115.213 40.1614  25
   8  -1  -3 1497.92 132.179  25
   8  -1  -3 1557.46 126.432  21
   8  -1  -2 1068.12 112.027  25
   8  -1  -2 1086.64 111.040  21
   8  -1  -1 3573.66 203.364  25
   8  -1  -1 3505.84 194.663  21
   8  -1   0-4.32649 19.8386  25
   8  -1   0-1.93594 30.5257  21
   8  -1   1 468.558 69.1832   9
   8  -1   1 381.377 67.2303  25
   8  -1   1 437.321 69.2512  12
   8  -1   1 393.032 63.7658  21
   8  -1   2 183.819 40.3535  10
   8  -1   2 128.683 37.6981   9
   8  -1   2 213.889 47.0122  12
   8  -1   2 168.268 44.1817  21
   8  -1   3 60.7622 24.0482  10
   8  -1   3 4.71235 16.1342   9
   8  -1   3 3.83574 23.8207  12
   8  -1   3 40.3486 21.5052  21
   8  -1   4 77.5720 26.7819  10
   8  -1   4 67.5995 22.0450   9
   8  -1   4 82.4815 30.0528  12
   8  -1   4 43.2500 21.1185  21
   8  -1   5 51.0828 16.5040  10
   8  -1   5 75.7357 23.0693  12
  -8   0   8 71.7975 21.0978  17
  -8   0   7 183.489 40.5788  17
   8   0  -6 1096.41 100.894  14
   8   0  -5 520.174 77.1409  25
   8   0  -4 1070.09 119.504  25
   8   0  -3 4960.48 250.021  25
   8   0  -3 4870.79 231.154  21
   8   0  -2 32.9857 31.8411  25
   8   0  -2 48.6032 36.0852  21
   8   0  -1 1634.82 145.815  25
   8   0  -1 1428.61 130.611  21
   8   0   0-6.63451 23.0445  25
   8   0   0 23.7720 23.9155  21
   8   0   1 1250.68 126.834  25
   8   0   1 1357.59 126.789  12
   8   0   1 1036.65 105.771  21
   8   0   2 59.9867 28.6975  10
   8   0   2 54.7530 19.3291   9
   8   0   2 51.3952 34.2846  12
   8   0   2 51.0776 25.9709  21
   8   0   3 494.836 69.0623   9
   8   0   3 597.429 83.6415  12
   8   0   3 581.986 74.5859  21
   8   0   3 492.767 71.0004  10
   8   0   4 805.770 88.0686  12
   8   0   4 600.469 70.5920  21
   8   0   4 651.683 76.6471  10
   8   0   5 902.738 81.7138  12
   8   0   5 851.713 79.4025  10
   8   0   6 152.594 30.1574  10
   8   0   6 117.702 23.9464  12
  -8  -1   7 341.879 52.2615  17
  -8  -1   6 255.811 50.8510  17
   8   1  -6 180.079 39.7759  14
   8   1  -5 588.481 84.0875  14
   8   1  -4 602.642 87.6702  25
   8   1  -4 587.603 79.1473  21
   8   1  -3 1411.28 138.322  25
   8   1  -3 1320.33 123.902  21
   8   1  -2 3773.99 220.970  25
   8   1  -2 4073.51 219.336  21
   8   1  -1 1642.22 146.641  25
   8   1  -1 1916.54 149.487  21
   8   1   0 22675.1 536.629  25
   8   1   0 22442.1 503.320  21
   8   1   1 732.882 99.7514  25
   8   1   1 765.965 94.8438  21
   8   1   2 4884.74 255.448  25
   8   1   2 5163.66 248.480  12
   8   1   2 4918.82 230.409  21
   8   1   2 4317.51 215.163  10
   8   1   3 3986.79 210.951  12
   8   1   3 4138.48 204.906  21
   8   1   3 3802.01 199.502  10
   8   1   4 140.953 39.6241  10
   8   1   4 155.684 43.7626  12
   8   1   4 176.348 42.5929  21
   8   1   5 380.947 59.9558  10
   8   1   5 300.532 52.3192  12
   8   1   6 683.461 72.6703  10
   8   1   7 8.90902 11.2058  10
  -8  -2   7 309.699 48.3233  17
  -8  -2   7 270.457 41.0976  11
  -8  -2   6 110.725 36.6777  17
   8   2  -6 69.1242 26.7542  14
  -8  -2   5 448.377 70.8423  17
   8   2  -5 560.677 84.3190  14
  -8  -2   4 28.6865 19.5628  17
   8   2  -4-17.3113 24.1962  25
   8   2  -4 13.3956 20.4294  14
   8   2  -4-15.0521 24.4183  21
   8   2  -3 1828.55 157.473  25
   8   2  -3 1676.01 151.835  14
   8   2  -3 1793.90 145.588  21
   8   2  -2 1662.03 148.598  25
   8   2  -2 1473.42 132.704  21
   8   2  -1 4022.72 226.918  25
   8   2  -1 4333.69 224.351  21
   8   2   0 24.4398 20.8868  25
   8   2   0 38.9968 24.4619  21
   8   2   1 11041.5 376.304  25
   8   2   1 11664.4 359.994  21
   8   2   2 7883.38 325.636  25
   8   2   2 7955.82 294.034  21
   8   2   2 8310.05 308.197  10
   8   2   3 556.169 78.7589  10
   8   2   3 548.564 81.5326  12
   8   2   3 579.208 79.6848  21
   8   2   4 18.4320 20.7746  10
   8   2   4 0.22045 20.1976  12
   8   2   4-8.62663 23.8499  21
   8   2   5-1.58072 24.2072  10
   8   2   6 304.223 54.3019  10
   8   2   7 231.220 44.2745  10
   8   2   8 8.63738 11.9373  10
  -8  -3   7 39.2856 17.9356  17
   8   3  -6 1156.43 100.430  20
  -8  -3   6 1183.22 97.0021  17
  -8  -3   5 129.376 31.2147  17
   8   3  -5 106.291 33.0331  14
  -8  -3   4-12.7421 20.7043  17
   8   3  -4 30.9903 30.3366  14
   8   3  -3 884.187 111.275  25
   8   3  -3 884.445 110.329  14
   8   3  -3 949.293 107.871  21
   8   3  -2 3310.77 213.249  25
   8   3  -2 3301.81 210.545  14
   8   3  -2 3343.40 199.380  21
   8   3  -1 2132.45 166.709  25
   8   3  -1 2381.97 165.498  21
   8   3   0 1049.54 115.353  25
   8   3   0 1244.10 118.491  21
   8   3   1 17153.7 469.038  25
   8   3   1 18142.3 446.757  21
   8   3   2-20.9442 30.6904  10
   8   3   2 1.69209 21.0939  25
   8   3   2-17.0060 20.5237  21
   8   3   3 7675.15 322.047  25
   8   3   3 7579.55 284.585  21
   8   3   3 8244.59 309.656  10
   8   3   4 663.457 81.8907  21
   8   3   4 792.892 95.3556  10
   8   3   5 39.7601 22.8845  10
   8   3   6 507.611 70.1740  10
   8   3   7 95.0802 30.7690  10
   8   3   8 713.552 69.5512  10
   8   4  -6 436.056 54.7806  20
  -8  -4   6 468.764 55.1275  17
  -8  -4   5 22.6505 17.7789  17
   8   4  -5 31.3243 25.7911  14
   8   4  -5 89.5282 33.3677  20
   8   4  -4 361.579 67.9553  14
   8   4  -3-6.82976 27.9168  14
   8   4  -2 95.6542 43.9274  25
   8   4  -2 62.1076 34.1582  14
   8   4  -2 35.3701 26.0091  21
   8   4  -1 773.404 102.741  14
   8   4  -1 717.207 96.7635  25
   8   4  -1 738.785 92.0331  21
   8   4   0 7.49678 24.7001  25
   8   4   0 25.1983 20.9849  14
   8   4   0-19.8351 29.0912  21
   8   4   1 211.868 55.9373  25
   8   4   1 158.032 46.9495  14
   8   4   1 168.459 47.0109  21
   8   4   2 10173.6 366.281  25
   8   4   2 10576.7 338.426  21
   8   4   2 11297.2 356.953  10
   8   4   3 1835.96 164.993  16
   8   4   3 1606.75 132.302  21
   8   4   3 1929.00 149.126  10
   8   4   4 4484.66 243.992  16
   8   4   4 5117.37 239.344  10
   8   4   5 1218.41 115.317  10
   8   4   6 208.279 49.0575  10
   8   4   7 73.2736 31.5612  10
   8   4   8 69.3002 27.1459  10
   8   5  -5 69.4692 25.2746  14
   8   5  -5 109.351 32.0524  20
   8   5  -4-7.94094 18.2285  14
   8   5  -4 12.4526 16.8888  20
   8   5  -3 734.547 95.0553  14
   8   5  -2 6112.92 280.877  14
   8   5  -1 411.701 72.6010  14
   8   5  -1 249.111 54.5233  21
   8   5   0 211.584 55.7403  14
   8   5   0 260.124 55.6204  21
   8   5   1 269.305 61.6427  14
   8   5   1 240.874 51.1693  21
   8   5   1 251.594 52.2278  10
   8   5   2 599.736 87.7428  14
   8   5   2 653.999 86.2570  21
   8   5   2 799.337 94.2814  10
   8   5   3 589.722 81.2427  10
   8   5   3 610.382 95.7394  16
   8   5   3 606.536 81.8130  21
   8   5   4 4925.79 262.707  16
   8   5   4 6016.94 256.363  10
   8   5   5 815.307 103.994  16
   8   5   5 946.746 101.300  10
   8   5   6 476.249 70.5837  16
   8   5   6 634.540 81.7238  10
   8   5   7 3632.44 179.917  10
   8   5   8 116.870 37.2690  10
   8   5   9 5.29443 10.4906  10
   8   6  -4 20.5134 14.5789  14
   8   6  -4 22.3079 18.2369  20
   8   6  -3 14.8613 26.1309  14
   8   6  -3 32.0660 23.7082  20
   8   6  -2 1678.20 142.721  14
   8   6  -2 1918.59 152.534  20
   8   6  -1 1683.86 146.714  14
   8   6  -1 1611.70 143.902  20
   8   6   0 167.657 48.8290  14
   8   6   0 132.985 44.1695  20
   8   6   1 558.982 83.8627  14
   8   6   1 671.284 87.2362  21
   8   6   1 477.855 80.1335  20
   8   6   2 89.1905 42.5540  16
   8   6   2 97.8072 33.4933  14
   8   6   2 94.4551 35.3388  21
   8   6   2 133.793 37.7225  20
   8   6   2 116.028 39.9000  10
   8   6   3 1673.92 154.425  16
   8   6   3 1765.22 139.567  21
   8   6   4 113.342 43.2034  10
   8   6   4 106.795 46.2228  16
   8   6   5 3311.70 208.352  16
   8   6   5 3394.57 184.792  10
   8   6   6 46.8604 35.7090  10
   8   6   6-6.78182 21.4839  16
   8   6   7 3130.62 168.053  16
   8   6   7 3479.92 173.776  10
   8   6   8-3.91192 19.7805  10
   8   6   9 107.655 24.5931  10
   8   7  -3 783.079 82.5294  20
   8   7  -2 260.413 52.9988  14
   8   7  -2 232.756 46.8766  20
   8   7  -1 19.4405 20.0646  14
   8   7  -1 4.71113 19.2803  20
   8   7   0 247.998 56.1717  16
   8   7   0 182.224 51.2101  14
   8   7   0 207.256 52.7337  20
   8   7   1 1430.03 138.020  16
   8   7   1 1260.68 122.206  14
   8   7   1 1324.81 129.536  20
   8   7   2 103.042 42.1572  16
   8   7   2 102.849 38.3288  14
   8   7   2 69.0798 35.5511  20
   8   7   3 38.1906 24.1164  16
   8   7   4 113.369 40.5576  16
   8   7   4 178.871 45.4645  10
   8   7   5 249.459 58.0585  16
   8   7   5 260.109 47.6693  10
   8   7   6 215.051 51.5200  16
   8   7   6 189.794 43.7727  10
   8   7   7 128.143 37.1414  16
   8   7   7 142.734 37.9102  10
   8   7   8 233.097 42.3084  16
   8   7   8 269.442 44.8020  10
   8   8  -2 1074.60 91.8120  20
   8   8  -1 153.406 40.6098  20
   8   8   0 555.684 77.1493  14
   8   8   0 538.416 76.5592  20
   8   8   1 212.474 48.6045  16
   8   8   1 283.384 56.7185  14
   8   8   1 287.292 58.6028  20
   8   8   2 167.751 45.4576  16
   8   8   2 114.791 39.2532  14
   8   8   2 134.354 41.6219  20
   8   8   3 12.9850 21.1926  16
   8   8   4 274.021 59.7398  16
   8   8   5-39.5046 30.8733  16
   8   8   6 1157.96 108.033  16
   8   8   7 650.131 77.2072  16
   8   8   8 26.9009 17.3444  16
   8   9  -1 786.780 68.7625  20
   8   9   0 388.896 56.2593  20
   8   9   1 590.545 73.5269  20
   8   9   1 470.955 59.9140  19
   8   9   2 1340.08 110.853  20
   8   9   2 1300.05 104.859  19
   8   9   3 231.601 46.9027  16
   8   9   3 186.513 42.0437  19
   8   9   4 192.072 43.2176  16
   8   9   4 138.773 39.3347  19
   8   9   5 25.9171 22.3299  16
   8   9   6-2.30852 20.1939  16
   8   9   7 539.041 65.0080  16
   8   9   8 416.455 50.3975  16
   8  10   2 206.131 35.5648  20
   8  10   3-6.76299 9.84566  19
   8  10   4 14.0955 14.3094  19
   8  10   5 78.4227 22.7056  16
   8  10   5 74.9405 22.9451  19
   8  10   6 57.1991 17.7826  16
   8  10   7-13.3888 14.3763  16
   9  -2  -5 135.228 29.0756  25
   9  -2  -4 597.404 63.5011  25
   9  -2  -3 249.848 44.4485  25
   9  -2  -2 296.699 45.9095  25
   9  -2  -2 267.395 37.4939  21
   9  -2  -1 194.538 34.3710  25
   9  -2  -1 197.489 33.9883  21
   9  -2   0 12.3182 11.0982  21
   9  -2   1 1025.94 70.8802  21
   9  -1  -5 15.2753 13.7604  25
   9  -1  -5 51.0756 21.6202  14
   9  -1  -4 1213.38 100.511  25
   9  -1  -3 2599.01 150.128  25
   9  -1  -3 2290.77 124.296  21
   9  -1  -2 337.374 54.7727  25
   9  -1  -2 324.447 50.8407  21
   9  -1  -1 349.593 56.1414  25
   9  -1  -1 313.514 52.0551  21
   9  -1   0 75.2227 31.2119  25
   9  -1   0 47.0412 22.9785  21
   9  -1   1 414.682 53.9775  21
   9  -1   2 431.382 52.4989  21
   9  -1   3 565.255 50.4513  21
  -9   0   6 229.043 36.4669  17
  -9   0   5-44.8123 19.9996  17
   9   0  -5-58.5023 26.7682  25
   9   0  -5 5.73727 24.1671  14
   9   0  -4 5.10602 22.4995  25
   9   0  -3 509.428 72.2326  25
   9   0  -3 475.122 64.7789  21
   9   0  -2 1607.16 127.664  25
   9   0  -2 1701.37 127.097  21
   9   0  -1 1333.82 117.156  25
   9   0  -1 1359.76 113.511  21
   9   0   0 183.107 47.3829  25
   9   0   0 202.446 45.2236  21
   9   0   1-10.4040 19.7981  25
   9   0   1-1.60272 17.0919  21
   9   0   2 881.323 84.0647  21
   9   0   3 6.46189 11.4360  10
   9   0   3-6.39107 13.7068  21
   9   0   4 458.023 47.6079  21
   9   0   4 454.135 48.1954  10
  -9  -1   6-1.82086 13.3642  17
  -9  -1   5-19.9188 19.0367  17
   9   1  -5-2.91955 16.3549  25
   9   1  -5 32.5710 23.6587  14
   9   1  -4 417.442 66.4002  25
   9   1  -4 392.329 67.5769  14
   9   1  -3 132.633 46.2877  25
   9   1  -3 83.1244 33.5621  21
   9   1  -2-18.8302 23.5421  25
   9   1  -2 48.4486 23.3206  21
   9   1  -1 8775.87 312.294  25
   9   1  -1 9602.24 314.129  21
   9   1   0 1130.72 113.004  25
   9   1   0 1026.56 101.168  21
   9   1   1 137.441 42.3379  25
   9   1   1 104.435 32.9402  21
   9   1   2 199.706 46.8305  21
   9   1   3 0.87889 15.3766  10
   9   1   3 8.66404 16.4278  21
   9   1   4 5.39866 15.2468  10
   9   1   4 37.3305 17.7824  21
   9   1   5 249.594 38.4769  10
   9   2  -5 123.339 35.9699  14
   9   2  -4 712.358 85.2752  25
   9   2  -4 674.518 88.1983  14
   9   2  -4 707.970 76.9916  21
   9   2  -3 534.660 79.5513  25
   9   2  -3 617.995 87.3726  14
   9   2  -3 490.386 72.5572  21
   9   2  -2-6.02014 30.5931  25
   9   2  -2 48.4988 30.8436  14
   9   2  -2 9.79311 22.6094  21
   9   2  -1 555.690 81.1782  25
   9   2  -1 604.482 81.5668  21
   9   2   0 25.4841 27.7393  25
   9   2   0 50.1261 38.5069  21
   9   2   1 206.083 49.5288  25
   9   2   1 235.696 51.9691  21
   9   2   2 1119.42 116.262  25
   9   2   2 1156.26 106.297  21
   9   2   3 542.574 70.1285  21
   9   2   3 550.407 70.1175  10
   9   2   4 666.897 73.2733  21
   9   2   4 820.536 83.4211  10
   9   2   5 312.644 48.1742  10
   9   2   6 19.0993 16.7545  10
   9   3  -5 65.3931 27.3412  14
   9   3  -4 81.3306 36.2382  14
   9   3  -3 220.801 49.0834  25
   9   3  -3 186.884 48.8559  14
   9   3  -3 296.073 54.6963  21
   9   3  -2 75.6421 39.5876  25
   9   3  -2 59.1646 32.2437  14
   9   3  -2 47.8945 21.9021  21
   9   3  -1 4393.57 232.909  25
   9   3  -1 4575.65 241.034  14
   9   3  -1 4952.42 232.978  21
   9   3   0-40.4927 30.2362  25
   9   3   0 23.3312 30.7251  14
   9   3   0-9.99675 20.5843  21
   9   3   1-1.11654 28.4077  25
   9   3   1 20.5215 15.5977  14
   9   3   1 45.0950 35.9311  21
   9   3   2 782.246 102.246  16
   9   3   2 928.427 106.698  25
   9   3   2 1047.81 104.610  21
   9   3   2 915.263 95.8960  10
   9   3   3 13.2067 19.5513  10
   9   3   3 60.6401 30.3094  21
   9   3   4 522.563 67.1417  21
   9   3   4 569.154 72.9653  10
   9   3   5 129.796 36.4869  10
   9   3   6 260.482 46.2529  10
   9   3   7 102.711 25.1915  10
   9   4  -5 0.97761 11.5654  14
   9   4  -5 18.4782 18.3219  20
   9   4  -4 526.575 71.3074  14
   9   4  -3 32.6614 32.6775  14
   9   4  -2 249.044 62.0151  14
   9   4  -2 218.640 52.4246  21
   9   4  -1-89.7080 39.2857  25
   9   4  -1-3.29081 24.5106  14
   9   4  -1-19.0637 31.1348  21
   9   4   0-1.44154 27.3804  25
   9   4   0 28.1252 20.7866  14
   9   4   0 35.4608 28.4033  21
   9   4   1 31.8364 24.5178  25
   9   4   1 64.2671 33.5513  14
   9   4   1 117.533 39.6736  21
   9   4   2 189.228 43.7403  10
   9   4   2 108.712 45.4333  16
   9   4   2 216.507 51.3648  21
   9   4   3 1577.19 146.814  16
   9   4   3 1819.54 133.585  21
   9   4   3 1832.13 137.731  10
   9   4   4 150.869 39.4899  10
   9   4   4 101.947 31.0003  21
   9   4   5 60.0032 38.3122  10
   9   4   6 1296.25 100.531  10
   9   4   7 101.915 28.6794  10
   9   5  -4 110.397 33.3824  14
   9   5  -4 79.4634 30.6793  20
   9   5  -3 19.0089 17.4542  14
   9   5  -3-13.5888 23.3238  20
   9   5  -2 51.1833 29.4979  14
   9   5  -1 1665.94 142.044  14
   9   5  -1 1626.07 129.112  21
   9   5   0 116.101 44.1616  14
   9   5   0 173.608 46.7332  21
   9   5   1 527.281 79.5046  14
   9   5   1 593.814 82.1680  21
   9   5   2 508.767 90.8543  16
   9   5   2 480.692 72.0238  21
   9   5   2 497.871 70.4743  10
   9   5   3 188.333 46.8278  10
   9   5   3 117.937 45.5075  16
   9   5   3 155.933 41.3624  21
   9   5   4 375.407 61.6230  10
   9   5   4 334.312 65.3389  16
   9   5   5 389.753 59.6552  10
   9   5   5 323.997 58.3887  16
   9   5   6 346.743 53.0299  10
   9   5   7 257.445 42.0242  10
   9   5   8 175.388 30.4781  10
   9   6  -4 35.4333 16.3549  14
   9   6  -4 14.1026 11.7406  20
   9   6  -3 283.904 50.2376  14
   9   6  -3 152.503 39.1081  20
   9   6  -2 12.1340 14.8861  16
   9   6  -2 37.3766 27.1306  14
   9   6  -2-3.40725 25.6726  20
   9   6  -1 708.035 90.7804  16
   9   6  -1 752.556 91.0535  14
   9   6  -1 662.833 86.1667  20
   9   6   0 647.928 90.8695  16
   9   6   0 724.677 91.7515  14
   9   6   0 708.562 91.2055  20
   9   6   1 43.9735 33.5273  16
   9   6   1 109.696 39.9397  14
   9   6   1 97.0237 33.8241  21
   9   6   1 54.8750 27.0845  20
   9   6   2 3.08325 28.2350  16
   9   6   2 24.7460 14.8763  14
   9   6   2 43.6753 28.1880  21
   9   6   3 2.95149 26.2627  16
   9   6   3 15.3311 23.2774  21
   9   6   3 5.81445 19.1305  10
   9   6   4 401.173 74.0188  16
   9   6   4 415.620 64.7419  10
   9   6   5 279.667 59.6391  16
   9   6   5 365.091 55.5864  10
   9   6   6 159.650 37.7962  10
   9   6   6 108.303 32.5498  16
   9   6   7 848.683 75.0383  10
   9   6   8 109.361 25.9167  10
   9   7  -3 10.1703 11.1850  20
   9   7  -2 71.8757 29.8093  14
   9   7  -2 64.2113 27.8491  20
   9   7  -1 743.042 78.9625  16
   9   7  -1 835.559 88.4434  14
   9   7  -1 902.156 93.0600  20
   9   7   0-9.81754 20.6039  16
   9   7   0 0.61722 16.5575  14
   9   7   0 26.2556 26.5737  20
   9   7   1 124.094 41.6517  16
   9   7   1 50.3019 20.2300  14
   9   7   1 120.585 36.9672  20
   9   7   2 590.980 85.7162  16
   9   7   2 485.645 70.1099  14
   9   7   3 140.465 47.6294  16
   9   7   4 341.124 62.2972  16
   9   7   4 327.983 56.8150  10
   9   7   5 316.847 59.5104  16
   9   7   5 328.875 54.5380  10
   9   7   6 282.812 52.4030  16
   9   7   6 287.470 47.5256  10
   9   7   7 63.7115 22.0480  16
   9   7   7 94.4578 28.5061  10
   9   7   8 1314.46 77.7651  10
   9   8  -1 403.337 53.9716  20
   9   8   0 96.3951 31.0734  14
   9   8   0 47.5743 18.7625  20
   9   8   1 13.3438 15.2816  16
   9   8   1 33.7052 18.7256  14
   9   8   1 2.43327 14.6944  20
   9   8   2 33.8207 28.2332  16
   9   8   2 53.0844 22.1697  14
   9   8   2 9.05642 15.3070  20
   9   8   3 100.497 35.8144  16
   9   8   4 585.887 75.7426  16
   9   8   5 21.2468 19.9447  16
   9   8   6-30.5755 25.5985  16
   9   8   7 332.605 49.0123  16
   9   9   1 53.5893 18.9438  20
   9   9   2-11.4250 12.2348  16
   9   9   2-32.2374 16.4560  20
   9   9   3 294.307 45.7027  16
   9   9   4 144.908 36.0972  16
   9   9   5 237.448 41.6970  16
   9   9   6 97.1174 26.1743  16
   9   9   7 42.1480 17.1547  16
  10  -1  -2 1746.78 93.6496  14
  10   0  -4 126.063 28.8327  14
  10   0  -3 59.4060 21.5346  25
  10   0  -3 103.083 30.0413  14
  10   0  -2 39.4285 18.8190  25
  10   0  -2 61.8864 24.2257  14
  10   0  -2 81.9397 23.9862  21
  10   0  -1 1305.17 92.5730  25
  10   0  -1 1365.41 89.4836  21
  10   0   0 503.965 54.3875  25
  10   0   0 524.391 55.7083  21
  10   0   1 3.98098 10.5557  21
  10   0   2 7.46961 10.6737  21
  10   1  -4 68.9522 22.3032  25
  10   1  -4 40.7442 20.5988  14
  10   1  -3 86.9687 30.8218  25
  10   1  -3 68.8407 28.2115  14
  10   1  -3 83.4490 23.1911  21
  10   1  -2-3.40732 20.8150  25
  10   1  -2 53.7300 24.0306  14
  10   1  -2 34.3057 21.4037  21
  10   1  -1 1216.17 98.5525  25
  10   1  -1 1154.55 98.0458  14
  10   1  -1 1322.22 98.5416  21
  10   1   0 568.979 66.4217  25
  10   1   0 623.931 67.3968  21
  10   1   1 759.081 73.3552  25
  10   1   1 606.059 62.7406  14
  10   1   1 810.345 73.2900  21
  10   1   2 135.397 31.2391  21
  10   1   3 34.4157 13.9559  21
  10   2  -4-8.81025 12.3610  14
  10   2  -3 81.7692 31.4193  25
  10   2  -3 57.5581 28.1280  14
  10   2  -3 98.8641 29.3235  21
  10   2  -2 58.7053 29.0295  25
  10   2  -2 25.5691 23.5670  14
  10   2  -2-12.1936 18.8752  21
  10   2  -1 0.72911 22.5620  25
  10   2  -1 14.2544 21.6643  14
  10   2  -1 25.9608 20.2168  21
  10   2   0 87.3644 32.3786  25
  10   2   0 14.5199 13.8196  14
  10   2   0 51.5077 27.8728  21
  10   2   1 252.498 48.3615  25
  10   2   1 152.154 37.2462  14
  10   2   1 188.933 39.6094  21
  10   2   2 57.9947 26.3390  21
  10   2   3 1.37353 11.3712  21
  10   2   4 430.304 43.9514  21
  10   2   4 476.514 45.7161  10
  10   3  -4 550.785 61.6018  14
  10   3  -3 54.4252 25.4341  14
  10   3  -2 166.450 42.9026  14
  10   3  -2 47.3932 18.9809  21
  10   3  -1 19.5132 30.3895  25
  10   3  -1-10.6285 19.0113  14
  10   3  -1 12.2095 25.3008  21
  10   3   0 4051.34 198.545  25
  10   3   0 3529.20 181.494  14
  10   3   0 3816.73 182.465  21
  10   3   1 90.9211 32.8651  16
  10   3   1 93.3918 34.3672  25
  10   3   1 89.5110 30.5601  14
  10   3   1 124.723 35.3991  21
  10   3   2 898.720 83.7579  21
  10   3   3 595.196 65.1867  21
  10   3   3 558.617 57.7669  10
  10   3   4 7.70458 15.2544  10
  10   3   4 20.1974 13.5284  21
  10   3   5 184.451 30.5925  10
  10   4  -4 41.4375 19.7476  14
  10   4  -4 14.9726 14.7239  20
  10   4  -3 645.481 72.9001  14
  10   4  -2 158.969 41.2380  14
  10   4  -1 48.5451 28.7480  14
  10   4  -1 42.0582 25.4919  21
  10   4   0 1536.12 122.360  14
  10   4   0 1592.37 119.867  21
  10   4   1 594.312 84.9072  16
  10   4   1 483.416 67.0547  14
  10   4   1 594.449 72.0811  21
  10   4   2 496.812 73.9451  16
  10   4   2 575.658 70.3834  21
  10   4   3 41.9588 23.2191  10
  10   4   3 3.71846 13.9912  21
  10   4   4 103.604 28.5493  10
  10   4   4 104.315 26.7453  21
  10   4   5 71.9003 23.5807  10
  10   4   6 48.3072 18.5547  10
  10   5  -3 70.8011 23.2193  16
  10   5  -3 25.6858 17.8860  14
  10   5  -3 60.6192 25.5770  20
  10   5  -2 242.155 47.1169  14
  10   5  -2 258.511 47.1273  20
  10   5  -1 410.858 63.2792  14
  10   5  -1 415.785 62.0049  20
  10   5   0 107.075 38.0311  16
  10   5   0 59.8534 23.2582  14
  10   5   0 131.936 38.8330  21
  10   5   1 515.301 79.0912  16
  10   5   1 440.972 62.2336  14
  10   5   1 556.049 70.8139  21
  10   5   2 54.0888 32.4234  16
  10   5   2 8.44644 17.3774  21
  10   5   3 400.252 67.1415  16
  10   5   3 430.394 59.4663  21
  10   5   3 491.458 59.0530  10
  10   5   4 681.215 75.3041  16
  10   5   4 1058.24 83.4042  10
  10   5   5 87.7520 26.1915  10
  10   5   6 605.816 54.7164  10
  10   6  -2 3.58087 13.6151  16
  10   6  -2 15.1769 16.6948  14
  10   6  -2 14.1899 17.2292  20
  10   6  -1 761.736 81.5137  16
  10   6  -1 815.586 81.2619  14
  10   6  -1 702.050 75.4098  20
  10   6   0 50.5922 27.4288  16
  10   6   0 81.4370 31.5706  14
  10   6   0 77.7521 28.3947  20
  10   6   1 52.5228 29.5608  16
  10   6   1 43.3741 20.5370  14
  10   6   1 32.1541 18.5661  20
  10   6   2 41.1463 32.6601  16
  10   6   2-6.32797 22.6654  21
  10   6   3-19.9595 27.6763  16
  10   6   3 8.27573 12.7313  21
  10   6   4 284.580 53.8023  16
  10   6   4 353.691 49.0470  10
  10   6   5 561.342 64.2400  16
  10   6   5 883.965 72.5375  10
  10   6   6 77.6817 20.5276  10
  10   7  -1 82.5111 23.6216  14
  10   7  -1 82.0569 25.2662  20
  10   7   0 272.837 45.0666  16
  10   7   0 298.422 45.6715  14
  10   7   0 249.401 42.1097  20
  10   7   1 23.1277 19.4918  16
  10   7   1 5.89594 13.7769  14
  10   7   1-9.00830 12.0045  20
  10   7   2 169.035 41.5904  16
  10   7   3 178.595 42.5756  16
  10   7   4 9.88865 16.8352  16
  10   7   5 85.3596 26.5855  16
  10   7   6 148.489 28.9422  16
  10   8   1 19.4733 14.2448  16
  10   8   2-14.3164 11.9898  16
  10   8   3 30.4864 19.1881  16
  10   8   4 9.20966 15.9749  16
  10   8   5 135.927 30.1297  16
  11   2   0 72.9285 20.7291  21
  11   2   1 72.3505 17.4171  21
  11   3  -1-6.68552 8.40374  14
  11   3  -1 28.4852 14.6854  21
  11   3   0 71.6855 18.7948  14
  11   3   0 57.3083 18.0451  21
  11   3   1 155.498 28.8852  21
  11   3   2 32.1797 11.5927  21
  11   4  -1 788.054 67.3852  16
  11   4  -1 820.845 65.9908  14
  11   4   0 704.888 65.4254  16
  11   4   0 726.601 61.7391  14
  11   4   0 915.746 71.8632  21
  11   4   1 382.705 46.4616  16
  11   4   1 587.843 56.9177  21
  11   4   2-2.24710 11.3369  21
  11   5  -1 487.227 51.2370  16
  11   5   0 386.012 49.8225  16
  11   5   0 398.886 44.9162  14
  11   5   1 20.3064 14.2721  16
  11   5   2 255.863 38.9112  16
  11   5   2 295.805 39.1216  21
  11   6   0 159.408 30.7662  16
  11   6   1 575.368 58.2091  16
  11   6   2 699.712 63.5739  16
  11   6   3 43.3334 18.2924  16
   0   0   0    0.00    0.00   0
TITL hz1525b in P-1
REM P-1 (#2 in standard setting)
CELL 1.54184   9.154050   9.219947  10.141892  64.8503  84.8318  67.0713
ZERR    3.00   0.000658   0.000688   0.000687   0.0069   0.0059   0.0070
LATT  1
SFAC C H N O
UNIT 33.00 30.00 3.00 3.00
TREF
HKLF 4
END
;
_shelx_hkl_checksum              9756
_shelx_shelxl_version_number     2014/7
_olex2_date_sample_data_collection 1409874241.47
_olex2_submission_special_instructions 'No special instructions were received'
loop_
_space_group_symop_operation_xyz
'x, y, z'
'-x, -y, -z'
loop_
_atom_site_label
_atom_site_type_symbol
_atom_site_fract_x
_atom_site_fract_y
_atom_site_fract_z
_atom_site_U_iso_or_equiv
_atom_site_adp_type
_atom_site_occupancy
_atom_site_site_symmetry_order
_atom_site_calc_flag
_atom_site_refinement_flags_posn
C1 C 0.3726(2) 0.9671(2) 0.18419(18) 0.0551(4) Uani 1 1 d .
H1 H 0.4718 0.9778 0.1985 0.066 Uiso 1 1 calc R
C2 C 0.2332(2) 1.0484(2) 0.2549(2) 0.0609(5) Uani 1 1 d .
C3 C 0.2593(2) 0.9993(3) 0.4129(2) 0.0612(5) Uani 1 1 d .
C4 C 0.1397(3) 1.0861(3) 0.4791(3) 0.0806(7) Uani 1 1 d .
H4 H 0.0454 1.1732 0.4245 0.097 Uiso 1 1 calc R
C5 C 0.1609(4) 1.0432(4) 0.6252(3) 0.1005(9) Uani 1 1 d .
H5 H 0.0813 1.1027 0.6688 0.121 Uiso 1 1 calc R
C6 C 0.2983(5) 0.9133(5) 0.7072(3) 0.0991(10) Uani 1 1 d .
H6 H 0.3114 0.8851 0.8062 0.119 Uiso 1 1 calc R
C7 C 0.4170(4) 0.8246(4) 0.6440(3) 0.0897(7) Uani 1 1 d .
H7 H 0.5099 0.7359 0.6999 0.108 Uiso 1 1 calc R
C8 C 0.3971(3) 0.8682(3) 0.4969(2) 0.0712(5) Uani 1 1 d .
H8 H 0.4773 0.8085 0.4538 0.085 Uiso 1 1 calc R
C9 C 0.39023(19) 0.8125(2) 0.16497(17) 0.0497(4) Uani 1 1 d .
C10 C 0.27159(18) 0.7290(2) 0.21139(17) 0.0466(4) Uani 1 1 d .
C11 C 0.1431(2) 0.7825(2) 0.11699(18) 0.0512(4) Uani 1 1 d .
H11 H 0.1278 0.8736 0.0247 0.061 Uiso 1 1 calc R
C12 C 0.0370(2) 0.7021(3) 0.1584(2) 0.0597(5) Uani 1 1 d .
H12 H -0.0504 0.7401 0.0945 0.072 Uiso 1 1 calc R
C13 C 0.0595(2) 0.5664(3) 0.2931(2) 0.0680(5) Uani 1 1 d .
H13 H -0.0110 0.5106 0.3201 0.082 Uiso 1 1 calc R
C14 C 0.1867(3) 0.5132(3) 0.3882(3) 0.0778(6) Uani 1 1 d .
H14 H 0.2016 0.4217 0.4802 0.093 Uiso 1 1 calc R
C15 C 0.2922(2) 0.5941(3) 0.3482(2) 0.0670(5) Uani 1 1 d .
H15 H 0.3777 0.5579 0.4135 0.080 Uiso 1 1 calc R
C16 C 0.5580(2) 0.6886(2) 0.16664(19) 0.0551(4) Uani 1 1 d .
C17 C 0.7293(3) 0.5322(3) 0.0434(3) 0.0923(8) Uani 1 1 d .
H17A H 0.7227 0.5021 -0.0350 0.138 Uiso 1 1 calc GR
H17B H 0.7603 0.4294 0.1341 0.138 Uiso 1 1 calc GR
H17C H 0.8068 0.5831 0.0259 0.138 Uiso 1 1 calc GR
O1 O 0.33928(15) 0.97982(17) 0.04371(12) 0.0586(4) Uani 1 1 d .
O2 O 0.1071(2) 1.1492(2) 0.18449(18) 0.0893(5) Uani 1 1 d .
O3 O 0.65777(18) 0.6278(3) 0.2620(2) 0.0998(6) Uani 1 1 d .
O4 O 0.57480(17) 0.6564(2) 0.05112(17) 0.0749(4) Uani 1 1 d .
loop_
_atom_site_aniso_label
_atom_site_aniso_U_11
_atom_site_aniso_U_22
_atom_site_aniso_U_33
_atom_site_aniso_U_23
_atom_site_aniso_U_13
_atom_site_aniso_U_12
C1 0.0579(10) 0.0626(10) 0.0482(9) -0.0221(8) 0.0102(7) -0.0297(8)
C2 0.0682(12) 0.0550(10) 0.0627(11) -0.0268(9) 0.0134(9) -0.0268(9)
C3 0.0768(12) 0.0623(10) 0.0639(11) -0.0362(9) 0.0231(9) -0.0395(10)
C4 0.0923(16) 0.0832(14) 0.0925(16) -0.0579(13) 0.0332(13) -0.0423(13)
C5 0.130(2) 0.128(2) 0.103(2) -0.088(2) 0.0622(19) -0.077(2)
C6 0.149(3) 0.139(3) 0.0667(14) -0.0620(17) 0.0403(16) -0.099(2)
C7 0.113(2) 0.1094(19) 0.0626(13) -0.0381(13) 0.0134(13) -0.0584(17)
C8 0.0829(14) 0.0794(13) 0.0617(11) -0.0363(10) 0.0164(10) -0.0370(11)
C9 0.0482(9) 0.0626(10) 0.0403(8) -0.0222(7) 0.0076(6) -0.0237(8)
C10 0.0424(8) 0.0533(9) 0.0449(8) -0.0242(7) 0.0076(6) -0.0166(7)
C11 0.0495(9) 0.0569(9) 0.0456(8) -0.0243(7) 0.0048(7) -0.0164(7)
C12 0.0450(9) 0.0737(12) 0.0664(11) -0.0365(9) 0.0019(8) -0.0209(8)
C13 0.0528(10) 0.0690(12) 0.0827(14) -0.0280(10) 0.0116(9) -0.0300(9)
C14 0.0650(12) 0.0764(13) 0.0694(13) -0.0026(10) 0.0010(10) -0.0357(10)
C15 0.0521(10) 0.0752(12) 0.0581(11) -0.0099(9) -0.0065(8) -0.0273(9)
C16 0.0468(9) 0.0678(11) 0.0537(9) -0.0268(8) 0.0104(7) -0.0252(8)
C17 0.0810(15) 0.0888(16) 0.119(2) -0.0660(16) 0.0429(14) -0.0285(13)
O1 0.0625(7) 0.0659(8) 0.0449(6) -0.0187(6) 0.0099(5) -0.0291(6)
O2 0.0766(10) 0.0864(11) 0.0774(10) -0.0330(9) 0.0046(8) -0.0062(9)
O3 0.0521(8) 0.1425(17) 0.0900(12) -0.0628(12) -0.0086(8) -0.0052(9)
O4 0.0673(9) 0.0877(10) 0.0795(10) -0.0545(8) 0.0145(7) -0.0204(7)
loop_
_atom_type_symbol
_atom_type_description
_atom_type_scat_dispersion_real
_atom_type_scat_dispersion_imag
_atom_type_scat_source
C C 0.0181 0.0091 'International Tables Vol C Tables 4.2.6.8 and 6.1.1.4'
H H 0.0000 0.0000 'International Tables Vol C Tables 4.2.6.8 and 6.1.1.4'
O O 0.0492 0.0322 'International Tables Vol C Tables 4.2.6.8 and 6.1.1.4'
loop_
_geom_angle_atom_site_label_1
_geom_angle_atom_site_label_2
_geom_angle_atom_site_label_3
_geom_angle
C2 C1 H1 116.1
C9 C1 H1 116.1
C9 C1 C2 120.68(15)
O1 C1 H1 116.1
O1 C1 C2 116.74(15)
O1 C1 C9 59.09(10)
C3 C2 C1 116.81(17)
O2 C2 C1 120.64(18)
O2 C2 C3 122.55(19)
C4 C3 C2 118.8(2)
C8 C3 C2 122.21(19)
C8 C3 C4 119.0(2)
C3 C4 H4 120.0
C5 C4 C3 119.9(3)
C5 C4 H4 120.0
C4 C5 H5 119.7
C6 C5 C4 120.6(3)
C6 C5 H5 119.7
C5 C6 H6 119.8
C5 C6 C7 120.3(2)
C7 C6 H6 119.8
C6 C7 H7 120.3
C6 C7 C8 119.5(3)
C8 C7 H7 120.3
C3 C8 H8 119.6
C7 C8 C3 120.8(2)
C7 C8 H8 119.6
C1 C9 C10 122.82(14)
C1 C9 C16 117.01(14)
C10 C9 C16 114.18(14)
O1 C9 C1 59.23(11)
O1 C9 C10 116.69(13)
O1 C9 C16 115.57(13)
C11 C10 C9 120.51(15)
C11 C10 C15 119.13(15)
C15 C10 C9 120.33(14)
C10 C11 H11 119.8
C12 C11 C10 120.36(16)
C12 C11 H11 119.8
C11 C12 H12 119.9
C13 C12 C11 120.28(16)
C13 C12 H12 119.9
C12 C13 H13 120.2
C12 C13 C14 119.69(18)
C14 C13 H13 120.2
C13 C14 H14 119.8
C13 C14 C15 120.37(18)
C15 C14 H14 119.8
C10 C15 H15 119.9
C14 C15 C10 120.14(17)
C14 C15 H15 119.9
O3 C16 C9 123.39(17)
O3 C16 O4 125.43(18)
O4 C16 C9 111.16(15)
H17A C17 H17B 109.5
H17A C17 H17C 109.5
H17B C17 H17C 109.5
O4 C17 H17A 109.5
O4 C17 H17B 109.5
O4 C17 H17C 109.5
C9 O1 C1 61.68(11)
C16 O4 C17 116.45(18)
loop_
_geom_bond_atom_site_label_1
_geom_bond_atom_site_label_2
_geom_bond_distance
C1 H1 0.9800
C1 C2 1.500(3)
C1 C9 1.465(2)
C1 O1 1.430(2)
C2 C3 1.483(3)
C2 O2 1.206(2)
C3 C4 1.390(3)
C3 C8 1.381(3)
C4 H4 0.9300
C4 C5 1.372(4)
C5 H5 0.9300
C5 C6 1.370(5)
C6 H6 0.9300
C6 C7 1.374(4)
C7 H7 0.9300
C7 C8 1.380(3)
C8 H8 0.9300
C9 C10 1.499(2)
C9 C16 1.512(2)
C9 O1 1.428(2)
C10 C11 1.376(2)
C10 C15 1.380(2)
C11 H11 0.9300
C11 C12 1.376(3)
C12 H12 0.9300
C12 C13 1.368(3)
C13 H13 0.9300
C13 C14 1.371(3)
C14 H14 0.9300
C14 C15 1.374(3)
C15 H15 0.9300
C16 O3 1.176(2)
C16 O4 1.308(2)
C17 H17A 0.9600
C17 H17B 0.9600
C17 H17C 0.9600
C17 O4 1.453(3)
loop_
_geom_torsion_atom_site_label_1
_geom_torsion_atom_site_label_2
_geom_torsion_atom_site_label_3
_geom_torsion_atom_site_label_4
_geom_torsion
C1 C2 C3 C4 172.70(16)
C1 C2 C3 C8 -8.6(3)
C1 C9 C10 C11 88.8(2)
C1 C9 C10 C15 -92.9(2)
C1 C9 C16 O3 53.8(3)
C1 C9 C16 O4 -127.61(17)
C2 C1 C9 C10 1.0(2)
C2 C1 C9 C16 -150.17(16)
C2 C1 C9 O1 104.74(18)
C2 C1 O1 C9 -111.37(16)
C2 C3 C4 C5 -180.0(2)
C2 C3 C8 C7 -179.40(19)
C3 C4 C5 C6 -1.0(4)
C4 C3 C8 C7 -0.7(3)
C4 C5 C6 C7 0.1(4)
C5 C6 C7 C8 0.5(4)
C6 C7 C8 C3 -0.2(4)
C8 C3 C4 C5 1.3(3)
C9 C1 C2 C3 97.0(2)
C9 C1 C2 O2 -83.3(2)
C9 C10 C11 C12 178.05(15)
C9 C10 C15 C14 -177.3(2)
C9 C16 O4 C17 -177.19(17)
C10 C9 C16 O3 -99.8(2)
C10 C9 C16 O4 78.79(18)
C10 C9 O1 C1 114.00(17)
C10 C11 C12 C13 -0.9(3)
C11 C10 C15 C14 1.0(3)
C11 C12 C13 C14 1.4(3)
C12 C13 C14 C15 -0.7(4)
C13 C14 C15 C10 -0.5(4)
C15 C10 C11 C12 -0.3(3)
C16 C9 C10 C11 -119.35(17)
C16 C9 C10 C15 58.9(2)
C16 C9 O1 C1 -107.52(16)
O1 C1 C2 C3 165.32(14)
O1 C1 C2 O2 -15.0(3)
O1 C1 C9 C10 -103.77(16)
O1 C1 C9 C16 105.09(15)
O1 C9 C10 C11 19.7(2)
O1 C9 C10 C15 -162.01(16)
O1 C9 C16 O3 120.6(2)
O1 C9 C16 O4 -60.7(2)
O2 C2 C3 C4 -7.0(3)
O2 C2 C3 C8 171.7(2)
O3 C16 O4 C17 1.4(3)
