#------------------------------------------------------------------------------
#$Date: 2017-03-04 10:07:37 +0200 (Sat, 04 Mar 2017) $
#$Revision: 193274 $
#$URL: file:///home/coder/svn-repositories/cod/cif/4/03/22/4032291.cif $
#------------------------------------------------------------------------------
#
# This file is available in the Crystallography Open Database (COD),
# http://www.crystallography.net/
#
# All data on this site have been placed in the public domain by the
# contributors.
#
data_4032291
loop_
_publ_author_name
'Huang, Changfeng'
'Li, Shuangjiang'
'Thakellapalli, Haresh'
'Farajidizaji, Behzad'
'Huang, Yiwei'
'Akhmedov, Novruz G.'
'Popp, Brian V.'
'Petersen, Jeffrey L.'
'Wang, Kung K.'
_publ_section_title
;
 Synthesis of Partially Hydrogenated Cycloparaphenylenes with Bent and
 Fused Structures Bearing Armchair Carbon Nanotube-like Connections.
;
_journal_issue                   2
_journal_name_full               'The Journal of organic chemistry'
_journal_page_first              1166
_journal_page_last               1174
_journal_paper_doi               10.1021/acs.joc.6b02789
_journal_volume                  82
_journal_year                    2017
_chemical_formula_sum            'C40 H30 Br4 O2'
_chemical_formula_weight         862.28
_space_group_crystal_system      triclinic
_space_group_IT_number           2
_space_group_name_Hall           '-P 1'
_space_group_name_H-M_alt        'P -1'
_symmetry_space_group_name_Hall  '-P 1'
_symmetry_space_group_name_H-M   'P -1'
_atom_sites_solution_hydrogens   geom
_cell_angle_alpha                113.5216(14)
_cell_angle_beta                 102.0238(15)
_cell_angle_gamma                94.4772(16)
_cell_formula_units_Z            1
_cell_length_a                   9.5245(5)
_cell_length_b                   9.7842(5)
_cell_length_c                   10.2374(5)
_cell_measurement_reflns_used    7506
_cell_measurement_temperature    296.(2)
_cell_measurement_theta_max      30.1372
_cell_measurement_theta_min      2.9025
_cell_volume                     841.62(8)
_computing_cell_refinement       'SAINT V8.34A (Bruker AXS Inc., 2013)'
_computing_data_reduction        'SAINT V8.34A (Bruker AXS Inc., 2013)'
_computing_structure_refinement  'SHELXL-2014 (Sheldrick, 2014)'
_diffrn_ambient_temperature      296.(2)
_diffrn_detector_area_resol_mean 10.4167
_diffrn_measured_fraction_theta_full 0.991
_diffrn_measured_fraction_theta_max 0.991
_diffrn_measurement_device_type  'Bruker AXS D8 Venture fixed chi'
_diffrn_measurement_method       'omega scans'
_diffrn_radiation_monochromator  Triumph
_diffrn_radiation_type           'Mo K\a'
_diffrn_radiation_wavelength     0.71073
_diffrn_reflns_av_R_equivalents  0.0405
_diffrn_reflns_av_unetI/netI     0.0363
_diffrn_reflns_limit_h_max       12
_diffrn_reflns_limit_h_min       -12
_diffrn_reflns_limit_k_max       12
_diffrn_reflns_limit_k_min       -12
_diffrn_reflns_limit_l_max       13
_diffrn_reflns_limit_l_min       -13
_diffrn_reflns_number            15495
_diffrn_reflns_theta_full        27.50
_diffrn_reflns_theta_max         27.50
_diffrn_reflns_theta_min         3.18
_exptl_absorpt_coefficient_mu    4.817
_exptl_absorpt_correction_T_max  0.51
_exptl_absorpt_correction_T_min  0.19
_exptl_absorpt_correction_type   numerical
_exptl_absorpt_process_details   'SADABS V2014/3 (Bruker AXS Inc.)'
_exptl_crystal_colour            colourless
_exptl_crystal_density_diffrn    1.701
_exptl_crystal_density_method    'not measured'
_exptl_crystal_description       parallelopiped
_exptl_crystal_F_000             426
_exptl_crystal_size_max          0.428
_exptl_crystal_size_mid          0.220
_exptl_crystal_size_min          0.164
_refine_diff_density_max         1.223
_refine_diff_density_min         -0.957
_refine_ls_extinction_method     none
_refine_ls_goodness_of_fit_ref   1.021
_refine_ls_hydrogen_treatment    riding
_refine_ls_matrix_type           full
_refine_ls_number_parameters     209
_refine_ls_number_reflns         3829
_refine_ls_number_restraints     0
_refine_ls_restrained_S_all      1.021
_refine_ls_R_factor_all          0.0797
_refine_ls_R_factor_gt           0.0471
_refine_ls_shift/su_max          0.000
_refine_ls_shift/su_mean         0.000
_refine_ls_structure_factor_coef Fsqd
_refine_ls_weighting_details
'w=1/[\s^2^(Fo^2^)+(0.0264P)^2^+1.9344P] where P=(Fo^2^+2Fc^2^)/3'
_refine_ls_weighting_scheme      calc
_refine_ls_wR_factor_gt          0.0927
_refine_ls_wR_factor_ref         0.1073
_reflns_number_gt                2629
_reflns_number_total             3829
_reflns_threshold_expression     'I > 2\s(I)'
_cod_data_source_file            jo6b02789_si_001.cif
_cod_data_source_block           compound_6
_cod_original_cell_volume        841.62(7)
_cod_database_code               4032291
_shelx_res_file
;
TITL kw5cms in P1
CELL 0.71073   9.52450   9.78420  10.23740 113.5216 102.0238  94.4772
ZERR    1.00   0.00050   0.00050   0.00050   0.0014   0.0015   0.0016
LATT 1
SFAC C  H  O  Br
UNIT 40  30  2  4
OMIT -3 55
L.S. 10
ACTA
BOND
FMAP 2
PLAN 10
SIZE 0.164 0.220 0.428
TEMP 23
WGHT    0.026400    1.934400
FVAR       0.20713
MOLE 1
BR1   4    0.129332    0.265684    0.673025    11.00000    0.14174    0.08771 =
         0.05729    0.05005    0.04638    0.03690
BR2   4    0.468229    0.990568    0.802932    11.00000    0.08489    0.06637 =
         0.03087    0.01035    0.00550   -0.00218
O1    3   -0.153180    0.235587   -0.026356    11.00000    0.04988    0.02757 =
         0.03551    0.01433    0.00697   -0.00091
C1    1   -0.077290    0.370025   -0.011956    11.00000    0.04052    0.02096 =
         0.02152    0.00728    0.00691    0.00271
C2    1    0.073485    0.402068    0.046015    11.00000    0.03964    0.02441 =
         0.02090    0.00939    0.00746    0.00915
C3    1    0.150401    0.285014    0.079227    11.00000    0.04782    0.01959 =
         0.02193    0.00620    0.00308    0.01262
AFIX  13
H3    2    0.103400    0.185599   -0.000732    11.00000   -1.20000
AFIX   0
C4    1    0.307639    0.307377    0.078476    11.00000    0.05252    0.04427 =
         0.02943    0.01416    0.01587    0.02977
AFIX  43
H4    2    0.355517    0.225150    0.062206    11.00000   -1.20000
AFIX   0
C5    1    0.381334    0.436567    0.099513    11.00000    0.04242    0.05535 =
         0.03736    0.02114    0.01709    0.02056
AFIX  43
H5    2    0.478089    0.441049    0.095280    11.00000   -1.20000
AFIX   0
C6    1    0.316608    0.577215    0.130052    11.00000    0.03378    0.03548 =
         0.02812    0.01318    0.00828    0.00781
AFIX  13
H6    2    0.358839    0.632867    0.082119    11.00000   -1.20000
AFIX   0
C7    1    0.152498    0.536109    0.061412    11.00000    0.03583    0.02917 =
         0.01851    0.00829    0.00807    0.00748
C8    1    0.138637    0.279168    0.224120    11.00000    0.03923    0.02919 =
         0.03090    0.01542    0.00642    0.01296
C9    1    0.118094    0.142697    0.233377    11.00000    0.06822    0.02682 =
         0.03673    0.01321    0.00627    0.01265
AFIX  43
H9    2    0.108512    0.053076    0.149852    11.00000   -1.20000
AFIX   0
C10   1    0.111459    0.136590    0.364832    11.00000    0.08096    0.04016 =
         0.05626    0.03340    0.01866    0.01506
AFIX  43
H10   2    0.095665    0.043724    0.369287    11.00000   -1.20000
AFIX   0
C11   1    0.128491    0.269378    0.488555    11.00000    0.05971    0.05305 =
         0.03744    0.02666    0.01727    0.02004
C12   1    0.148658    0.405769    0.482356    11.00000    0.05524    0.03740 =
         0.03634    0.01438    0.01250    0.01371
AFIX  43
H12   2    0.160482    0.495065    0.566834    11.00000   -1.20000
AFIX   0
C13   1    0.151476    0.410868    0.349740    11.00000    0.05183    0.02905 =
         0.03389    0.01709    0.01168    0.01310
AFIX  43
H13   2    0.162127    0.503925    0.344958    11.00000   -1.20000
AFIX   0
C14   1    0.356329    0.681409    0.297236    11.00000    0.03051    0.03550 =
         0.03155    0.01545    0.00599    0.00196
C15   1    0.458652    0.654061    0.396492    11.00000    0.05414    0.07331 =
         0.04246    0.01428   -0.00024    0.03259
AFIX  43
H15   2    0.506413    0.572727    0.361680    11.00000   -1.20000
AFIX   0
C16   1    0.492141    0.744725    0.546856    11.00000    0.05816    0.07950 =
         0.04190    0.01969   -0.00858    0.01887
AFIX  43
H16   2    0.560603    0.723725    0.612288    11.00000   -1.20000
AFIX   0
C17   1    0.423896    0.864380    0.597394    11.00000    0.04589    0.04404 =
         0.02923    0.01250    0.00363   -0.00476
C18   1    0.323833    0.894623    0.502584    11.00000    0.10147    0.06730 =
         0.03652    0.00712    0.00335    0.05081
AFIX  43
H18   2    0.277032    0.976655    0.537863    11.00000   -1.20000
AFIX   0
C19   1    0.291273    0.802642    0.352305    11.00000    0.08599    0.06334 =
         0.03377    0.01281   -0.00023    0.04036
AFIX  43
H19   2    0.222989    0.824804    0.287685    11.00000   -1.20000
AFIX   0
C20   1   -0.214716    0.249945    0.093874    11.00000    0.04886    0.06281 =
         0.04981    0.03832    0.00848   -0.00326
AFIX 137
H20A  2   -0.140954    0.302738    0.185442    11.00000   -1.50000
H20B  2   -0.251210    0.151008    0.083833    11.00000   -1.50000
H20C  2   -0.293208    0.305708    0.092889    11.00000   -1.50000
AFIX   0
HKLF 4

REM  kw5cms in P1
REM R1 =  0.0471 for    2629 Fo > 4sig(Fo)  and  0.0797 for all    3829 data
REM    209 parameters refined using      0 restraints

END

WGHT      0.0264      1.9340

REM Highest difference peak  1.223,  deepest hole -0.957,  1-sigma level  0.078
Q1    1   0.3955  1.0472  0.7934  11.00000  0.05    1.22
Q2    1   0.0882  0.2029  0.5949  11.00000  0.05    0.55
Q3    1   0.2194  0.3011  0.6840  11.00000  0.05    0.49
Q4    1   0.1094  0.1977  0.7014  11.00000  0.05    0.40
Q5    1   0.4156  0.9047  0.7890  11.00000  0.05    0.38
Q6    1   0.5064  0.8423  0.5414  11.00000  0.05    0.37
Q7    1   0.5258  1.0214  0.7542  11.00000  0.05    0.32
Q8    1   0.1098  0.4776  0.0954  11.00000  0.05    0.29
Q9    1   0.3271  0.6190  0.2215  11.00000  0.05    0.28
Q10   1   0.0610  0.2914  0.6249  11.00000  0.05    0.27
;
_shelx_res_checksum              11490
_shelx_hkl_file
;
  -2   0   0   36.38    1.43
  -2   0   0   34.43    1.44
  -2   0   0   33.69    1.45
   2   0   0   34.93    1.46
   2   0   0   35.89    1.45
   2   0   0   33.82    1.43
   2   0   0   36.42    1.44
  -3   0   0  538.89   21.99
  -3   0   0  579.26   21.98
  -3   0   0  550.46   22.05
  -3   0   0  526.27   22.05
   3   0   0  532.01   22.10
   3   0   0  549.59   21.98
   3   0   0  537.62   22.07
   3   0   0  552.00   21.96
  -4   0   0  139.77    5.75
  -4   0   0  144.07    5.78
  -4   0   0  148.14    5.74
  -4   0   0  135.59    5.77
   4   0   0  145.73    5.76
   4   0   0  140.20    5.74
   4   0   0  144.59    5.76
  -5   0   0  129.05    5.19
  -5   0   0  134.12    5.18
  -5   0   0  126.35    5.23
   5   0   0  129.81    5.21
   5   0   0  119.27    5.23
   5   0   0  134.56    5.20
   5   0   0  124.89    5.17
  -6   0   0   27.96    1.38
  -6   0   0   28.84    1.30
  -6   0   0   33.22    1.29
   6   0   0   30.11    1.32
   6   0   0   28.81    1.27
   6   0   0   31.77    1.33
   6   0   0   28.71    1.43
  -7   0   0    7.67    0.57
  -7   0   0    6.59    0.74
   7   0   0    7.69    0.59
   7   0   0    7.64    0.85
   7   0   0    6.81    0.60
   7   0   0    9.73    0.66
  -8   0   0    1.38    0.46
  -8   0   0    2.17    0.36
   8   0   0    2.21    0.30
   8   0   0    1.90    0.53
  -9   0   0    0.50    0.34
  -9   0   0    0.31    0.36
   9   0   0   -0.17    0.60
   9   0   0   -0.04    0.29
 -10   0   0    1.43    0.42
 -10   0   0    0.44    0.55
  10   0   0    1.24    0.34
  10   0   0    0.71    0.68
 -11   0   0   -1.33    0.60
 -11   0   0    0.00    0.47
  11   0   0   -0.15    0.75
 -12   0   0   -0.52    0.80
  12   0   0   -0.43    0.83
  13   0   0    0.10    0.95
  13  -1   0    0.54    0.91
 -13   1   0    0.36    0.81
  12  -1   0    0.21    0.79
 -12   1   0   -0.63    0.68
  11  -1   0    0.10    0.67
  11  -1   0    0.65    0.41
 -11   1   0    0.27    0.42
 -11   1   0   -0.48    0.62
  10  -1   0    1.59    0.39
  10  -1   0    1.16    0.64
 -10   1   0    1.28    0.59
 -10   1   0    1.88    0.38
   9  -1   0    4.08    0.55
   9  -1   0    3.89    0.65
  -9   1   0    4.53    0.52
  -9   1   0    3.40    0.57
   8  -1   0    2.04    0.54
   8  -1   0    2.24    0.33
  -8   1   0    1.81    0.51
  -8   1   0    2.51    0.32
  -8   1   0    3.37    0.48
   7  -1   0   15.69    0.91
   7  -1   0   14.32    0.78
   7  -1   0   13.35    0.99
   7  -1   0   17.99    0.86
  -7   1   0   12.93    0.93
  -7   1   0   16.78    0.77
   6  -1   0   28.62    1.28
   6  -1   0   27.39    1.27
   6  -1   0   31.80    1.26
   6  -1   0   26.68    1.36
  -6   1   0   27.00    1.33
  -6   1   0   28.15    1.21
  -6   1   0   29.25    1.41
  -6   1   0   28.23    1.22
   5  -1   0  100.01    4.06
   5  -1   0   99.40    4.03
   5  -1   0  103.59    4.03
   5  -1   0   94.25    4.08
  -5   1   0   97.68    4.02
  -5   1   0   97.05    4.08
  -5   1   0   99.11    4.07
  -5   1   0  104.14    4.03
   4  -1   0   94.24    3.89
   4  -1   0   91.77    3.90
   4  -1   0   99.93    3.92
  -4   1   0   96.69    3.88
  -4   1   0   94.25    3.92
  -4   1   0   97.58    3.92
  -4   1   0   98.12    3.89
   3  -1   0   25.87    1.08
   3  -1   0   24.03    1.09
   3  -1   0   24.44    1.05
   3  -1   0   25.64    1.04
  -3   1   0   25.87    1.08
  -3   1   0   25.63    1.10
  -3   1   0   25.06    1.03
  -3   1   0   24.41    1.05
   2  -1   0  992.43   38.75
   2  -1   0  936.02   38.78
  -2   1   0 1000.00   38.81
  -2   1   0  921.73   38.86
  -2   1   0  969.20   38.74
  -1  -1   0  480.47   19.95
  -1  -1   0  518.83   19.90
   1   1   0  481.17   19.94
   1   1   0  498.49   19.88
  -2  -1   0   95.51    3.99
  -2  -1   0   98.94    4.00
  -2  -1   0  102.91    3.98
  -2  -1   0  103.62    3.98
   2   1   0   96.52    3.97
   2   1   0   97.74    3.97
   2   1   0   99.22    3.99
   2   1   0   94.41    4.00
  -3  -1   0  198.67    7.69
  -3  -1   0  190.97    7.70
  -3  -1   0  181.91    7.68
  -3  -1   0  198.68    7.67
   3   1   0  186.59    7.70
   3   1   0  192.84    7.68
   3   1   0  182.33    7.67
   3   1   0  193.99    7.69
  -4  -1   0   62.97    2.59
  -4  -1   0   61.03    2.58
  -4  -1   0   62.26    2.56
   4   1   0   61.62    2.60
   4   1   0   62.39    2.54
   4   1   0   64.22    2.56
   4   1   0   61.09    2.52
  -5  -1   0   11.88    0.65
  -5  -1   0   12.53    0.76
  -5  -1   0   13.70    0.60
  -5  -1   0   10.53    0.71
   5   1   0   12.12    0.62
   5   1   0   11.30    0.56
   5   1   0   13.00    0.67
   5   1   0   12.81    0.80
  -6  -1   0   16.28    0.70
  -6  -1   0   13.57    0.77
  -6  -1   0   11.95    0.85
   6   1   0   14.18    0.72
   6   1   0   14.29    0.94
   6   1   0   12.84    0.66
   6   1   0   15.12    0.81
  -7  -1   0    4.11    0.52
  -7  -1   0    4.89    0.57
   7   1   0    4.23    0.40
   7   1   0    5.91    0.81
   7   1   0    4.84    0.48
   7   1   0    5.14    0.83
  -8  -1   0    1.62    0.39
  -8  -1   0    0.33    0.46
   8   1   0    1.10    0.33
   8   1   0    1.12    0.58
  -9  -1   0    0.36    0.40
   9   1   0    0.70    0.62
   9   1   0    0.09    0.27
 -10  -1   0   -0.16    0.45
  10   1   0    0.05    0.68
  10   1   0    0.08    0.30
 -11  -1   0   -0.95    0.64
 -11  -1   0    0.71    0.54
  11   1   0   -0.06    0.77
 -12  -1   0   -0.17    0.64
  12   1   0    0.21    0.88
  13  -2   0    0.79    0.90
 -13   2   0   -1.10    0.76
  12  -2   0    0.43    0.81
 -12   2   0   -0.46    0.71
  11  -2   0    0.73    0.45
  11  -2   0    0.92    0.70
  10  -2   0    0.01    0.39
  10  -2   0    0.49    0.64
 -10   2   0   -0.46    0.59
   9  -2   0    0.80    0.58
   8  -2   0   14.11    0.97
   8  -2   0   14.49    0.82
  -8   2   0   15.55    1.04
  -8   2   0   14.96    0.72
   7  -2   0   12.35    0.72
   7  -2   0   11.54    0.90
  -7   2   0   13.74    0.69
  -7   2   0   12.64    0.62
  -7   2   0   13.49    0.93
   6  -2   0    0.60    0.26
   6  -2   0    0.96    0.37
   6  -2   0    0.64    0.33
  -6   2   0    0.92    0.16
  -6   2   0    0.96    0.40
  -6   2   0    0.90    0.23
   5  -2   0    9.59    0.59
   5  -2   0    8.91    0.52
   5  -2   0    7.95    0.60
  -5   2   0    8.81    0.42
  -5   2   0    9.52    0.66
  -5   2   0    8.93    0.50
  -5   2   0   10.23    0.58
   4  -2   0  197.18    8.77
   4  -2   0  235.19    8.74
   4  -2   0  212.99    8.76
   4  -2   0  221.74    8.78
  -4   2   0  230.25    8.78
  -4   2   0  197.61    8.81
  -4   2   0  216.06    8.75
  -4   2   0  229.23    8.76
   3  -2   0   14.85    0.69
   3  -2   0   15.38    0.72
   3  -2   0   14.36    0.71
  -3   2   0   15.73    0.72
  -3   2   0   15.82    0.69
  -3   2   0   15.19    0.73
   2  -2   0  150.55    6.18
   2  -2   0  153.97    6.19
   2  -2   0  147.59    6.18
  -2   2   0  157.34    6.18
  -2   2   0  153.28    6.19
  -2   2   0  158.18    6.19
   1  -2   0  719.69   26.68
   1  -2   0  631.95   26.44
   1  -2   0  636.92   26.37
   1  -2   0  655.39   26.44
  -1   2   0  673.92   26.38
  -1   2   0  645.75   26.42
  -1   2   0  652.14   26.45
  -1   2   0  634.71   26.43
   0  -2   0  109.46    4.63
   0  -2   0  114.20    4.62
   0  -2   0  116.00    4.64
   0   2   0  116.06    4.63
   0   2   0  114.98    4.63
   0   2   0  116.08    4.63
   0   2   0  115.75    4.62
  -1  -2   0  193.67    7.80
  -1  -2   0  199.92    7.80
  -1  -2   0  197.45    7.82
  -1  -2   0  184.11    7.80
   1   2   0  193.41    7.80
   1   2   0  190.44    7.80
   1   2   0  192.80    7.83
   1   2   0  198.61    7.80
  -2  -2   0  154.50    6.10
  -2  -2   0  147.81    6.09
  -2  -2   0  143.88    6.07
  -2  -2   0  154.22    6.07
   2   2   0  148.08    6.10
   2   2   0  157.55    6.09
   2   2   0  150.87    6.07
   2   2   0  149.81    6.06
  -3  -2   0    4.91    0.33
  -3  -2   0    5.01    0.33
  -3  -2   0    4.40    0.43
   3   2   0    4.73    0.49
   3   2   0    4.72    0.37
   3   2   0    5.17    0.29
   3   2   0    4.91    0.30
  -4  -2   0   56.75    2.25
  -4  -2   0   54.05    2.26
  -4  -2   0   54.07    2.28
  -4  -2   0   48.13    2.32
   4   2   0   57.50    2.27
   4   2   0   53.17    2.29
   4   2   0   54.33    2.21
   4   2   0   54.03    2.20
  -5  -2   0    0.10    0.28
  -5  -2   0    0.09    0.36
   5   2   0    0.43    0.32
   5   2   0    0.28    0.37
   5   2   0    0.15    0.20
   5   2   0    0.09    0.16
  -6  -2   0    1.10    0.36
   6   2   0    0.80    0.25
   6   2   0    0.57    0.19
   6   2   0    0.99    0.51
  -7  -2   0    1.78    0.43
   7   2   0    1.90    0.56
   7   2   0    1.76    0.23
   7   2   0    2.21    0.30
  -8  -2   0   -0.04    0.42
  -8  -2   0    1.42    0.40
   8   2   0    0.48    0.57
  -9  -2   0    0.21    0.46
   9   2   0   -0.37    0.63
   9   2   0   -0.36    0.31
 -10  -2   0    0.05    0.52
 -10  -2   0   -1.05    0.52
  10   2   0   -0.32    0.78
 -11  -2   0    0.46    0.59
  11   2   0   -0.42    0.81
 -12  -2   0   -0.48    0.69
  12   2   0    0.67    0.97
  13  -3   0   -0.07    0.84
 -13   3   0   -0.71    0.79
  12  -3   0   -0.08    0.80
 -12   3   0   -0.35    0.52
 -12   3   0   -0.72    0.75
  11  -3   0    0.14    0.72
 -11   3   0   -0.52    0.69
  10  -3   0    4.48    0.72
  10  -3   0    4.46    0.72
 -10   3   0    3.09    0.66
   9  -3   0    0.18    0.20
   9  -3   0    0.00    0.54
   9  -3   0    0.21    0.38
  -9   3   0   -0.36    0.54
   8  -3   0   -0.12    0.49
   8  -3   0    0.33    0.17
   8  -3   0    0.16    0.35
  -8   3   0    0.49    0.54
   7  -3   0    3.38    0.53
   7  -3   0    2.47    0.45
   7  -3   0    3.26    0.23
  -7   3   0    2.97    0.52
   6  -3   0   58.95    2.46
   6  -3   0   57.30    2.50
  -6   3   0   58.47    2.52
  -6   3   0   60.09    2.44
   5  -3   0    1.38    0.32
   5  -3   0    2.02    0.35
   5  -3   0    2.01    0.29
  -5   3   0    2.30    0.36
  -5   3   0    1.70    0.36
  -5   3   0    1.70    0.26
   4  -3   0    5.81    0.46
   4  -3   0    5.70    0.43
   4  -3   0    5.14    0.47
  -4   3   0    5.44    0.53
  -4   3   0    5.89    0.44
  -4   3   0    5.34    0.41
   3  -3   0  143.66    5.91
  -3   3   0  147.49    5.89
  -3   3   0  146.68    5.90
   2  -3   0   31.41    1.37
   2  -3   0   32.99    1.37
   2  -3   0   31.23    1.36
   2  -3   0   32.35    1.32
  -2   3   0   32.56    1.36
  -2   3   0   31.40    1.38
  -2   3   0   33.27    1.37
  -2   3   0   33.53    1.33
   1  -3   0  216.11    8.68
   1  -3   0  212.86    8.68
   1  -3   0  205.64    8.67
  -1   3   0  231.94    8.69
  -1   3   0  214.58    8.68
  -1   3   0  224.78    8.68
  -1   3   0  212.50    8.68
  -1   3   0  207.73    8.70
   0  -3   0  162.72    6.76
   0  -3   0  170.39    6.77
   0   3   0  146.64    6.79
   0   3   0  173.99    6.77
   0   3   0  176.71    6.76
   0   3   0  175.88    6.77
   0   3   0  169.04    6.76
   0   3   0  167.41    6.75
  -1  -3   0   11.05    0.56
  -1  -3   0   10.98    0.58
  -1  -3   0   10.97    0.50
  -1  -3   0   11.45    0.52
   1   3   0   11.38    0.54
   1   3   0   11.60    0.58
   1   3   0   11.26    0.50
   1   3   0   11.18    0.61
  -2  -3   0  136.76    5.38
  -2  -3   0  140.70    5.43
  -2  -3   0  130.10    5.37
   2   3   0  129.23    5.38
   2   3   0  134.94    5.37
   2   3   0  135.85    5.42
   2   3   0  127.34    5.46
  -3  -3   0    5.51    0.45
  -3  -3   0    6.14    0.32
  -3  -3   0    5.59    0.35
  -3  -3   0    5.94    0.51
   3   3   0    5.94    0.44
   3   3   0    6.03    0.52
   3   3   0    6.07    0.40
   3   3   0    6.36    0.32
  -4  -3   0   16.96    0.76
  -4  -3   0   17.57    0.75
  -4  -3   0   15.48    0.87
  -4  -3   0   15.58    0.86
   4   3   0   17.05    0.76
   4   3   0   16.16    0.91
   4   3   0   17.74    0.88
  -5  -3   0   23.00    0.95
  -5  -3   0   20.34    0.93
  -5  -3   0   18.31    1.00
   5   3   0   20.40    1.15
   5   3   0   20.24    0.90
   5   3   0   19.86    0.90
  -6  -3   0    2.06    0.31
  -6  -3   0    2.29    0.44
   6   3   0    2.67    0.37
   6   3   0    2.20    0.32
   6   3   0    2.88    0.57
  -7  -3   0    0.08    0.31
  -7  -3   0    1.20    0.42
   7   3   0    0.73    0.21
   7   3   0    1.15    0.64
   7   3   0    1.11    0.25
  -8  -3   0   -0.17    0.47
   8   3   0    0.07    0.27
   8   3   0   -0.04    0.68
   8   3   0   -0.33    0.20
  -9  -3   0    0.65    0.53
   9   3   0    0.55    0.76
 -10  -3   0   -0.19    0.57
  10   3   0   -0.43    0.82
 -11  -3   0   -0.23    0.66
  11   3   0   -0.09    0.94
 -12  -3   0   -0.04    0.75
  12   3   0   -0.57    0.95
  13  -4   0   -1.68    0.89
 -13   4   0   -0.44    0.81
  12  -4   0   -0.69    0.81
 -12   4   0    0.86    0.57
 -12   4   0   -0.26    0.80
  11  -4   0    0.46    0.72
 -11   4   0    0.28    0.73
 -11   4   0    0.97    0.52
  10  -4   0    1.20    0.48
  10  -4   0    0.46    0.66
 -10   4   0    1.13    0.71
   9  -4   0    1.48    0.58
   9  -4   0    1.59    0.43
  -9   4   0    2.07    0.65
   8  -4   0   22.33    1.28
   8  -4   0   23.49    1.18
  -8   4   0   23.44    1.33
   7  -4   0    3.58    0.59
   7  -4   0    3.06    0.46
  -7   4   0    3.90    0.58
   6  -4   0    2.01    0.35
   6  -4   0    2.14    0.41
  -6   4   0    2.65    0.50
   5  -4   0   36.08    1.58
   5  -4   0   35.20    1.61
  -5   4   0   36.55    1.66
  -5   4   0   37.02    1.57
   4  -4   0    1.13    0.29
   4  -4   0    0.96    0.28
   4  -4   0    1.09    0.27
  -4   4   0    1.02    0.25
  -4   4   0    1.20    0.31
  -4   4   0    1.60    0.36
   3  -4   0  298.27   12.36
   3  -4   0  291.11   12.37
   3  -4   0  312.90   12.38
  -3   4   0  320.72   12.36
  -3   4   0  319.88   12.37
  -3   4   0  311.14   12.36
  -3   4   0  296.26   12.38
   2  -4   0   70.20    2.95
   2  -4   0   70.94    2.91
   2  -4   0   74.10    2.95
  -2   4   0   73.67    2.94
  -2   4   0   67.60    2.93
  -2   4   0   74.90    2.95
  -2   4   0   71.19    2.95
   1  -4   0    1.95    0.26
  -1   4   0    1.16    0.22
  -1   4   0    1.58    0.26
  -1   4   0    1.41    0.22
  -1   4   0    1.31    0.21
  -1   4   0    1.32    0.19
   0  -4   0  189.18    7.94
   0   4   0  206.84    7.95
   0   4   0  197.91    7.93
   0   4   0  194.28    7.94
   0   4   0  190.52    7.93
   0   4   0  198.45    7.96
   0   4   0  202.62    7.94
  -1  -4   0   36.12    1.51
  -1  -4   0   34.63    1.54
   1   4   0   36.48    1.49
   1   4   0   37.56    1.56
   1   4   0   37.73    1.55
   1   4   0   35.32    1.51
   1   4   0   35.71    1.52
   1   4   0   35.65    1.57
  -2  -4   0    0.16    0.28
  -2  -4   0    0.14    0.27
  -2  -4   0    0.17    0.12
  -2  -4   0    0.33    0.17
   2   4   0    0.14    0.14
   2   4   0    0.36    0.19
   2   4   0    0.25    0.31
   2   4   0    0.25    0.25
  -3  -4   0   83.72    3.38
  -3  -4   0   77.78    3.36
  -3  -4   0   79.23    3.27
  -3  -4   0   81.99    3.30
   3   4   0   81.05    3.28
   3   4   0   77.48    3.38
   3   4   0   87.05    3.37
   3   4   0   80.68    3.31
  -4  -4   0    0.84    0.21
  -4  -4   0    1.56    0.26
  -4  -4   0    0.76    0.38
   4   4   0    0.86    0.17
   4   4   0    1.13    0.45
   4   4   0    1.00    0.27
  -5  -4   0    0.44    0.42
  -5  -4   0    0.12    0.20
   5   4   0    0.35    0.49
   5   4   0    0.51    0.23
   5   4   0    0.21    0.22
  -6  -4   0   26.28    1.02
  -6  -4   0   20.70    1.21
  -6  -4   0   21.56    1.00
   6   4   0   22.42    0.99
   6   4   0   22.06    0.99
   6   4   0   21.97    1.36
  -7  -4   0    0.25    0.46
  -7  -4   0    0.21    0.22
   7   4   0    0.63    0.64
   7   4   0    0.17    0.22
   7   4   0    0.20    0.20
  -8  -4   0   -0.19    0.53
   8   4   0   -0.36    0.75
   8   4   0   -0.25    0.19
  -9  -4   0    0.15    0.57
   9   4   0    0.51    0.76
 -10  -4   0    1.92    0.69
  10   4   0    1.92    0.92
 -11  -4   0   -0.76    0.73
  11   4   0    0.33    0.99
 -13   5   0   -0.96    0.89
  12  -5   0   -0.40    0.82
 -12   5   0    1.42    0.60
 -12   5   0    0.25    0.79
  11  -5   0   -0.31    0.71
 -11   5   0    0.58    0.78
 -11   5   0   -0.06    0.56
  10  -5   0   -0.82    0.63
 -10   5   0   -0.14    0.50
 -10   5   0    0.67    0.65
   9  -5   0   -0.28    0.94
  -9   5   0    0.26    0.65
   8  -5   0    0.29    0.50
   8  -5   0    0.35    0.43
  -8   5   0   -0.26    0.52
   7  -5   0   15.69    0.92
   7  -5   0   14.77    0.99
  -7   5   0   15.32    1.10
   6  -5   0    1.02    0.36
   6  -5   0    1.05    0.42
  -6   5   0    1.29    0.47
   5  -5   0   10.97    0.75
   5  -5   0   11.58    0.73
  -5   5   0   11.98    0.87
   4  -5   0   38.94    1.76
   4  -5   0   43.47    1.86
  -4   5   0   40.04    1.81
  -4   5   0   39.02    1.77
  -4   5   0   40.51    1.65
  -4   5   0   41.27    1.64
   3  -5   0    8.06    0.60
   3  -5   0    8.11    0.41
   3  -5   0    9.23    0.59
  -3   5   0    7.43    0.56
  -3   5   0    7.50    0.55
  -3   5   0    7.70    0.47
  -3   5   0    7.94    0.59
  -3   5   0    7.95    0.58
   2  -5   0   73.49    3.19
   2  -5   0   75.73    3.15
  -2   5   0   75.75    3.19
  -2   5   0   74.78    3.19
  -2   5   0   78.80    3.19
  -2   5   0   78.50    3.18
  -2   5   0   81.94    3.16
  -2   5   0   80.17    3.19
   1  -5   0    9.46    0.59
   1  -5   0    9.41    0.53
  -1   5   0    9.69    0.60
  -1   5   0    9.50    0.55
  -1   5   0    9.42    0.59
  -1   5   0    9.99    0.55
  -1   5   0    9.66    0.56
   0  -5   0   11.71    0.65
   0   5   0   11.85    0.66
   0   5   0   12.44    0.66
   0   5   0   12.10    0.61
   0   5   0   12.07    0.63
   0   5   0   12.22    0.61
   0   5   0   12.14    0.68
   0   5   0   11.86    0.72
  -1  -5   0   65.55    2.91
   1   5   0   73.81    2.93
   1   5   0   71.17    2.87
   1   5   0   73.03    2.89
   1   5   0   68.62    2.95
   1   5   0   72.97    2.93
   1   5   0   67.89    2.89
   1   5   0   69.28    2.87
  -2  -5   0   15.26    0.83
   2   5   0   15.10    0.86
   2   5   0   15.85    0.71
   2   5   0   15.70    0.70
   2   5   0   15.88    0.86
   2   5   0   14.93    0.92
  -3  -5   0   30.82    1.40
  -3  -5   0   31.18    1.28
   3   5   0   30.06    1.46
   3   5   0   28.14    1.33
   3   5   0   28.57    1.34
  -4  -5   0   11.95    0.84
  -4  -5   0   12.18    0.62
  -4  -5   0   11.39    0.53
   4   5   0   11.87    0.55
   4   5   0   11.73    0.95
   4   5   0   11.56    0.70
  -5  -5   0    0.60    0.46
  -5  -5   0    0.78    0.15
  -5  -5   0    1.01    0.24
   5   5   0    0.95    0.58
   5   5   0    0.65    0.28
   5   5   0    0.77    0.18
  -6  -5   0    0.09    0.46
  -6  -5   0    0.35    0.23
  -6  -5   0    0.51    0.18
   6   5   0    0.48    0.24
   6   5   0    0.44    0.58
  -7  -5   0    0.39    0.55
  -7  -5   0    0.67    0.21
   7   5   0    0.43    0.22
   7   5   0   -0.03    0.67
  -8  -5   0    1.20    0.62
   8   5   0    1.19    0.79
  -9  -5   0    0.33    0.63
   9   5   0   -1.23    0.83
 -10  -5   0   -0.21    0.69
  10   5   0    1.20    1.02
 -11  -5   0   -0.46    0.76
  11   5   0   -0.65    1.02
  12  -6   0   -0.51    0.84
 -12   6   0   -1.05    0.88
 -12   6   0    0.17    0.65
  11  -6   0    0.22    0.75
 -11   6   0    0.00    0.59
 -11   6   0    0.27    0.74
  10  -6   0   -0.05    0.65
 -10   6   0    0.46    0.76
 -10   6   0    0.33    0.53
   9  -6   0    0.32    0.59
  -9   6   0   -0.07    0.51
  -9   6   0    0.57    0.69
   8  -6   0    1.12    0.51
  -8   6   0    0.56    0.47
  -8   6   0    0.79    0.58
   7  -6   0    1.42    0.53
  -7   6   0    1.59    0.50
  -7   6   0    1.25    0.58
   6  -6   0    7.12    0.73
  -6   6   0    6.92    0.89
  -6   6   0    6.43    0.74
   5  -6   0    1.14    0.44
  -5   6   0    1.22    0.51
  -5   6   0    0.50    0.40
   4  -6   0   53.96    2.31
  -4   6   0   53.21    2.16
  -4   6   0   51.71    2.30
  -4   6   0   53.62    2.29
   3  -6   0    2.58    0.34
   3  -6   0    2.62    0.43
  -3   6   0    2.02    0.40
  -3   6   0    2.45    0.37
  -3   6   0    1.91    0.41
  -3   6   0    3.04    0.44
   2  -6   0    0.51    0.34
  -2   6   0    0.86    0.35
  -2   6   0    0.15    0.32
  -2   6   0    0.40    0.27
  -2   6   0    0.09    0.32
   1  -6   0  163.82    6.93
   1  -6   0  167.29    6.97
  -1   6   0  169.19    6.94
  -1   6   0  179.35    6.94
  -1   6   0  170.73    6.94
  -1   6   0  170.58    6.95
  -1   6   0  177.68    6.94
   0  -6   0    4.04    0.53
   0   6   0    3.98    0.51
   0   6   0    3.91    0.52
   0   6   0    2.86    0.45
   0   6   0    3.53    0.41
   0   6   0    3.21    0.46
  -1  -6   0   19.96    1.04
   1   6   0   20.44    0.93
   1   6   0   20.30    0.93
   1   6   0   19.96    1.08
   1   6   0   21.11    1.00
   1   6   0   21.21    0.98
  -2  -6   0   62.95    2.73
   2   6   0   65.51    2.65
   2   6   0   63.90    2.62
   2   6   0   64.86    2.62
   2   6   0   62.72    2.66
   2   6   0   63.97    2.77
  -3  -6   0    4.84    0.64
   3   6   0    4.42    0.34
   3   6   0    4.11    0.57
   3   6   0    4.87    0.55
   3   6   0    4.06    0.46
   3   6   0    4.66    0.37
  -4  -6   0   13.08    0.91
   4   6   0   13.45    0.72
   4   6   0   13.64    1.01
   4   6   0   13.62    0.61
   4   6   0   13.97    0.81
   4   6   0   13.56    0.62
  -5  -6   0    1.31    0.52
   5   6   0    0.84    0.57
   5   6   0    1.13    0.36
   5   6   0    0.59    0.27
  -6  -6   0    3.32    0.59
   6   6   0    3.93    0.76
  -7  -6   0    0.44    0.58
   7   6   0    0.51    0.77
  -8  -6   0   -0.27    0.61
   8   6   0    0.32    0.88
  -9  -6   0    0.86    0.79
   9   6   0    0.86    1.03
 -10  -6   0   -0.49    0.77
  10   6   0   -0.72    1.10
  12  -7   0   -0.10    0.87
 -12   7   0   -0.80    0.94
 -12   7   0    0.71    0.72
  11  -7   0    0.12    0.71
 -11   7   0    0.91    0.63
 -11   7   0   -0.63    0.79
  10  -7   0    0.20    0.68
 -10   7   0    0.41    0.78
 -10   7   0    0.02    0.61
   9  -7   0    2.67    0.70
  -9   7   0    3.04    0.63
  -9   7   0    2.81    0.78
   8  -7   0    1.73    0.65
  -8   7   0    2.15    0.87
  -8   7   0    1.77    0.71
   7  -7   0    4.31    0.63
  -7   7   0    3.55    0.54
  -7   7   0    4.14    0.71
   6  -7   0   20.65    1.23
  -6   7   0   18.91    1.16
  -6   7   0   18.89    1.26
   5  -7   0    2.40    0.53
  -5   7   0    2.31    0.56
  -5   7   0    1.78    0.48
   4  -7   0    1.75    0.46
  -4   7   0    2.09    0.29
  -4   7   0    1.75    0.24
  -4   7   0    1.62    0.48
  -4   7   0    2.10    0.50
   3  -7   0   69.74    3.05
  -3   7   0   69.65    3.03
  -3   7   0   70.85    3.03
  -3   7   0   75.98    2.96
   2  -7   0    2.09    0.44
   2  -7   0    3.03    0.50
  -2   7   0    1.32    0.45
  -2   7   0    1.70    0.41
  -2   7   0    2.10    0.42
  -2   7   0    2.24    0.35
   1  -7   0   12.41    0.77
  -1   7   0   11.95    0.91
  -1   7   0   11.66    0.74
  -1   7   0   12.48    0.79
  -1   7   0   13.10    0.84
  -1   7   0   13.44    0.78
   0  -7   0   72.03    3.17
   0   7   0   75.36    3.24
   0   7   0   78.67    3.13
   0   7   0   77.89    3.17
   0   7   0   74.96    3.14
  -1  -7   0    0.93    0.42
   1   7   0   -0.18    0.26
   1   7   0    0.16    0.42
   1   7   0   -0.20    0.51
   1   7   0    0.41    0.36
  -2  -7   0   20.12    1.14
   2   7   0   18.62    1.02
   2   7   0   19.86    0.90
   2   7   0   19.07    1.23
   2   7   0   18.97    0.97
   2   7   0   19.70    0.90
  -3  -7   0    3.94    0.57
   3   7   0    3.05    0.35
   3   7   0    2.94    0.37
   3   7   0    3.22    0.64
   3   7   0    3.04    0.41
  -4  -7   0    1.76    0.57
   4   7   0    1.17    0.16
   4   7   0    1.10    0.17
   4   7   0    0.68    0.32
   4   7   0    1.15    0.63
   4   7   0    0.99    0.39
  -5  -7   0    5.44    0.88
   5   7   0    5.38    0.81
   5   7   0    5.38    0.68
  -6  -7   0    0.18    0.57
   6   7   0   -0.17    0.75
   6   7   0   -0.01    0.35
  -7  -7   0    1.52    0.70
   7   7   0    1.34    0.88
  -8  -7   0    0.42    0.75
   8   7   0   -0.14    0.89
  -9  -7   0   -0.77    0.76
   9   7   0   -0.19    1.03
  11  -8   0    0.49    0.86
 -11   8   0    0.91    0.74
 -11   8   0   -0.73    0.94
  10  -8   0   -0.10    0.81
 -10   8   0   -0.01    0.67
 -10   8   0    0.63    0.91
   9  -8   0    2.90    0.74
  -9   8   0    2.49    0.70
  -9   8   0    3.70    0.88
   8  -8   0    4.89    0.78
  -8   8   0    4.33    0.81
  -8   8   0    4.59    0.69
   7  -8   0    1.35    0.64
  -7   8   0    0.25    0.64
  -7   8   0    0.27    0.59
   6  -8   0    6.87    0.90
  -6   8   0    5.97    1.03
  -6   8   0    6.31    0.87
   5  -8   0   35.98    1.76
  -5   8   0   33.33    1.74
  -5   8   0   33.88    1.43
  -5   8   0   34.24    1.69
   4  -8   0    1.22    0.55
  -4   8   0    0.69    0.49
  -4   8   0    0.80    0.53
  -4   8   0    1.38    0.33
   3  -8   0    6.08    0.88
   3  -8   0    6.77    0.60
  -3   8   0    5.93    0.72
  -3   8   0    7.98    0.63
  -3   8   0    5.97    0.83
   2  -8   0   77.70    3.42
   2  -8   0   78.41    3.33
  -2   8   0   81.40    3.35
  -2   8   0   81.18    3.39
  -2   8   0   82.59    3.40
   1  -8   0   21.36    1.10
  -1   8   0   19.57    1.23
  -1   8   0   20.26    1.09
  -1   8   0   20.27    1.13
   0  -8   0   24.18    1.25
   0   8   0   22.93    1.35
   0   8   0   22.93    1.14
   0   8   0   22.45    1.12
   0   8   0   23.81    1.22
  -1  -8   0   16.23    1.02
   1   8   0   14.69    1.14
   1   8   0   14.12    0.80
   1   8   0   14.74    0.81
   1   8   0   13.65    0.94
  -2  -8   0    2.43    0.55
   2   8   0    2.55    0.44
   2   8   0    1.73    0.65
   2   8   0    1.47    0.43
  -3  -8   0   28.17    1.51
   3   8   0   26.26    1.35
   3   8   0   26.49    1.17
   3   8   0   26.34    1.59
  -4  -8   0    1.09    0.63
   4   8   0    0.05    0.71
   4   8   0    0.25    0.43
  -5  -8   0    1.39    0.63
   5   8   0    1.28    0.45
   5   8   0    1.11    0.78
  -6  -8   0    0.77    0.68
   6   8   0   -0.39    0.84
  -7  -8   0   -0.21    0.75
   7   8   0   -0.22    0.96
  -8  -8   0   -0.42    0.86
   8   8   0    0.49    1.03
  11  -9   0    1.07    1.15
 -11   9   0    0.81    0.74
  10  -9   0    1.79    0.91
 -10   9   0    1.07    0.72
 -10   9   0    1.10    0.96
   9  -9   0    1.00    0.84
  -9   9   0    0.68    0.83
  -9   9   0    0.14    0.72
   8  -9   0    2.46    0.78
  -8   9   0    1.24    0.70
  -8   9   0    0.47    0.83
  -7   9   0    4.85    0.71
  -7   9   0    5.81    0.84
   6  -9   0    1.00    0.70
  -6   9   0   -0.52    0.58
  -6   9   0    0.29    0.71
  -5   9   0    0.23    0.25
  -5   9   0   -0.04    0.52
  -5   9   0   -0.15    0.62
   4  -9   0   18.01    1.25
  -4   9   0   15.65    1.07
  -4   9   0   16.50    0.87
  -4   9   0   16.32    1.17
   3  -9   0    0.81    0.61
   3  -9   0    0.57    0.37
  -3   9   0    0.27    0.54
  -3   9   0    1.28    0.49
  -3   9   0    0.81    0.53
   2  -9   0    2.26    0.44
  -2   9   0    0.81    0.51
  -2   9   0    1.22    0.49
  -2   9   0    1.43    0.61
   1  -9   0   21.56    1.19
  -1   9   0   21.13    1.20
  -1   9   0   18.45    1.31
  -1   9   0   19.93    1.14
   0   9   0    0.30    0.49
   0   9   0    0.21    0.60
   0   9   0    0.28    0.40
  -1  -9   0   10.51    0.97
   1   9   0    7.95    1.14
   1   9   0    7.29    0.84
   1   9   0    8.38    0.71
  -2  -9   0    3.36    0.63
   2   9   0    1.71    0.50
   2   9   0    2.95    0.89
   2   9   0    2.83    0.36
  -3  -9   0    1.11    0.61
   3   9   0    0.61    0.50
   3   9   0    0.68    0.72
  -4  -9   0    0.49    0.69
   4   9   0    0.04    0.51
   4   9   0   -0.62    0.80
  -5  -9   0    1.70    0.78
   5   9   0    0.40    0.89
  -6  -9   0    0.66    0.85
   6   9   0   -0.08    0.96
  -7  -9   0   -0.37    0.79
   7   9   0   -0.83    1.02
  10 -10   0    2.54    1.08
 -10  10   0    1.68    1.17
 -10  10   0    0.27    0.76
   9 -10   0    2.55    0.96
  -9  10   0    2.46    0.98
  -9  10   0    1.08    0.81
   8 -10   0    0.97    0.86
  -8  10   0    0.31    0.75
  -8  10   0    0.49    0.90
   7 -10   0    1.41    0.82
  -7  10   0   -0.04    0.79
  -7  10   0    0.78    0.67
   6 -10   0    4.63    0.85
  -6  10   0    3.77    0.79
  -6  10   0    3.50    0.69
   5 -10   0    0.54    0.70
  -5  10   0    0.28    0.65
  -5  10   0   -0.32    0.66
   4 -10   0    4.57    0.80
  -4  10   0    3.56    0.72
  -4  10   0    4.30    0.72
  -4  10   0    4.11    0.62
   3 -10   0    1.33    0.69
   3 -10   0    0.31    0.45
  -3  10   0    0.15    0.58
  -3  10   0    0.32    0.59
   2 -10   0    0.31    0.50
  -2  10   0   -0.13    0.54
  -2  10   0   -0.48    0.66
  -1  10   0    5.50    0.80
  -1  10   0    4.76    0.60
  -1  10   0    5.55    0.92
   0 -10   0    1.92    0.60
   0  10   0    0.58    0.46
   0  10   0    0.85    0.74
   0  10   0    0.88    0.57
  -1 -10   0    1.61    0.83
   1  10   0    0.23    0.41
   1  10   0    0.60    0.55
   1  10   0    0.67    0.74
  -2 -10   0    0.94    0.69
   2  10   0    0.09    0.74
   2  10   0   -0.23    0.54
  -3 -10   0    0.99    0.74
   3  10   0    0.02    0.81
   3  10   0   -0.12    0.56
  -4 -10   0    0.87    0.83
   4  10   0   -0.28    0.88
  -5 -10   0    0.36    0.81
   5  10   0    0.94    0.95
  -6 -10   0   -0.36    0.86
   6  10   0   -0.27    1.09
   8 -11   0    2.56    0.99
  -8  11   0   -0.35    0.95
  -8  11   0    0.46    0.79
   7 -11   0    2.12    0.93
  -7  11   0    1.28    0.91
  -7  11   0    0.01    0.81
   6 -11   0    1.53    0.91
  -6  11   0    0.50    0.83
  -6  11   0    0.49    0.79
   5 -11   0    1.68    0.88
  -5  11   0    0.78    0.69
  -5  11   0    0.43    0.78
   4 -11   0    1.47    0.80
  -4  11   0    0.42    0.68
  -4  11   0    0.45    0.71
  -3  11   0    3.27    0.74
  -3  11   0    1.81    0.75
  -3  11   0    2.36    0.80
  -3  11   0    2.54    0.58
   2 -11   0    1.84    0.63
  -2  11   0    0.07    0.73
  -2  11   0    0.53    0.61
  -2  11   0    0.47    0.66
   1 -11   0    1.31    0.69
  -1  11   0    0.25    0.62
  -1  11   0   -0.37    0.55
  -1  11   0   -0.13    0.80
   0 -11   0    2.21    0.73
   0  11   0    0.84    0.85
   0  11   0    0.09    0.65
  -1 -11   0    2.06    0.77
   1  11   0    0.58    0.84
   1  11   0    0.51    0.65
  -2 -11   0    1.83    0.84
   2  11   0    0.07    0.75
   2  11   0   -0.56    0.89
  -3 -11   0    0.80    0.86
   3  11   0   -0.55    0.97
  -4 -11   0    0.88    0.91
   4  11   0   -0.29    0.98
   6 -12   0    1.98    1.01
  -6  12   0    1.23    0.92
  -6  12   0    0.65    0.81
   5 -12   0    2.93    0.96
  -5  12   0    1.08    0.85
  -5  12   0    2.16    0.88
  -4  12   0    0.09    0.84
  -4  12   0    0.21    0.81
  -4  12   0    0.05    0.79
  -3  12   0    0.29    0.78
  -3  12   0    0.42    0.81
  -3  12   0   -0.63    0.75
  -2  12   0   -0.63    0.85
  -2  12   0    1.52    0.78
   1 -12   0    1.39    0.81
  -1  12   0   -0.07    0.75
  -1  12   0    1.72    0.90
   0 -12   0    1.25    0.87
   0  12   0   -0.01    0.86
   0  12   0    0.68    0.71
  -1 -12   0    2.42    0.95
   1  12   0    0.71    0.77
   1  12   0    0.32    0.99
  -2 -12   0    2.08    0.99
   2  12   0    1.01    1.02
   0  13  -1   -0.05    0.93
   0  13  -1    0.49    0.96
   0  13  -1    0.45    0.79
  -1  13  -1    0.09    0.80
  -1  13  -1    1.50    0.93
  -1  13  -1    0.43    0.87
  -2  13  -1    1.05    0.81
  -2  13  -1   -0.06    0.90
  -3  13  -1    1.26    0.87
  -3  13  -1   -0.17    0.85
  -3  13  -1   -0.72    0.88
  -4  13  -1    2.32    0.85
  -4  13  -1    1.75    0.94
  -4  13  -1    1.15    0.92
   3  12  -1    0.73    0.98
  -3 -12   1    0.65    0.95
   2  12  -1    0.12    0.98
  -2 -12   1    1.55    0.90
   1  12  -1    2.48    0.71
   1  12  -1    2.18    0.96
  -1 -12   1    4.02    0.89
   0  12  -1    0.67    0.89
   0  12  -1   -0.15    0.67
   0 -12   1    1.76    0.79
  -1  12  -1    1.35    0.71
  -1  12  -1    0.48    0.66
  -1  12  -1    0.77    0.73
  -1  12  -1    0.74    0.87
  -2  12  -1    0.75    0.72
  -2  12  -1    1.46    0.68
  -2  12  -1    0.28    0.81
  -2  12  -1    2.17    0.75
  -3  12  -1    0.57    0.77
  -3  12  -1    1.06    0.77
  -3  12  -1   -0.42    0.76
  -4  12  -1   -0.55    0.79
  -4  12  -1    0.09    0.82
  -4  12  -1    0.03    0.73
  -5  12  -1    0.48    0.78
  -5  12  -1   -0.51    0.86
   5 -12   1    2.29    0.92
  -6  12  -1    0.53    0.90
  -6  12  -1    0.07    0.77
   6 -12   1    2.96    0.99
  -7  12  -1   -0.78    0.97
  -7  12  -1    0.18    0.80
   7 -12   1    2.57    0.99
   5  11  -1   -1.16    0.98
  -5 -11   1    1.19    0.92
   4  11  -1   -0.35    0.98
  -4 -11   1    1.66    0.89
   3  11  -1    1.52    0.93
  -3 -11   1    3.09    0.88
   2  11  -1   -0.13    0.58
   2  11  -1    0.26    0.85
   1  11  -1    2.59    0.87
   1  11  -1    2.92    0.66
   1  11  -1    2.68    0.63
  -1 -11   1    4.18    0.76
   0  11  -1    1.98    0.78
   0  11  -1    1.57    0.54
  -1  11  -1    1.29    0.57
  -1  11  -1    1.86    0.64
  -1  11  -1    0.86    0.73
   1 -11   1    2.53    0.63
  -2  11  -1    2.88    0.60
  -2  11  -1    3.06    0.78
  -2  11  -1    3.07    0.65
  -2  11  -1    3.08    0.66
  -3  11  -1    0.17    1.10
  -3  11  -1   -0.04    0.67
  -3  11  -1    0.75    0.65
  -3  11  -1    0.39    0.47
  -4  11  -1   -0.02    0.71
  -4  11  -1    0.30    0.66
   4 -11   1    1.19    0.75
  -5  11  -1    1.38    0.72
  -5  11  -1    1.96    0.80
   5 -11   1    2.00    0.87
  -6  11  -1   -0.13    0.66
  -6  11  -1   -0.22    0.80
   6 -11   1    2.46    0.93
  -7  11  -1    0.01    0.75
  -7  11  -1    0.72    0.89
   7 -11   1    2.83    0.91
  -8  11  -1    0.47    0.98
  -8  11  -1   -0.78    0.72
   8 -11   1    0.54    0.88
  -9  11  -1    0.60    1.08
  -9  11  -1    0.08    0.89
   9 -11   1    0.43    1.02
   7  10  -1   -0.07    1.08
   6  10  -1   -0.17    0.99
  -6 -10   1    0.58    0.81
   5  10  -1    3.62    1.01
  -5 -10   1    5.17    0.90
   4  10  -1    1.38    0.88
  -4 -10   1    1.78    0.76
   3  10  -1    3.10    0.82
   3  10  -1    3.07    0.56
  -3 -10   1    4.50    0.77
   2  10  -1    4.88    0.68
   2  10  -1    5.46    0.85
   2  10  -1    5.45    0.83
  -2 -10   1    8.16    1.06
   1  10  -1    0.01    0.49
   1  10  -1   -0.11    0.41
  -1 -10   1    1.27    0.61
   0  10  -1    2.82    0.58
   0  10  -1    3.52    0.74
   0  10  -1    3.28    0.51
  -1  10  -1   -0.21    0.62
  -1  10  -1    0.96    0.53
  -1  10  -1    0.86    0.49
   1 -10   1    1.73    0.53
  -2  10  -1    1.24    0.65
  -2  10  -1    1.39    0.53
  -2  10  -1    1.30    0.53
  -3  10  -1    0.21    0.39
  -3  10  -1    0.48    0.56
   3 -10   1    2.01    1.26
  -4  10  -1   -0.04    0.60
  -4  10  -1   -0.25    0.58
  -4  10  -1   -0.05    0.34
   4 -10   1    0.17    0.65
  -5  10  -1    0.42    0.71
  -5  10  -1   -0.29    0.62
   5 -10   1    1.51    0.75
  -6  10  -1    0.35    0.73
  -6  10  -1   -0.09    0.64
   6 -10   1    1.59    0.75
  -7  10  -1    0.59    0.69
  -7  10  -1    0.04    0.84
   7 -10   1    1.71    0.84
  -8  10  -1    0.69    0.76
  -8  10  -1    0.60    0.91
   8 -10   1    2.33    0.93
  -9  10  -1   -0.11    0.87
  -9  10  -1    0.27    0.79
   9 -10   1    1.50    0.92
 -10  10  -1   -0.31    0.79
 -10  10  -1   -0.03    1.00
  10 -10   1    3.23    1.00
   8   9  -1   -0.34    1.07
  -8  -9   1    1.31    0.90
   7   9  -1    0.72    0.99
  -7  -9   1    0.91    0.79
   6   9  -1    3.26    0.94
  -6  -9   1    2.86    0.76
   5   9  -1    2.32    0.86
  -5  -9   1    2.47    0.69
   4   9  -1    2.99    1.21
   4   9  -1    3.24    0.49
  -4  -9   1    4.10    0.75
   3   9  -1    1.56    0.70
   3   9  -1    0.87    0.42
   3   9  -1    1.19    0.32
   2   9  -1    7.02    0.63
   2   9  -1    5.42    0.74
   2   9  -1    5.05    0.74
  -2  -9   1    8.12    0.99
   1   9  -1    0.07    0.42
   1   9  -1    0.14    0.59
   1   9  -1   -0.13    0.35
   1   9  -1    0.00    0.36
  -1  -9   1    1.42    0.51
   0   9  -1    3.07    0.50
   0   9  -1    3.81    0.65
   0   9  -1    3.54    0.47
  -1   9  -1   15.96    0.99
  -1   9  -1   16.67    1.02
  -1   9  -1   15.44    1.13
   1  -9   1   17.71    1.02
  -2   9  -1    1.36    0.48
  -2   9  -1    1.95    0.50
   2  -9   1    2.16    0.42
   2  -9   1    2.30    0.56
  -3   9  -1    3.58    0.58
  -3   9  -1    3.92    0.56
  -3   9  -1    3.28    0.56
  -3   9  -1    4.49    0.57
   3  -9   1    4.56    0.64
  -4   9  -1    0.88    0.30
  -4   9  -1    0.79    0.57
  -4   9  -1    0.47    0.52
   4  -9   1    2.26    0.59
  -5   9  -1    1.12    0.93
  -5   9  -1    1.26    0.65
  -5   9  -1    0.95    0.25
   5  -9   1    1.87    0.63
  -6   9  -1    0.06    0.78
  -6   9  -1    0.39    0.58
   6  -9   1    1.37    0.73
  -7   9  -1    0.66    0.57
  -7   9  -1   -0.16    0.73
   7  -9   1    1.72    0.71
  -8   9  -1    1.17    0.82
  -8   9  -1    0.52    0.62
   8  -9   1    2.11    0.75
  -9   9  -1   -0.08    0.68
  -9   9  -1    0.48    0.88
   9  -9   1    1.77    0.83
 -10   9  -1    0.90    0.70
 -10   9  -1    0.52    0.96
  10  -9   1    0.77    0.90
 -11   9  -1   -0.22    0.79
 -11   9  -1    0.36    1.62
  11  -9   1   -0.57    1.14
   9   8  -1    0.01    1.10
  -9  -8   1    1.36    0.87
   8   8  -1   -0.52    0.96
  -8  -8   1    0.20    0.76
   7   8  -1    1.72    0.87
  -7  -8   1    1.81    0.76
   6   8  -1    0.41    0.77
  -6  -8   1    1.57    0.65
   5   8  -1    1.49    0.39
   5   8  -1    1.12    0.69
  -5  -8   1    1.56    0.59
   4   8  -1    3.48    0.68
   4   8  -1    3.46    0.48
   4   8  -1    3.34    0.43
  -4  -8   1    3.56    0.65
   3   8  -1   10.97    0.79
   3   8  -1   11.92    0.69
   3   8  -1   13.80    0.71
   3   8  -1   11.13    0.74
   3   8  -1   11.61    1.09
  -3  -8   1   13.17    1.01
   2   8  -1    4.05    0.62
   2   8  -1    4.20    0.62
   2   8  -1    4.70    0.53
   2   8  -1    5.47    0.51
  -2  -8   1    6.15    0.79
   1   8  -1    7.49    0.61
   1   8  -1    6.80    0.59
   1   8  -1    7.67    0.71
   1   8  -1    7.93    0.89
  -1  -8   1    8.28    0.76
   0   8  -1    3.52    0.59
   0   8  -1    2.87    0.39
   0   8  -1    3.24    0.44
   0   8  -1    3.59    0.57
   0  -8   1    4.75    0.68
  -1   8  -1    1.29    0.41
  -1   8  -1    0.91    0.49
  -1   8  -1    0.40    0.41
   1  -8   1    1.59    0.38
  -2   8  -1    2.00    0.47
  -2   8  -1    2.10    0.47
  -2   8  -1    1.81    0.35
   2  -8   1    2.56    0.51
   2  -8   1    2.44    0.37
  -3   8  -1    0.48    0.48
  -3   8  -1    0.03    0.44
  -3   8  -1    0.49    0.31
  -3   8  -1    0.45    0.29
   3  -8   1    0.80    0.50
  -4   8  -1    1.12    0.28
  -4   8  -1    0.41    0.43
  -4   8  -1    1.32    0.53
  -4   8  -1    0.63    0.25
   4  -8   1    0.98    0.49
  -5   8  -1    0.26    0.52
  -5   8  -1   -0.03    0.18
  -5   8  -1   -0.28    0.49
   5  -8   1    1.20    0.55
  -6   8  -1   -0.14    0.56
  -6   8  -1   -0.41    0.52
   6  -8   1    1.06    0.62
  -7   8  -1   -0.61    0.88
  -7   8  -1   -0.04    0.79
  -8   8  -1    0.29    0.74
  -8   8  -1   -0.21    0.59
   8  -8   1    0.76    0.71
  -9   8  -1    0.23    0.75
  -9   8  -1    0.32    0.58
   9  -8   1    0.41    0.75
 -10   8  -1    2.05    0.66
 -10   8  -1    3.64    0.91
  10  -8   1    2.91    0.84
 -11   8  -1    0.07    0.72
 -11   8  -1    0.02    0.94
  11  -8   1    0.27    0.83
  10   7  -1   -1.06    1.06
 -10  -7   1    0.51    0.85
   9   7  -1   -0.50    0.99
  -9  -7   1    0.52    0.78
   8   7  -1   -0.28    0.86
  -8  -7   1    0.52    0.73
   7   7  -1    1.44    0.80
  -7  -7   1    1.33    0.68
   6   7  -1    3.71    0.41
   6   7  -1    3.11    0.75
  -6  -7   1    3.31    0.66
   5   7  -1    6.13    0.53
   5   7  -1    6.35    0.97
   5   7  -1    5.71    0.52
  -5  -7   1    6.35    0.44
  -5  -7   1    7.80    0.89
   4   7  -1   15.70    0.81
   4   7  -1   16.15    0.79
   4   7  -1   15.17    1.15
   4   7  -1   15.93    0.86
  -4  -7   1   18.82    1.08
   3   7  -1    6.57    0.49
   3   7  -1    5.01    0.54
   3   7  -1    5.34    0.84
   3   7  -1    4.50    0.49
  -3  -7   1    6.08    0.76
   2   7  -1    1.28    0.29
   2   7  -1    1.48    0.30
   2   7  -1    1.63    0.31
   2   7  -1    1.64    0.52
   2   7  -1    1.84    0.33
  -2  -7   1    2.15    0.44
   1   7  -1   28.43    1.42
   1   7  -1   29.28    1.32
   1   7  -1   28.26    1.29
   1   7  -1   28.11    1.29
   1   7  -1   29.36    1.28
  -1  -7   1   28.21    1.36
   0   7  -1    2.01    0.36
   0   7  -1    3.19    0.42
   0   7  -1    2.68    0.48
   0   7  -1    2.11    0.33
   0   7  -1    1.95    0.34
   0   7  -1    2.36    0.35
   0  -7   1    3.13    0.53
  -1   7  -1   -0.43    0.29
  -1   7  -1   -0.19    0.35
  -1   7  -1   -0.45    0.31
  -1   7  -1    0.17    0.33
   1  -7   1    0.47    0.31
   1  -7   1    0.17    0.39
  -2   7  -1    9.39    0.59
  -2   7  -1    9.35    0.74
  -2   7  -1    9.17    0.71
   2  -7   1    9.56    0.78
   2  -7   1    9.40    0.62
  -3   7  -1    1.82    0.27
  -3   7  -1    1.37    0.43
  -3   7  -1    2.29    0.28
  -3   7  -1    2.05    0.46
   3  -7   1    2.51    0.45
  -4   7  -1    0.42    0.44
  -4   7  -1    0.60    0.21
  -4   7  -1    0.54    0.23
  -4   7  -1    0.20    0.43
   4  -7   1    0.89    0.45
  -5   7  -1    1.00    0.53
   5  -7   1    1.01    0.42
   5  -7   1    1.15    0.50
  -6   7  -1    2.91    0.61
   6  -7   1    2.95    0.54
   6  -7   1    3.19    0.51
  -7   7  -1    0.17    0.56
   7  -7   1    0.86    0.57
   7  -7   1    0.87    0.50
  -8   7  -1    0.76    0.77
   8  -7   1    0.94    0.58
   8  -7   1    0.57    0.64
  -9   7  -1    0.22    0.67
   9  -7   1    1.05    0.58
   9  -7   1    0.37    0.67
 -10   7  -1    0.20    0.58
 -10   7  -1   -0.16    0.79
  10  -7   1    0.26    0.70
 -11   7  -1   -0.52    0.65
 -11   7  -1   -0.33    0.82
  11  -7   1    0.23    0.81
 -12   7  -1    0.38    0.70
 -12   7  -1   -0.83    0.89
  12  -7   1   -0.66    0.89
  10   6  -1    0.66    1.00
 -10  -6   1    0.45    0.77
   9   6  -1   -0.19    0.92
  -9  -6   1    0.60    0.70
   8   6  -1    0.74    0.80
  -8  -6   1    0.61    0.61
   7   6  -1    4.59    0.78
  -7  -6   1    5.19    0.51
  -7  -6   1    4.26    1.09
   6   6  -1    7.85    0.55
   6   6  -1    8.79    1.06
   6   6  -1    9.39    0.49
  -6  -6   1    8.80    0.90
  -6  -6   1   10.06    0.58
   5   6  -1   14.39    0.73
   5   6  -1   14.33    0.71
   5   6  -1   15.00    0.76
   5   6  -1   15.29    1.08
  -5  -6   1   15.14    1.01
  -5  -6   1   16.35    0.76
   4   6  -1    7.77    0.49
   4   6  -1    8.70    0.57
   4   6  -1    8.25    0.51
   4   6  -1    7.91    0.89
  -4  -6   1    8.49    0.79
  -4  -6   1    7.93    0.49
   3   6  -1   13.88    0.70
   3   6  -1   13.71    0.93
   3   6  -1   13.60    0.69
  -3  -6   1   13.94    0.89
  -3  -6   1   13.65    0.67
   2   6  -1   21.83    1.18
   2   6  -1   22.22    1.03
   2   6  -1   22.68    1.01
   2   6  -1   22.95    1.02
   2   6  -1   23.06    1.12
  -2  -6   1   22.01    1.00
  -2  -6   1   21.71    1.10
   1   6  -1    0.51    0.31
   1   6  -1    0.46    0.30
   1   6  -1    0.69    0.25
   1   6  -1    0.57    0.25
   1   6  -1    0.76    0.38
   1   6  -1    0.84    0.28
  -1  -6   1    0.90    0.31
   0   6  -1   11.35    0.62
   0   6  -1   10.85    0.65
   0   6  -1   10.99    0.67
   0   6  -1   11.23    0.62
   0   6  -1   11.23    0.65
   0   6  -1   11.15    0.74
   0   6  -1   10.88    0.65
   0  -6   1   10.82    0.66
  -1   6  -1    7.88    0.54
  -1   6  -1    7.51    0.51
  -1   6  -1    8.11    0.58
  -1   6  -1    7.81    0.54
  -1   6  -1    7.06    0.54
  -1   6  -1    7.45    0.58
   1  -6   1    7.58    0.62
   1  -6   1    7.66    0.52
  -2   6  -1    0.26    0.31
  -2   6  -1   -0.13    0.30
  -2   6  -1    0.07    0.21
  -2   6  -1    0.00    0.27
  -2   6  -1   -0.23    0.29
  -2   6  -1   -0.34    0.30
   2  -6   1    0.09    0.32
   2  -6   1    0.61    0.22
  -3   6  -1   22.12    1.00
  -3   6  -1   24.18    1.01
  -3   6  -1   22.98    1.17
  -3   6  -1   26.27    1.19
   3  -6   1   22.13    1.14
   3  -6   1   22.35    1.11
  -4   6  -1    5.05    0.33
  -4   6  -1    4.95    0.63
  -4   6  -1    4.77    0.33
   4  -6   1    5.12    0.58
   4  -6   1    4.90    0.66
  -5   6  -1    0.08    0.44
   5  -6   1   -0.04    0.38
   5  -6   1    0.22    0.38
  -6   6  -1    1.32    0.51
   6  -6   1    1.25    0.42
   6  -6   1    1.73    0.49
  -7   6  -1    1.30    0.54
   7  -6   1    1.77    0.47
   7  -6   1    1.40    0.51
  -8   6  -1    0.81    0.58
   8  -6   1    0.43    0.55
   8  -6   1    0.90    0.47
  -9   6  -1    0.60    0.66
   9  -6   1    0.68    0.54
   9  -6   1    0.59    0.58
 -10   6  -1   -0.02    0.73
  10  -6   1    0.36    0.54
  10  -6   1    0.14    0.69
 -11   6  -1   -0.03    0.77
  11  -6   1   -0.31    0.75
 -12   6  -1   -1.01    0.65
 -12   6  -1   -0.60    0.79
  12  -6   1   -0.41    0.85
  11   5  -1    0.43    0.98
 -11  -5   1   -0.16    0.77
  10   5  -1    0.64    0.91
 -10  -5   1    1.32    0.68
   9   5  -1    0.35    0.81
  -9  -5   1    1.18    0.65
   7   5  -1   10.70    0.66
   7   5  -1   12.44    1.13
  -7  -5   1   11.01    0.94
   6   5  -1    1.26    0.55
  -6  -5   1    0.04    0.47
   5   5  -1   16.27    0.80
   5   5  -1   16.60    0.76
   5   5  -1   16.21    1.09
  -5  -5   1   17.99    0.82
  -5  -5   1   15.83    1.00
   4   5  -1   15.84    0.98
   4   5  -1   14.60    0.69
   4   5  -1   15.42    0.75
   4   5  -1   14.94    0.73
  -4  -5   1   14.90    0.91
  -4  -5   1   15.74    0.75
   3   5  -1    0.80    0.22
   3   5  -1    0.69    0.38
   3   5  -1    1.12    0.22
   3   5  -1    0.85    0.19
  -3  -5   1    0.77    0.33
  -3  -5   1    0.98    0.21
  -3  -5   1    0.58    0.37
   2   5  -1  132.68    5.28
   2   5  -1  129.24    5.28
   2   5  -1  134.26    5.27
   2   5  -1  135.82    5.32
   2   5  -1  127.56    5.33
   2   5  -1  133.54    5.32
  -2  -5   1  127.27    5.31
  -2  -5   1  123.58    5.27
   1   5  -1    4.30    0.44
   1   5  -1    4.61    0.36
   1   5  -1    4.83    0.39
   1   5  -1    4.64    0.49
   1   5  -1    4.47    0.37
   1   5  -1    4.24    0.44
  -1  -5   1    4.70    0.36
  -1  -5   1    5.03    0.45
   0   5  -1    5.83    0.41
   0   5  -1    5.82    0.49
   0   5  -1    5.91    0.41
   0   5  -1    5.59    0.39
   0   5  -1    5.64    0.59
   0   5  -1    4.63    0.42
   0   5  -1    4.86    0.41
   0  -5   1    5.67    0.47
  -1   5  -1  204.08    8.12
  -1   5  -1  197.27    8.13
  -1   5  -1  206.97    8.12
  -1   5  -1  207.65    8.11
  -1   5  -1  209.95    8.13
   1  -5   1  193.31    8.13
   1  -5   1  197.64    8.12
   1  -5   1  193.44    8.10
  -2   5  -1    2.65    0.28
  -2   5  -1    2.62    0.38
  -2   5  -1    2.58    0.43
  -2   5  -1    2.74    0.29
  -2   5  -1    2.59    0.41
  -2   5  -1    2.52    0.39
   2  -5   1    3.41    0.39
   2  -5   1    2.72    0.41
  -3   5  -1    4.41    0.51
  -3   5  -1    4.99    0.31
  -3   5  -1    4.67    0.48
  -3   5  -1    5.03    0.48
  -3   5  -1    4.96    0.55
   3  -5   1    4.98    0.43
   3  -5   1    5.16    0.51
  -4   5  -1   16.34    0.85
  -4   5  -1   17.79    0.95
  -4   5  -1   16.11    0.70
  -4   5  -1   16.82    0.94
  -4   5  -1   16.59    0.70
  -4   5  -1   17.48    0.88
   4  -5   1   15.06    0.86
   4  -5   1   17.87    0.93
   4  -5   1   16.09    0.86
  -5   5  -1   27.77    1.33
   5  -5   1   27.37    1.31
   5  -5   1   26.94    1.28
  -6   5  -1    1.18    0.49
   6  -5   1    1.05    0.39
   6  -5   1    0.65    0.41
  -7   5  -1    9.33    0.86
   7  -5   1   10.65    0.78
   7  -5   1    9.08    0.83
  -8   5  -1    6.30    0.84
   8  -5   1    6.07    0.84
   8  -5   1    7.32    0.75
  -9   5  -1    0.49    0.56
   9  -5   1    0.51    0.46
 -10   5  -1    1.05    0.65
  10  -5   1    1.68    0.55
  10  -5   1    1.81    0.70
 -11   5  -1    0.70    0.73
  11  -5   1    1.57    0.61
  11  -5   1    1.06    0.76
 -12   5  -1   -0.67    0.80
  12  -5   1   -0.88    0.82
  12   4  -1    0.32    1.04
 -12  -4   1   -0.61    0.82
  11   4  -1    1.19    0.96
 -11  -4   1    0.64    0.72
  10   4  -1   -0.66    0.81
 -10  -4   1    0.54    0.63
   7   4  -1    0.75    0.29
   7   4  -1    0.44    0.59
  -7  -4   1    0.84    0.45
   6   4  -1   53.61    2.43
   6   4  -1   54.20    2.27
  -6  -4   1   51.43    2.35
  -6  -4   1   58.09    2.33
   5   4  -1    0.83    0.24
   5   4  -1    1.02    0.47
   5   4  -1    0.81    0.15
  -5  -4   1    0.77    0.39
   4   4  -1   56.09    2.26
   4   4  -1   53.12    2.36
   4   4  -1   56.98    2.24
   4   4  -1   54.92    2.28
   4   4  -1   57.10    2.39
  -4  -4   1   54.51    2.35
  -4  -4   1   54.65    2.28
  -4  -4   1   54.53    2.36
   3   4  -1   65.28    2.71
   3   4  -1   67.33    2.72
   3   4  -1   64.80    2.79
   3   4  -1   70.54    2.78
  -3  -4   1   68.63    2.79
  -3  -4   1   64.34    2.72
  -3  -4   1   65.90    2.77
   2   4  -1   25.43    1.09
   2   4  -1   26.71    1.16
   2   4  -1   26.43    1.11
   2   4  -1   26.11    1.08
  -2  -4   1   25.00    1.09
  -2  -4   1   24.25    1.13
  -2  -4   1   27.05    1.16
   1   4  -1  297.80   11.75
   1   4  -1  292.79   11.80
   1   4  -1  304.89   11.77
   1   4  -1  293.77   11.76
   1   4  -1  280.95   11.78
   1   4  -1  300.04   11.77
  -1  -4   1  277.91   11.80
   0   4  -1    5.28    0.34
   0   4  -1    5.22    0.34
   0   4  -1    4.65    0.36
   0   4  -1    5.20    0.34
   0  -4   1    5.47    0.35
   0  -4   1    5.18    0.39
   0  -4   1    5.16    0.35
  -1   4  -1    5.61    0.39
  -1   4  -1    6.22    0.35
  -1   4  -1    5.74    0.39
  -1   4  -1    5.93    0.39
  -1   4  -1    5.65    0.40
   1  -4   1    6.49    0.39
   1  -4   1    6.27    0.35
   1  -4   1    6.10    0.41
  -2   4  -1   13.68    0.65
  -2   4  -1   13.39    0.59
  -2   4  -1   13.91    0.65
  -2   4  -1   12.62    0.60
  -2   4  -1   13.79    0.64
   2  -4   1   12.08    0.69
   2  -4   1   13.59    0.81
  -3   4  -1   13.77    0.60
  -3   4  -1   14.39    0.69
  -3   4  -1   14.00    0.59
  -3   4  -1   14.06    0.67
  -3   4  -1   13.62    0.72
   3  -4   1   13.89    0.70
   3  -4   1   13.54    0.71
  -4   4  -1    2.31    0.32
  -4   4  -1    1.84    0.28
  -4   4  -1    2.30    0.36
   4  -4   1    2.12    0.29
   4  -4   1    1.64    0.29
   4  -4   1    2.92    0.47
  -5   4  -1    0.26    0.36
  -5   4  -1    1.21    0.41
  -5   4  -1    0.35    0.27
   5  -4   1    0.76    0.29
   5  -4   1    0.37    0.33
   5  -4   1    1.18    0.55
  -6   4  -1    9.20    0.74
   6  -4   1    8.29    0.73
   6  -4   1    9.89    0.66
  -7   4  -1   30.20    1.52
   7  -4   1   30.07    1.48
   7  -4   1   29.84    1.40
  -8   4  -1   10.26    0.97
   8  -4   1   11.13    0.95
   8  -4   1   11.77    0.80
  -9   4  -1    2.70    0.59
   9  -4   1    3.08    0.49
   9  -4   1    2.67    0.64
  10  -4   1    0.51    0.49
  10  -4   1    0.08    0.66
 -11   4  -1   -0.03    0.68
  11  -4   1   -0.02    0.75
  11  -4   1    0.43    0.64
 -12   4  -1    0.39    0.77
  12  -4   1    0.40    0.61
  12  -4   1    0.29    0.85
 -13   4  -1    0.03    0.84
  13  -4   1    0.79    1.49
  12   3  -1    1.01    0.98
 -12  -3   1   -0.35    0.75
  11   3  -1    0.56    0.84
 -11  -3   1   -0.32    0.63
  10   3  -1    1.03    0.76
 -10  -3   1    0.76    0.64
   9   3  -1    0.61    0.68
  -9  -3   1    0.59    0.50
   8   3  -1    4.17    0.67
   8   3  -1    3.21    0.54
  -8  -3   1    3.27    0.48
   7   3  -1    0.18    0.53
   7   3  -1    0.37    0.30
  -7  -3   1    0.31    0.40
   6   3  -1    6.60    0.78
   6   3  -1    6.04    0.49
  -6  -3   1    5.20    0.60
  -6  -3   1    4.83    0.28
   5   3  -1   40.30    1.83
   5   3  -1   42.31    1.81
   5   3  -1   41.10    1.69
   5   3  -1   43.32    1.76
  -5  -3   1   41.03    1.81
  -5  -3   1   41.17    1.69
  -5  -3   1   43.03    1.80
  -5  -3   1   41.22    1.85
   4   3  -1    7.45    0.45
   4   3  -1    7.73    0.55
   4   3  -1    7.23    0.34
   4   3  -1    7.66    0.61
  -4  -3   1    7.99    0.50
  -4  -3   1    7.23    0.54
  -4  -3   1    7.06    0.58
  -4  -3   1    7.31    0.34
   3   3  -1  103.60    4.89
   3   3  -1  127.45    4.88
   3   3  -1  121.70    4.85
   3   3  -1  123.65    4.83
  -3  -3   1  117.67    4.85
  -3  -3   1  119.30    4.88
  -3  -3   1  127.54    4.90
   2   3  -1    0.08    0.24
   2   3  -1    0.28    0.10
   2   3  -1    0.00    0.18
   2   3  -1    0.22    0.11
   2   3  -1    0.18    0.21
  -2  -3   1    0.37    0.20
  -2  -3   1    0.20    0.20
  -2  -3   1    0.17    0.14
   1   3  -1   26.91    1.12
   1   3  -1   26.68    1.09
   1   3  -1   26.70    1.09
   1   3  -1   27.14    1.12
   1   3  -1   26.26    1.14
  -1  -3   1   25.34    1.12
  -1  -3   1   25.61    1.10
   0   3  -1  239.96    9.63
   0   3  -1  245.06    9.65
   0   3  -1  245.03    9.64
   0   3  -1  250.42    9.66
   0  -3   1  231.73    9.65
   0  -3   1  236.84    9.63
   0  -3   1  234.14    9.68
   0  -3   1  233.18    9.68
  -1   3  -1   99.39    4.01
  -1   3  -1   97.32    4.01
  -1   3  -1  102.11    3.99
  -1   3  -1  101.23    3.99
  -1   3  -1  102.23    4.00
  -1   3  -1   98.96    4.00
   1  -3   1   92.66    4.00
   1  -3   1   97.50    4.00
  -2   3  -1   82.46    3.25
  -2   3  -1   76.60    3.27
  -2   3  -1   78.74    3.22
  -2   3  -1   84.15    3.27
  -2   3  -1   81.85    3.26
  -2   3  -1   79.94    3.23
   2  -3   1   78.93    3.25
   2  -3   1   77.89    3.26
  -3   3  -1   11.43    0.57
  -3   3  -1   11.57    0.52
  -3   3  -1   11.99    0.60
   3  -3   1   11.34    0.65
   3  -3   1   12.20    0.60
   3  -3   1   11.36    0.49
  -4   3  -1   62.47    2.50
  -4   3  -1   65.72    2.58
  -4   3  -1   62.19    2.55
  -4   3  -1   58.75    2.58
   4  -3   1   59.35    2.57
   4  -3   1   64.80    2.57
   4  -3   1   60.85    2.55
   4  -3   1   61.23    2.50
  -5   3  -1    3.49    0.39
  -5   3  -1    4.46    0.53
  -5   3  -1    3.63    0.49
  -5   3  -1    3.01    0.23
   5  -3   1    2.94    0.45
   5  -3   1    2.78    0.23
   5  -3   1    3.16    0.41
   5  -3   1    4.27    0.49
  -6   3  -1   25.24    1.02
  -6   3  -1   25.14    1.24
  -6   3  -1   24.64    1.11
   6  -3   1   24.34    1.13
   6  -3   1   21.98    1.17
  -7   3  -1    0.13    0.18
  -7   3  -1    0.02    0.45
   7  -3   1    0.21    0.33
   7  -3   1   -0.19    0.46
   7  -3   1    1.04    0.36
  -8   3  -1    3.34    0.56
  -8   3  -1    2.55    0.35
   8  -3   1    3.59    0.57
   8  -3   1    2.50    0.57
  -9   3  -1    0.54    0.54
  -9   3  -1    0.67    0.25
   9  -3   1    0.83    0.41
   9  -3   1   -0.18    0.52
 -10   3  -1   -0.24    0.58
  10  -3   1   -0.44    0.45
  10  -3   1   -0.47    0.62
 -11   3  -1    2.71    0.72
  11  -3   1    3.15    0.73
  11  -3   1    2.81    0.55
 -12   3  -1   -0.30    0.76
  12  -3   1   -0.55    1.04
  12  -3   1   -0.78    0.81
 -13   3  -1   -0.53    0.80
  13  -3   1   -0.06    0.92
  12   2  -1   -0.22    0.89
 -12  -2   1   -0.69    0.67
  11   2  -1    0.76    0.82
 -11  -2   1   -0.55    0.58
 -11  -2   1   -0.05    0.65
  10   2  -1   -0.11    0.71
 -10  -2   1    0.53    0.50
   9   2  -1    0.54    0.62
  -9  -2   1    0.30    0.44
   8   2  -1    3.92    0.55
   8   2  -1    4.44    0.62
   8   2  -1    4.27    0.33
  -8  -2   1    4.21    0.64
  -8  -2   1    4.79    0.41
   7   2  -1   21.23    1.01
   7   2  -1   20.54    1.19
   7   2  -1   20.22    0.88
  -7  -2   1   20.01    1.03
   6   2  -1    9.05    0.45
   6   2  -1    9.99    0.61
   6   2  -1    9.91    0.75
   6   2  -1   10.15    0.68
  -6  -2   1    9.58    0.64
   5   2  -1   94.24    3.77
   5   2  -1   90.05    3.69
   5   2  -1   90.36    3.75
   5   2  -1   87.25    3.79
  -5  -2   1   87.86    3.76
  -5  -2   1   94.49    3.81
  -5  -2   1   97.07    3.72
  -5  -2   1   93.28    3.80
   4   2  -1    4.88    0.41
   4   2  -1    4.98    0.36
   4   2  -1    4.05    0.21
   4   2  -1    4.52    0.55
  -4  -2   1    4.04    0.47
  -4  -2   1    4.05    0.25
  -4  -2   1    4.60    0.47
  -4  -2   1    4.75    0.40
   3   2  -1   34.80    1.50
   3   2  -1   35.60    1.47
   3   2  -1   36.34    1.48
  -3  -2   1   34.79    1.48
  -3  -2   1   34.76    1.42
  -3  -2   1   35.77    1.50
  -3  -2   1   34.19    1.49
   2   2  -1  461.80   18.85
   2   2  -1  458.25   18.71
   2   2  -1  470.95   18.78
   2   2  -1  478.45   18.70
   2   2  -1  477.87   18.82
  -2  -2   1  464.18   18.82
  -2  -2   1  464.97   18.84
  -2  -2   1  452.06   18.79
   1   2  -1   53.67    2.18
   1   2  -1   55.36    2.17
   1   2  -1   54.28    2.19
   1   2  -1   53.93    2.19
  -1  -2   1   52.35    2.17
  -1  -2   1   53.50    2.19
  -1  -2   1   52.75    2.18
  -1  -2   1   54.11    2.19
   0   2  -1  255.36   10.23
   0   2  -1  261.79   10.23
   0   2  -1  256.60   10.22
   0  -2   1  247.59   10.21
   0  -2   1  253.90   10.22
   0  -2   1  248.42   10.22
   0  -2   1  250.47   10.21
  -1   2  -1   27.56    1.15
  -1   2  -1   26.97    1.17
  -1   2  -1   27.99    1.19
  -1   2  -1   28.48    1.16
  -1   2  -1   27.69    1.17
   1  -2   1   26.72    1.17
   1  -2   1   27.80    1.16
   1  -2   1   27.72    1.15
   1  -2   1   27.32    1.16
  -2   2  -1    0.66    0.18
  -2   2  -1    0.51    0.18
  -2   2  -1    0.58    0.15
   2  -2   1    0.57    0.18
   2  -2   1    0.40    0.16
   2  -2   1    0.46    0.16
   2  -2   1    0.92    0.15
  -3   2  -1   24.73    1.07
  -3   2  -1   24.49    1.11
  -3   2  -1   24.83    1.05
  -3   2  -1   26.13    1.10
   3  -2   1   26.81    1.06
   3  -2   1   23.99    1.07
   3  -2   1   23.87    1.10
   3  -2   1   26.61    1.10
  -4   2  -1   22.36    0.96
  -4   2  -1   23.51    1.04
  -4   2  -1   23.51    1.00
   4  -2   1   19.54    1.02
   4  -2   1   26.31    1.02
   4  -2   1   21.22    1.05
   4  -2   1   23.71    1.03
  -5   2  -1    0.59    0.16
  -5   2  -1    0.96    0.33
  -5   2  -1    1.02    0.22
  -5   2  -1    1.15    0.33
   5  -2   1    0.50    0.30
   5  -2   1    0.61    0.26
   5  -2   1    0.55    0.23
  -6   2  -1   13.14    0.82
  -6   2  -1   13.83    0.69
  -6   2  -1   12.99    0.63
   6  -2   1   13.14    0.73
   6  -2   1   13.24    0.70
   6  -2   1   11.55    0.85
  -7   2  -1    9.16    0.55
  -7   2  -1    9.45    0.83
  -7   2  -1   10.51    0.63
   7  -2   1    7.85    0.84
   7  -2   1    9.24    0.65
  -8   2  -1    0.25    0.48
  -8   2  -1    0.14    0.26
   8  -2   1    0.11    0.34
   8  -2   1   -0.01    0.52
  -9   2  -1    4.25    0.60
  -9   2  -1    5.91    0.52
   9  -2   1    4.90    0.69
   9  -2   1    5.35    0.65
 -10   2  -1   -0.03    0.56
 -10   2  -1   -0.32    0.34
  10  -2   1   -0.68    0.62
  10  -2   1    0.03    0.42
 -11   2  -1   -0.44    1.03
  11  -2   1   -0.05    0.73
  11  -2   1    0.03    0.47
 -12   2  -1   -0.74    0.69
  12  -2   1    0.67    0.85
 -13   2  -1   -0.25    0.80
  13  -2   1    0.11    0.91
  13   1  -1   -1.82    0.91
  12   1  -1   -0.17    0.62
  12   1  -1   -0.39    0.83
  11   1  -1    0.07    0.69
 -11  -1   1   -0.29    0.51
 -11  -1   1   -0.73    0.65
 -10  -1   1   -0.72    0.60
 -10  -1   1    1.62    0.46
   9   1  -1    1.23    0.62
  -9  -1   1    1.69    0.41
   8   1  -1    6.11    0.43
   8   1  -1    6.35    0.78
  -8  -1   1    6.10    0.60
  -8  -1   1    4.68    0.60
   7   1  -1   20.92    1.19
   7   1  -1   21.93    1.04
   7   1  -1   22.26    1.05
   7   1  -1   20.75    0.93
  -7  -1   1   20.47    1.02
  -7  -1   1   24.23    0.95
  -7  -1   1   18.07    1.18
   6   1  -1   10.35    0.62
   6   1  -1   10.75    0.63
   6   1  -1   10.61    0.77
   6   1  -1    9.67    0.49
  -6  -1   1   10.93    0.75
  -6  -1   1    8.06    0.77
  -6  -1   1    9.81    0.60
   5   1  -1   29.91    1.23
   5   1  -1   28.31    1.35
   5   1  -1   30.54    1.29
   5   1  -1   30.26    1.30
  -5  -1   1   29.77    1.35
  -5  -1   1   30.02    1.25
   4   1  -1  109.93    4.40
   4   1  -1  108.54    4.35
   4   1  -1  110.64    4.39
   4   1  -1  104.43    4.41
  -4  -1   1  110.53    4.41
  -4  -1   1  113.37    4.35
  -4  -1   1  104.95    4.42
  -4  -1   1  103.46    4.38
   3   1  -1  122.00    4.93
   3   1  -1  122.07    4.91
   3   1  -1  119.94    4.95
   3   1  -1  123.67    4.94
  -3  -1   1  123.90    4.96
  -3  -1   1  123.32    4.95
  -3  -1   1  118.49    4.93
  -3  -1   1  123.65    4.92
   2   1  -1  765.36   32.33
   2   1  -1  845.53   32.37
  -2  -1   1  793.54   32.35
  -2  -1   1  828.00   32.39
  -2  -1   1  786.34   32.32
   1   1  -1   34.26    1.47
   1   1  -1   36.99    1.49
   1   1  -1   36.39    1.49
  -1   1  -1   39.39    1.55
  -1   1  -1   37.80    1.55
  -1   1  -1   37.45    1.55
   1  -1   1   39.38    1.55
   1  -1   1   36.60    1.55
  -2   1  -1  336.42   13.46
  -2   1  -1  315.52   13.42
  -2   1  -1  359.74   13.48
  -2   1  -1  318.96   13.39
   2  -1   1  324.72   13.43
   2  -1   1  358.28   13.47
   2  -1   1  316.22   13.45
  -3   1  -1   15.70    0.72
  -3   1  -1   16.47    0.75
  -3   1  -1   17.09    0.72
  -3   1  -1   16.83    0.78
   3  -1   1   15.57    0.72
   3  -1   1   15.40    0.77
   3  -1   1   16.71    0.73
  -4   1  -1    6.52    0.47
  -4   1  -1    7.15    0.47
  -4   1  -1    7.42    0.40
  -4   1  -1    6.07    0.40
   4  -1   1    6.43    0.54
   4  -1   1    8.30    0.48
   4  -1   1    6.20    0.40
   4  -1   1    6.85    0.43
  -5   1  -1   85.14    3.69
  -5   1  -1   84.78    3.69
  -5   1  -1   87.38    3.65
  -5   1  -1   93.57    3.65
   5  -1   1  100.07    3.69
   5  -1   1   93.12    3.67
   5  -1   1   83.62    3.70
  -6   1  -1    1.99    0.39
   6  -1   1    2.46    0.29
   6  -1   1    1.84    0.30
   6  -1   1    2.29    0.47
  -7   1  -1   27.28    1.27
  -7   1  -1   27.87    1.38
  -7   1  -1   32.16    1.30
   7  -1   1   26.17    1.45
   7  -1   1   27.27    1.27
   7  -1   1   29.02    1.30
  -8   1  -1    2.30    0.35
  -8   1  -1    2.57    0.36
  -8   1  -1    1.59    0.46
   8  -1   1    1.76    0.58
   8  -1   1    1.93    0.35
  -9   1  -1    1.46    0.38
  -9   1  -1    1.33    0.52
   9  -1   1    1.35    0.38
   9  -1   1    1.01    0.64
 -10   1  -1    2.05    0.59
 -10   1  -1    2.60    0.44
  10  -1   1    1.83    0.72
  10  -1   1    3.22    0.44
 -11   1  -1   -0.35    0.60
 -11   1  -1   -0.26    0.45
  11  -1   1   -0.21    0.70
  11  -1   1   -0.64    0.44
 -12   1  -1   -0.37    0.69
  12  -1   1    0.95    0.88
  13  -1   1   -0.44    1.47
  13   0  -1    0.85    0.89
 -13   0   1    0.94    0.84
  12   0  -1   -0.48    0.78
 -12   0   1   -0.96    0.72
  11   0  -1    1.23    0.48
  11   0  -1    0.57    0.72
 -11   0   1   -0.60    0.64
  10   0  -1    0.72    1.00
 -10   0   1    0.29    0.31
 -10   0   1   -0.52    0.57
 -10   0   1    0.14    0.39
   9   0  -1    2.49    0.61
  -9   0   1    3.83    0.51
  -9   0   1    2.76    0.38
  -9   0   1    2.23    0.57
   8   0  -1    0.87    0.52
   8   0  -1    0.84    0.27
   8   0  -1    1.92    0.35
  -8   0   1    1.23    0.31
  -8   0   1    0.38    0.46
   7   0  -1   12.61    0.66
   7   0  -1   12.55    0.78
   7   0  -1   14.43    0.74
   7   0  -1   11.72    0.90
  -7   0   1   13.41    0.70
  -7   0   1   14.62    0.66
  -7   0   1   11.24    0.87
   6   0  -1   20.95    0.99
   6   0  -1   20.60    0.93
   6   0  -1   20.17    0.90
   6   0  -1   19.59    1.05
  -6   0   1   20.11    1.00
  -6   0   1   18.56    1.05
  -6   0   1   21.02    1.03
  -6   0   1   20.70    0.89
   5   0  -1   30.54    1.32
   5   0  -1   29.04    1.33
   5   0  -1   31.24    1.28
   5   0  -1   29.98    1.25
  -5   0   1   30.24    1.32
  -5   0   1   30.63    1.25
  -5   0   1   28.05    1.35
  -5   0   1   30.26    1.27
   4   0  -1  122.74    4.87
   4   0  -1  122.87    4.88
   4   0  -1  116.87    4.90
   4   0  -1  125.74    4.91
  -4   0   1  125.43    4.91
  -4   0   1  117.21    4.92
  -4   0   1  116.22    4.88
  -4   0   1  120.77    4.88
   3   0  -1    8.60    0.47
   3   0  -1    7.12    0.45
   3   0  -1    7.32    0.37
   3   0  -1    7.74    0.38
  -3   0   1    7.53    0.36
  -3   0   1    8.82    0.46
  -3   0   1    7.51    0.38
  -3   0   1    7.87    0.50
   2   0  -1    4.38    0.25
   2   0  -1    4.96    0.23
   2   0  -1    4.40    0.30
   2   0  -1    4.60    0.23
  -2   0   1    4.65    0.31
  -2   0   1    5.13    0.26
  -2   0   1    4.74    0.22
  -2   0   1    4.69    0.23
  -1   0  -1    8.34    0.39
  -1   0  -1    8.46    0.38
  -1   0  -1    8.28    0.36
   1   0   1    8.74    0.40
   1   0   1    7.96    0.38
   1   0   1    6.99    0.35
  -2   0  -1    0.88    0.20
  -2   0  -1    0.75    0.15
  -2   0  -1    0.16    0.16
  -2   0  -1    0.67    0.12
   2   0   1    0.43    0.14
   2   0   1    0.51    0.11
   2   0   1    0.35    0.20
   2   0   1    1.01    0.21
  -3   0  -1   51.50    2.18
  -3   0  -1   55.45    2.18
  -3   0  -1   50.87    2.19
  -3   0  -1   54.23    2.22
   3   0   1   53.26    2.23
   3   0   1   52.45    2.17
   3   0   1   55.13    2.21
  -4   0  -1   32.32    1.48
  -4   0  -1   33.34    1.49
  -4   0  -1   37.15    1.47
  -4   0  -1   35.24    1.53
   4   0   1   36.52    1.50
   4   0   1   35.59    1.54
   4   0   1   36.44    1.47
   4   0   1   33.70    1.46
  -5   0  -1   52.19    2.21
  -5   0  -1   48.73    2.16
  -5   0  -1   49.04    2.17
  -5   0  -1   54.47    2.14
   5   0   1   49.90    2.13
   5   0   1   53.06    2.14
   5   0   1   49.91    2.23
   5   0   1   56.10    2.19
  -6   0  -1   13.22    0.64
  -6   0  -1    9.95    0.71
  -6   0  -1   10.52    0.67
   6   0   1   10.70    0.81
   6   0   1   11.07    0.63
   6   0   1   12.62    0.75
   6   0   1   10.13    0.64
  -7   0  -1   -0.04    0.37
  -7   0  -1    0.01    0.32
   7   0   1   -0.01    0.26
   7   0   1    0.12    0.28
   7   0   1    0.03    0.48
  -8   0  -1   11.89    0.89
  -8   0  -1   15.01    0.77
  -8   0  -1   12.25    0.80
   8   0   1   11.54    1.00
   8   0   1   12.81    0.74
  -9   0  -1   -0.10    0.40
  -9   0  -1   -0.30    0.47
   9   0   1    0.17    0.34
   9   0   1   -0.07    0.58
 -10   0  -1   -0.64    0.54
 -10   0  -1    0.47    0.45
  10   0   1    0.01    0.73
  10   0   1    0.30    0.38
 -11   0  -1    0.44    0.52
 -11   0  -1   -0.35    0.61
  11   0   1   -0.32    0.83
  12   0   1   -0.57    0.89
  13  -1  -1    0.58    0.87
 -13   1   1   -0.56    0.81
  12  -1  -1   -0.27    0.78
 -12   1   1   -0.46    0.71
  11  -1  -1    0.08    0.71
  11  -1  -1    0.28    0.39
 -11   1   1    0.87    0.40
 -11   1   1   -0.45    0.64
  10  -1  -1    0.18    0.34
  10  -1  -1    0.10    0.68
 -10   1   1    0.00    0.34
 -10   1   1   -0.07    0.56
   9  -1  -1    3.53    0.50
  -9   1   1    3.61    0.51
   8  -1  -1    7.36    0.78
   8  -1  -1    8.31    0.59
  -8   1   1    7.72    0.84
  -8   1   1    9.72    0.56
   7  -1  -1    3.46    0.50
   7  -1  -1    3.23    0.44
   7  -1  -1    4.03    0.43
  -7   1   1    3.39    0.51
  -7   1   1    4.05    0.39
   6  -1  -1   53.43    2.20
   6  -1  -1   53.19    2.12
   6  -1  -1   48.01    2.20
  -6   1   1   52.80    2.12
  -6   1   1   48.50    2.22
  -6   1   1   52.81    2.21
   5  -1  -1    2.46    0.42
   5  -1  -1    2.23    0.39
   5  -1  -1    2.35    0.30
   5  -1  -1    2.97    0.27
  -5   1   1    2.42    0.36
  -5   1   1    2.28    0.28
   4  -1  -1   66.67    2.97
   4  -1  -1   72.70    2.90
   4  -1  -1   70.93    2.90
   4  -1  -1   73.35    2.92
   4  -1  -1   71.84    2.95
  -4   1   1   67.08    3.00
  -4   1   1   75.73    2.92
  -4   1   1   75.85    2.95
   3  -1  -1  304.24   11.96
   3  -1  -1  294.00   12.02
   3  -1  -1  296.49   11.95
   3  -1  -1  293.51   11.96
  -3   1   1  287.76   11.96
  -3   1   1  303.61   11.94
  -3   1   1  304.54   11.98
  -3   1   1  293.00   11.96
   2  -1  -1   27.55    1.11
   2  -1  -1   26.63    1.13
   2  -1  -1   27.11    1.15
  -2   1   1   27.62    1.10
  -2   1   1   26.67    1.16
  -2   1   1   27.06    1.13
  -2   1   1   26.33    1.12
   1  -1  -1  151.71    5.88
   1  -1  -1  140.83    5.90
   1  -1  -1  149.92    5.88
   1  -1  -1  143.07    5.89
  -1   1   1  145.82    5.88
  -1   1   1  151.14    5.88
  -1   1   1  130.77    5.88
  -1   1   1  155.87    5.88
   0  -1  -1    1.91    0.17
   0  -1  -1    1.84    0.16
   0  -1  -1    1.84    0.17
   0  -1  -1    1.73    0.13
   0   1   1    2.06    0.16
   0   1   1    2.00    0.19
   0   1   1    1.85    0.16
   0   1   1    1.79    0.16
   0   1   1    1.86    0.12
  -1  -1  -1   97.39    4.06
  -1  -1  -1   99.01    4.05
  -1  -1  -1  105.01    4.05
   1   1   1   99.11    4.05
   1   1   1   99.24    4.05
   1   1   1  101.44    4.06
  -2  -1  -1   58.49    2.46
  -2  -1  -1   58.90    2.41
  -2  -1  -1   58.02    2.46
   2   1   1   59.62    2.47
   2   1   1   59.68    2.41
   2   1   1   60.66    2.44
   2   1   1   61.97    2.46
  -3  -1  -1    3.39    0.29
  -3  -1  -1    3.56    0.35
  -3  -1  -1    3.56    0.37
  -3  -1  -1    3.55    0.38
   3   1   1    3.59    0.23
   3   1   1    4.24    0.40
   3   1   1    3.69    0.30
  -4  -1  -1   53.91    2.24
  -4  -1  -1   54.84    2.20
  -4  -1  -1   51.40    2.20
  -4  -1  -1   49.54    2.21
   4   1   1   56.02    2.23
   4   1   1   50.67    2.26
   4   1   1   53.00    2.18
   4   1   1   55.59    2.17
  -5  -1  -1    0.06    0.28
  -5  -1  -1   -0.39    0.27
  -5  -1  -1    0.10    0.35
   5   1   1    0.01    0.32
   5   1   1    0.11    0.21
   5   1   1    0.16    0.18
   5   1   1    0.46    0.40
  -6  -1  -1    4.68    0.66
  -6  -1  -1    6.11    0.60
   6   1   1    6.86    0.45
   6   1   1    6.01    0.84
   6   1   1    7.42    0.70
  -7  -1  -1    7.72    0.77
  -7  -1  -1    9.54    0.74
   7   1   1    9.11    0.59
   7   1   1   11.20    1.00
   7   1   1   10.09    0.58
  -8  -1  -1    0.42    0.41
   8   1   1    0.47    0.62
   8   1   1    0.71    0.29
   8   1   1    0.63    0.28
  -9  -1  -1    5.43    0.77
  -9  -1  -1    3.75    0.58
   9   1   1    5.24    0.56
   9   1   1    5.15    1.20
 -10  -1  -1    1.21    0.52
 -10  -1  -1    0.24    0.56
  10   1   1    1.32    0.37
  10   1   1    1.40    0.78
  11   1   1    1.04    0.90
 -12  -1  -1    0.43    0.68
  12   1   1    0.16    0.98
  13  -2  -1   -0.89    0.86
 -13   2   1   -1.02    0.81
  12  -2  -1   -0.69    0.73
 -12   2   1   -0.91    0.71
  11  -2  -1    0.85    0.67
 -11   2   1    1.08    0.44
 -11   2   1   -0.40    0.67
 -10   2   1    5.70    0.67
 -10   2   1    4.57    0.73
   9  -2  -1    9.30    0.56
   9  -2  -1    8.01    0.94
  -9   2   1    8.86    0.99
  -9   2   1    9.86    0.70
   8  -2  -1   15.65    1.06
   8  -2  -1   16.24    0.90
   8  -2  -1   16.43    0.78
  -8   2   1   15.92    1.11
  -8   2   1   18.88    0.93
   7  -2  -1   15.05    0.80
   7  -2  -1   15.19    0.68
   7  -2  -1   14.08    0.87
  -7   2   1   14.43    0.99
  -7   2   1   15.06    0.75
   6  -2  -1    1.02    0.34
   6  -2  -1    1.09    0.15
   6  -2  -1    0.72    0.36
   6  -2  -1    0.94    0.28
  -6   2   1    0.90    0.24
  -6   2   1    1.20    0.43
  -6   2   1    1.36    0.43
   5  -2  -1  120.13    5.00
   5  -2  -1  118.11    5.03
   5  -2  -1  125.46    4.96
   5  -2  -1  127.21    5.05
   5  -2  -1  119.42    4.96
  -5   2   1  126.62    5.00
  -5   2   1  118.88    5.06
  -5   2   1  131.88    5.04
   4  -2  -1   27.04    1.20
   4  -2  -1   26.83    1.09
   4  -2  -1   26.02    1.18
  -4   2   1   26.59    1.21
  -4   2   1   27.51    1.19
  -4   2   1   26.75    1.16
  -4   2   1   28.01    1.15
   3  -2  -1    8.37    0.41
   3  -2  -1    9.47    0.52
   3  -2  -1    8.78    0.49
  -3   2   1    9.69    0.57
  -3   2   1    9.37    0.51
  -3   2   1    9.67    0.50
  -3   2   1    9.58    0.47
  -3   2   1    9.63    0.39
   2  -2  -1  365.44   15.01
   2  -2  -1  365.79   14.99
   2  -2  -1  370.06   15.08
  -2   2   1  362.84   15.02
  -2   2   1  361.51   15.03
  -2   2   1  390.17   15.03
  -2   2   1  388.00   15.03
  -2   2   1  377.53   15.04
   1  -2  -1   15.07    0.69
   1  -2  -1   14.68    0.68
  -1   2   1   15.19    0.69
  -1   2   1   15.26    0.69
  -1   2   1   15.29    0.68
  -1   2   1   15.69    0.68
   0  -2  -1    4.88    0.33
   0  -2  -1    4.19    0.35
   0  -2  -1    4.98    0.27
   0   2   1    5.26    0.34
   0   2   1    4.59    0.33
   0   2   1    5.29    0.29
   0   2   1    4.54    0.36
   0   2   1    4.38    0.37
  -1  -2  -1   70.62    3.03
  -1  -2  -1   76.14    3.04
  -1  -2  -1   76.88    3.02
   1   2   1   73.28    3.02
   1   2   1   70.74    2.98
   1   2   1   76.03    2.98
   1   2   1   74.39    3.05
   1   2   1   75.19    3.04
  -2  -2  -1   48.19    2.15
  -2  -2  -1   52.59    2.17
  -2  -2  -1   54.05    2.14
   2   2   1   50.95    2.14
   2   2   1   55.27    2.17
   2   2   1   49.67    2.16
  -3  -2  -1   -0.22    0.23
  -3  -2  -1    0.11    0.26
  -3  -2  -1   -0.18    0.23
   3   2   1   -0.02    0.27
   3   2   1    0.01    0.08
   3   2   1    0.38    0.30
   3   2   1    0.08    0.21
  -4  -2  -1    5.55    0.52
  -4  -2  -1    6.14    0.40
  -4  -2  -1    5.28    0.51
  -4  -2  -1    4.91    0.54
   4   2   1    6.09    0.43
   4   2   1    5.60    0.32
   4   2   1    6.35    0.60
   4   2   1    6.70    0.56
  -5  -2  -1   18.37    0.99
  -5  -2  -1   20.24    1.01
  -5  -2  -1   17.41    0.97
   5   2   1   20.54    1.15
   5   2   1   20.51    0.86
   5   2   1   20.12    0.90
   5   2   1   21.00    1.06
  -6  -2  -1    4.87    0.64
  -6  -2  -1    3.91    0.48
   6   2   1    4.74    0.50
   6   2   1    5.80    0.78
   6   2   1    5.36    0.38
  -7  -2  -1    7.27    0.76
   7   2   1    7.38    0.53
   7   2   1    7.90    0.50
   7   2   1    7.40    0.92
  -8  -2  -1    2.92    0.53
   8   2   1    3.57    0.75
   8   2   1    2.91    0.46
   8   2   1    3.85    0.46
  -9  -2  -1    1.78    0.54
   9   2   1    1.49    0.76
   9   2   1    1.67    0.33
  10   2   1    1.18    0.79
 -11  -2  -1    0.27    0.63
  11   2   1    0.10    0.94
 -12  -2  -1   -0.90    0.73
  12   2   1   -0.56    1.01
  13  -3  -1    0.16    0.82
 -13   3   1   -1.03    0.83
  12  -3  -1    0.57    0.74
 -12   3   1    0.56    0.53
 -12   3   1    1.10    0.80
  11  -3  -1    1.46    0.71
 -11   3   1    0.93    0.70
 -11   3   1    1.37    0.47
  10  -3  -1    1.74    0.60
 -10   3   1    2.58    0.46
 -10   3   1    1.98    0.66
   9  -3  -1    0.89    0.50
  -9   3   1    1.07    0.58
  -9   3   1    1.07    0.40
   8  -3  -1    2.67    0.52
  -8   3   1    3.99    0.61
  -8   3   1    3.39    0.59
   7  -3  -1   20.70    1.16
  -7   3   1   23.04    1.26
  -7   3   1   22.95    1.09
   6  -3  -1   20.47    1.08
  -6   3   1   21.60    1.01
  -6   3   1   22.36    1.05
  -6   3   1   22.39    1.14
   5  -3  -1    9.93    0.64
   5  -3  -1   10.62    0.72
  -5   3   1   11.28    0.65
  -5   3   1   11.15    0.72
  -5   3   1   10.98    0.61
  -5   3   1   11.45    0.64
   4  -3  -1  115.43    5.03
   4  -3  -1  126.88    5.06
  -4   3   1  119.51    5.06
  -4   3   1  130.02    5.04
  -4   3   1  128.90    5.03
  -4   3   1  122.67    5.03
   3  -3  -1   34.18    1.41
   3  -3  -1   33.57    1.48
   3  -3  -1   35.14    1.48
  -3   3   1   35.70    1.47
  -3   3   1   30.93    1.54
  -3   3   1   35.58    1.42
  -3   3   1   36.43    1.46
  -3   3   1   34.88    1.48
   2  -3  -1    1.19    0.16
   2  -3  -1    0.88    0.26
   2  -3  -1    0.95    0.22
  -2   3   1    1.13    0.18
  -2   3   1    1.11    0.21
  -2   3   1    0.84    0.24
  -2   3   1    0.72    0.24
  -2   3   1    0.75    0.20
   1  -3  -1   58.97    2.51
   1  -3  -1   61.77    2.53
   1  -3  -1   60.75    2.52
   1  -3  -1   62.43    2.51
  -1   3   1   63.15    2.53
  -1   3   1   59.43    2.52
  -1   3   1   61.59    2.53
  -1   3   1   63.51    2.52
   0  -3  -1   31.49    1.35
   0  -3  -1   30.16    1.31
   0  -3  -1   32.82    1.34
   0   3   1   32.28    1.36
   0   3   1   33.76    1.36
   0   3   1   32.00    1.32
   0   3   1   30.83    1.34
   0   3   1   30.13    1.36
  -1  -3  -1   31.95    1.39
  -1  -3  -1   32.66    1.36
   1   3   1   32.17    1.31
   1   3   1   30.59    1.36
   1   3   1   32.72    1.31
   1   3   1   32.65    1.39
  -2  -3  -1    0.87    0.21
  -2  -3  -1    1.05    0.28
  -2  -3  -1    0.83    0.26
   2   3   1    0.79    0.32
   2   3   1    1.02    0.32
   2   3   1    0.98    0.23
  -3  -3  -1   35.56    1.45
  -3  -3  -1   31.76    1.49
  -3  -3  -1   32.53    1.49
   3   3   1   34.26    1.46
   3   3   1   34.41    1.49
   3   3   1   33.49    1.55
  -4  -3  -1    4.24    0.22
  -4  -3  -1    3.44    0.57
  -4  -3  -1    3.89    0.38
   4   3   1    4.23    0.46
   4   3   1    3.76    0.21
   4   3   1    4.23    0.64
  -5  -3  -1    9.78    0.77
  -5  -3  -1   10.09    0.70
   5   3   1    9.46    0.46
   5   3   1    9.73    0.60
   5   3   1   10.52    0.86
  -6  -3  -1   21.15    1.21
  -6  -3  -1   26.75    1.02
  -6  -3  -1   22.90    1.19
   6   3   1   21.83    1.00
   6   3   1   22.01    1.31
  -7  -3  -1    4.56    0.54
  -7  -3  -1    4.33    0.75
   7   3   1    5.07    0.38
   7   3   1    4.10    0.57
   7   3   1    4.58    0.74
  -8  -3  -1    6.52    0.84
   8   3   1    5.99    0.84
   8   3   1    6.06    0.51
   9   3   1    1.87    0.87
 -10  -3  -1   -0.31    0.63
  10   3   1    0.26    0.92
 -11  -3  -1   -0.54    0.70
  11   3   1   -0.63    0.99
  13  -4  -1   -1.19    0.83
 -13   4   1   -0.58    0.82
  12  -4  -1   -0.30    0.72
 -12   4   1    0.01    0.82
 -12   4   1    0.59    0.58
  11  -4  -1    0.37    0.69
 -11   4   1    0.90    0.51
 -11   4   1    1.84    0.79
  10  -4  -1    0.11    0.59
 -10   4   1    0.05    0.44
 -10   4   1   -0.05    0.67
   9  -4  -1    0.65    0.54
  -9   4   1    1.30    0.62
  -9   4   1    0.89    0.44
   8  -4  -1   14.16    1.01
  -8   4   1   16.41    0.95
  -8   4   1   16.32    1.14
   7  -4  -1    2.50    0.44
  -7   4   1    3.93    0.60
  -7   4   1    3.47    0.44
   6  -4  -1   24.20    1.24
  -6   4   1   25.65    1.22
  -6   4   1   26.32    1.34
   5  -4  -1   -0.26    0.31
  -5   4   1   -0.02    0.41
  -5   4   1   -0.28    0.35
  -5   4   1   -0.15    0.32
   4  -4  -1    0.49    0.09
   4  -4  -1    0.56    0.33
   4  -4  -1    0.21    0.28
  -4   4   1    0.66    0.10
  -4   4   1   -0.08    0.26
  -4   4   1    0.21    0.29
  -4   4   1    0.44    0.35
  -4   4   1    0.37    0.28
   3  -4  -1  143.74    5.75
   3  -4  -1  137.89    5.69
   3  -4  -1  137.53    5.74
  -3   4   1  143.01    5.74
  -3   4   1  137.16    5.71
  -3   4   1  136.43    5.75
  -3   4   1  148.40    5.74
  -3   4   1  146.58    5.73
   2  -4  -1   11.35    0.65
   2  -4  -1   12.23    0.63
   2  -4  -1   11.99    0.59
  -2   4   1   12.58    0.65
  -2   4   1   12.30    0.67
  -2   4   1   12.10    0.64
  -2   4   1   12.66    0.61
   1  -4  -1   43.40    1.82
   1  -4  -1   42.58    1.85
   1  -4  -1   42.23    1.82
   1  -4  -1   44.36    1.81
  -1   4   1   42.87    1.82
  -1   4   1   44.36    1.84
  -1   4   1   42.55    1.83
  -1   4   1   45.65    1.83
   0  -4  -1    9.19    0.63
   0  -4  -1   10.17    0.55
   0   4   1   10.59    0.61
   0   4   1    9.72    0.64
   0   4   1   10.77    0.59
   0   4   1   10.32    0.52
   0   4   1    9.88    0.50
   0   4   1    9.74    0.57
  -1  -4  -1    2.09    0.31
  -1  -4  -1    1.89    0.25
   1   4   1    1.88    0.24
   1   4   1    1.53    0.35
   1   4   1    1.59    0.22
   1   4   1    1.55    0.31
   1   4   1    1.58    0.30
  -2  -4  -1    0.75    0.24
  -2  -4  -1    1.04    0.30
  -2  -4  -1    1.03    0.34
   2   4   1    0.84    0.35
   2   4   1    1.22    0.15
   2   4   1    1.16    0.36
   2   4   1    0.78    0.11
  -3  -4  -1   13.26    0.81
  -3  -4  -1   14.94    0.74
   3   4   1   14.61    0.94
  -4  -4  -1   15.94    0.81
  -4  -4  -1   14.97    0.95
   4   4   1   15.26    1.06
  -5  -4  -1   44.93    1.82
  -5  -4  -1   40.98    1.91
   5   4   1   39.36    1.95
   5   4   1   42.27    2.02
  -6  -4  -1    2.35    0.53
  -6  -4  -1    1.81    0.39
   6   4   1    2.46    0.61
   6   4   1    2.06    0.34
  -7  -4  -1    1.83    0.54
   7   4   1    2.72    0.74
   7   4   1    1.90    0.32
  -8  -4  -1    4.52    1.07
   8   4   1    5.63    0.93
   8   4   1    5.64    0.59
  -9  -4  -1    0.15    0.63
   9   4   1   -0.24    0.90
 -10  -4  -1    2.55    0.75
  10   4   1    3.16    1.03
 -11  -4  -1    0.66    0.79
  11   4   1    0.55    1.02
  13  -5  -1   -0.48    0.91
 -13   5   1   -0.20    0.71
 -13   5   1   -0.95    0.86
  12  -5  -1    0.43    0.76
 -12   5   1    0.60    0.61
 -12   5   1    0.62    0.90
  11  -5  -1   -0.27    0.68
 -11   5   1    0.61    0.56
 -11   5   1   -0.14    0.80
  10  -5  -1    0.50    0.62
 -10   5   1   -0.26    0.72
 -10   5   1    0.06    0.49
  -9   5   1    0.77    1.24
  -9   5   1    0.81    0.48
   8  -5  -1    1.72    0.53
  -8   5   1    2.26    0.65
  -8   5   1    1.95    0.45
   7  -5  -1    7.93    0.82
  -7   5   1    8.32    0.76
  -7   5   1    8.85    0.95
   6  -5  -1    6.17    0.67
  -6   5   1    7.21    0.72
  -6   5   1    7.36    0.77
   5  -5  -1   16.01    0.96
  -5   5   1   16.35    0.90
  -5   5   1   16.74    1.04
   4  -5  -1    0.14    0.14
   4  -5  -1    0.26    0.33
  -4   5   1   -0.04    0.34
  -4   5   1    0.32    0.20
  -4   5   1    0.25    0.41
   3  -5  -1   27.68    1.27
   3  -5  -1   27.04    1.17
   3  -5  -1   26.70    1.28
  -3   5   1   29.33    1.45
  -3   5   1   26.74    1.28
  -3   5   1   27.90    1.20
  -3   5   1   26.96    1.30
   2  -5  -1    5.87    0.47
   2  -5  -1    6.77    0.51
   2  -5  -1    5.70    0.59
  -2   5   1    6.74    0.57
  -2   5   1    5.25    0.57
  -2   5   1    4.94    0.50
  -2   5   1    5.63    0.51
  -2   5   1    5.99    0.47
   1  -5  -1    0.68    0.35
   1  -5  -1    0.81    0.27
  -1   5   1    0.29    0.32
  -1   5   1    0.69    0.27
  -1   5   1    0.26    0.31
  -1   5   1    0.27    0.24
  -1   5   1    0.51    0.28
   0  -5  -1   38.69    1.60
   0  -5  -1   35.59    1.63
   0   5   1   36.02    1.63
   0   5   1   40.11    1.64
   0   5   1   35.73    1.65
   0   5   1   36.88    1.58
   0   5   1   38.27    1.56
   0   5   1   36.75    1.62
  -1  -5  -1   43.55    1.82
  -1  -5  -1   40.89    1.86
   1   5   1   44.53    1.87
   1   5   1   41.99    1.83
   1   5   1   43.20    1.76
   1   5   1   41.98    1.89
   1   5   1   43.09    1.77
  -2  -5  -1    0.49    0.27
  -2  -5  -1    0.55    0.36
   2   5   1    0.49    0.45
   2   5   1    0.34    0.30
   2   5   1    0.29    0.14
   2   5   1    0.51    0.15
  -3  -5  -1    4.14    0.70
  -3  -5  -1    4.50    0.48
   3   5   1    3.23    0.54
   3   5   1    3.85    0.56
  -4  -5  -1   41.93    1.74
  -4  -5  -1   40.28    1.86
   4   5   1   39.48    1.77
   4   5   1   38.78    1.89
  -5  -5  -1   -0.09    0.49
  -5  -5  -1    0.50    0.33
   5   5   1    0.51    0.59
   5   5   1    0.69    0.35
  -6  -5  -1   17.00    1.16
  -6  -5  -1   18.62    1.05
   6   5   1   16.76    1.24
   6   5   1   16.95    0.91
  -7  -5  -1    2.86    0.62
   7   5   1    3.68    0.38
   7   5   1    3.88    0.94
  -8  -5  -1    1.53    0.68
   8   5   1    1.88    0.86
  -9  -5  -1    3.62    0.80
   9   5   1    3.49    1.07
 -10  -5  -1    0.26    0.76
  10   5   1   -0.24    1.09
  12  -6  -1    1.01    0.80
 -12   6   1    0.84    0.64
 -12   6   1    1.53    0.90
  11  -6  -1    0.82    0.76
 -11   6   1    0.50    0.61
 -11   6   1    0.77    0.78
  10  -6  -1    1.67    0.68
 -10   6   1    0.38    0.53
 -10   6   1    1.20    0.72
   9  -6  -1    0.06    0.57
  -9   6   1    0.19    0.69
  -9   6   1    0.04    0.51
   8  -6  -1    0.72    0.51
  -8   6   1    0.85    0.52
  -8   6   1    1.55    0.67
   7  -6  -1    1.37    0.49
  -7   6   1    1.15    0.47
  -7   6   1    1.40    0.59
   6  -6  -1    0.32    0.48
  -6   6   1    0.10    0.55
  -6   6   1    0.21    0.45
   5  -6  -1   20.15    1.13
  -5   6   1   20.29    1.18
  -5   6   1   18.60    1.06
   4  -6  -1    2.87    0.34
   4  -6  -1    2.60    0.46
  -4   6   1    1.99    0.44
  -4   6   1    2.29    0.50
  -4   6   1    2.97    0.40
   3  -6  -1    2.87    0.40
   3  -6  -1    2.21    0.45
   3  -6  -1    2.75    0.46
  -3   6   1    2.65    0.45
  -3   6   1    2.04    0.45
  -3   6   1    2.33    0.44
   2  -6  -1   28.18    1.38
   2  -6  -1   28.81    1.30
  -2   6   1   28.72    1.36
  -2   6   1   29.81    1.30
  -2   6   1   27.70    1.30
  -2   6   1   28.15    1.34
   1  -6  -1    0.87    0.33
  -1   6   1   -0.02    0.28
  -1   6   1    0.69    0.32
  -1   6   1    0.34    0.37
  -1   6   1    0.40    0.39
  -1   6   1    0.49    0.34
   0  -6  -1    0.82    0.36
   0   6   1    0.76    0.35
   0   6   1    0.29    0.43
   0   6   1    0.89    0.41
   0   6   1    0.26    0.24
   0   6   1    0.56    0.32
  -1  -6  -1    0.68    0.40
   1   6   1   -0.37    0.20
   1   6   1    0.05    0.49
   1   6   1    0.09    0.34
   1   6   1    0.17    0.23
  -2  -6  -1   12.57    0.68
  -2  -6  -1   10.54    0.87
   2   6   1   10.07    0.89
   2   6   1   10.42    0.75
   2   6   1   10.48    0.54
  -3  -6  -1    0.82    0.51
  -3  -6  -1    1.51    0.33
   3   6   1    0.84    0.38
   3   6   1    0.65    0.52
  -4  -6  -1    8.77    0.89
  -4  -6  -1    8.82    0.64
   4   6   1    6.62    1.01
   4   6   1    7.66    0.72
  -5  -6  -1    2.01    0.56
  -5  -6  -1    2.41    0.42
   5   6   1    1.73    0.41
   5   6   1    0.95    0.67
  -6  -6  -1    2.76    0.62
   6   6   1    1.63    1.28
   6   6   1    2.60    0.41
  -7  -6  -1    5.22    0.77
   7   6   1    7.17    0.98
  -8  -6  -1   -0.15    0.74
   8   6   1    0.41    0.92
  -9  -6  -1   -0.24    0.77
   9   6   1   -0.41    1.07
  12  -7  -1   -0.06    0.83
 -12   7   1    0.28    0.69
 -12   7   1    1.07    0.94
  11  -7  -1   -0.56    0.77
 -11   7   1    0.25    0.88
 -11   7   1   -0.10    0.66
  10  -7  -1    0.36    0.70
 -10   7   1    0.82    0.63
 -10   7   1   -0.25    0.83
   9  -7  -1    0.24    0.68
  -9   7   1    0.78    0.60
  -9   7   1    0.91    0.78
   8  -7  -1    1.00    0.58
  -8   7   1    0.79    0.68
  -8   7   1    0.56    0.65
   7  -7  -1    5.77    0.84
  -7   7   1    4.45    0.61
  -7   7   1    4.86    0.74
   6  -7  -1    0.80    0.54
  -6   7   1   -0.01    0.59
  -6   7   1    0.76    0.50
   5  -7  -1    6.23    0.87
  -5   7   1    6.31    0.38
  -5   7   1    6.05    0.87
  -5   7   1    6.17    0.79
   4  -7  -1   14.37    0.96
   4  -7  -1   15.15    0.75
  -4   7   1   15.63    0.79
  -4   7   1   14.72    1.00
  -4   7   1   14.04    1.01
   3  -7  -1    3.53    0.56
   3  -7  -1    4.47    0.53
  -3   7   1    3.21    0.53
  -3   7   1    3.37    0.52
  -3   7   1    4.98    0.56
   2  -7  -1    4.65    0.79
  -2   7   1    4.06    0.67
  -2   7   1    5.16    0.60
  -2   7   1    4.12    0.53
  -2   7   1    3.35    0.57
   1  -7  -1    1.43    0.40
  -1   7   1    0.00    0.30
  -1   7   1    0.62    0.37
  -1   7   1    0.45    0.46
  -1   7   1    0.43    0.41
   0  -7  -1    2.61    0.46
   0   7   1    1.68    0.43
   0   7   1    1.34    0.30
   0   7   1    1.29    0.50
   0   7   1    2.00    0.34
  -1  -7  -1   13.19    0.95
   1   7   1   13.03    0.87
   1   7   1   11.48    0.66
   1   7   1   12.90    0.69
   1   7   1   12.47    1.08
  -2  -7  -1   11.74    0.96
   2   7   1   11.20    0.83
   2   7   1   11.18    1.07
   2   7   1   11.61    0.58
   2   7   1   11.06    0.58
  -3  -7  -1    7.50    0.88
   3   7   1    6.17    1.03
   3   7   1    6.68    0.74
  -4  -7  -1    1.54    0.57
   4   7   1    1.07    0.70
   4   7   1    1.19    0.45
  -5  -7  -1   12.08    1.15
   5   7   1   11.47    1.27
   5   7   1   10.47    0.87
  -6  -7  -1    0.11    0.71
   6   7   1    0.09    0.48
   6   7   1   -0.43    0.84
  -7  -7  -1    1.00    0.79
   7   7   1    1.24    0.91
  -8  -7  -1    0.84    0.82
   8   7   1    1.28    1.04
  -9  -7  -1    0.36    0.82
   9   7   1   -1.81    1.13
  11  -8  -1    0.25    0.84
 -11   8   1    0.20    0.75
 -11   8   1    0.22    0.93
  10  -8  -1    0.28    0.77
 -10   8   1   -0.36    0.87
 -10   8   1   -0.06    0.68
   9  -8  -1    1.32    0.69
  -9   8   1    0.96    0.87
  -9   8   1   -0.08    0.62
   8  -8  -1    1.54    0.71
  -8   8   1    0.14    0.76
  -8   8   1    0.08    0.59
   7  -8  -1    6.85    1.10
  -7   8   1    5.68    0.96
  -7   8   1    5.09    0.69
  -6   8   1    1.99    0.64
   5  -8  -1    1.74    0.56
  -5   8   1    1.11    0.55
  -5   8   1    1.18    0.24
  -5   8   1    0.98    0.57
   4  -8  -1    2.76    0.60
   4  -8  -1    3.79    0.53
  -4   8   1    3.47    0.60
  -4   8   1    3.98    0.61
   3  -8  -1    0.15    0.51
   3  -8  -1    1.10    0.35
  -3   8   1    0.21    0.48
  -3   8   1    0.04    0.51
  -2   8   1    1.61    0.48
  -2   8   1    1.70    0.47
  -2   8   1    2.32    0.58
  -1   8   1    2.17    0.51
  -1   8   1    1.35    0.57
  -1   8   1    1.57    0.41
  -1   8   1    1.36    0.38
   0   8   1    3.61    0.65
   0   8   1    4.30    0.54
   0   8   1    4.03    0.60
   0   8   1    3.37    0.51
   1   8   1    5.13    0.72
   1   8   1    5.01    0.79
   1   8   1    4.74    0.50
   1   8   1    5.93    0.79
  -2  -8  -1    6.49    0.96
   2   8   1    4.25    0.42
   2   8   1    4.57    0.71
   2   8   1    4.78    0.77
   3   8   1    2.00    0.52
  -4  -8  -1    0.01    0.64
   4   8   1   -0.08    0.50
   4   8   1    0.66    0.75
  -5  -8  -1    1.49    0.77
   5   8   1    0.56    0.80
   5   8   1    1.26    0.54
  -6  -8  -1    0.76    0.72
   6   8   1    0.79    0.91
  -7  -8  -1   -0.02    0.77
   7   8   1   -0.92    1.03
  -8  -8  -1    1.19    0.83
   8   8   1    0.12    1.14
  10  -9  -1    1.03    0.86
 -10   9   1   -0.46    0.72
 -10   9   1   -0.59    0.99
   9  -9  -1    1.04    0.83
  -9   9   1    0.02    0.69
  -9   9   1    0.59    0.85
   8  -9  -1    1.65    0.82
  -8   9   1    1.22    0.82
  -8   9   1    0.61    0.64
   7  -9  -1    1.14    0.69
  -7   9   1   -0.11    0.74
  -7   9   1    0.36    0.66
   6  -9  -1    3.84    0.77
  -6   9   1    2.87    0.72
  -6   9   1    2.92    0.67
   5  -9  -1    0.03    0.62
  -5   9   1    0.24    0.65
  -5   9   1    0.13    0.61
   4  -9  -1    2.15    0.39
   4  -9  -1    2.10    0.67
  -4   9   1    2.08    0.62
  -4   9   1    1.72    0.72
   3  -9  -1    8.12    0.81
  -3   9   1    7.95    0.98
  -3   9   1    6.96    0.94
  -2   9   1    2.21    0.52
  -2   9   1    1.66    0.92
  -2   9   1    1.99    0.57
  -1   9   1    0.06    0.44
  -1   9   1    0.01    0.52
  -1   9   1   -0.21    1.08
   0  -9  -1    1.90    0.61
   0   9   1   -0.06    0.38
   0   9   1   -0.33    0.52
  -1  -9  -1    4.05    0.70
   1   9   1    3.33    0.57
   1   9   1    3.42    0.59
   1   9   1    3.26    0.74
  -2  -9  -1    0.62    0.67
   2   9   1    0.88    0.75
   2   9   1    0.35    0.54
  -3  -9  -1    0.84    0.76
   3   9   1    0.11    0.81
   3   9   1    0.08    0.56
  -4  -9  -1    1.22    0.77
   4   9   1    0.27    0.59
   4   9   1    1.06    0.91
  -5  -9  -1    1.46    0.83
   5   9   1    0.91    0.91
  -6  -9  -1    0.32    0.85
   6   9   1   -0.90    1.03
   7   9   1   -0.12    1.09
   9 -10  -1    1.32    0.92
  -9  10   1   -0.33    0.82
  -9  10   1   -0.07    0.94
   8 -10  -1    0.52    0.82
  -8  10   1    0.94    0.73
  -8  10   1    1.00    0.88
   7 -10  -1    1.52    0.79
  -7  10   1    0.93    0.77
  -7  10   1    0.82    0.81
   6 -10  -1    1.13    0.81
  -6  10   1   -0.10    0.71
  -6  10   1    0.17    0.78
   5 -10  -1    1.58    0.80
  -5  10   1   -0.09    0.72
  -5  10   1   -0.04    0.69
   4 -10  -1    3.19    0.52
   4 -10  -1    3.38    0.79
  -4  10   1    3.15    0.69
  -4  10   1    3.38    0.75
   3 -10  -1    1.52    0.52
  -3  10   1    0.62    0.67
  -3  10   1    1.09    0.60
  -3  10   1    0.69    0.68
   2 -10  -1    0.97    0.56
  -2  10   1    0.53    0.54
  -2  10   1    0.14    0.61
  -2  10   1   -0.17    0.71
   1 -10  -1    1.60    0.62
  -1  10   1    0.28    0.72
  -1  10   1   -0.20    0.59
  -1  10   1    0.15    0.48
   0  10   1    0.46    0.47
   0  10   1    0.59    0.74
   0  10   1    0.24    0.69
  -1 -10  -1    2.43    0.77
   1  10   1    0.38    0.81
  -2 -10  -1    1.18    0.83
   2  10   1    0.22    0.64
   2  10   1   -0.42    0.86
  -3 -10  -1    2.28    0.88
   3  10   1    1.38    0.95
   3  10   1    1.14    0.68
  -4 -10  -1    0.78    0.86
   4  10   1    0.14    0.94
  -5 -10  -1    1.60    0.91
   5  10   1   -0.45    1.04
   8 -11  -1    2.96    1.00
  -8  11   1    0.71    0.86
  -8  11   1    1.07    1.02
   7 -11  -1    1.54    0.95
  -7  11   1    0.50    0.84
  -7  11   1    0.82    0.90
   6 -11  -1    2.07    0.89
  -6  11   1    0.53    0.86
  -6  11   1    0.52    0.77
   5 -11  -1    1.66    0.82
  -5  11   1    0.41    0.80
  -5  11   1    0.16    0.80
  -4  11   1   -0.14    0.79
  -4  11   1   -0.33    0.72
  -4  11   1    0.77    0.77
   3 -11  -1    0.48    1.09
  -3  11   1    0.45    0.76
  -3  11   1    1.44    0.78
  -3  11   1    1.79    0.80
   2 -11  -1    1.10    0.68
  -2  11   1    0.31    0.62
  -2  11   1   -0.35    0.69
  -2  11   1   -0.41    0.74
   1 -11  -1    1.28    0.75
  -1  11   1    0.44    0.82
  -1  11   1    0.08    0.69
   0 -11  -1    1.39    0.81
   0  11   1   -0.22    0.88
   0  11   1    0.33    0.72
  -1 -11  -1    1.61    0.89
   1  11   1    0.31    0.88
   1  11   1    0.19    0.70
  -2 -11  -1    1.82    0.94
   2  11   1    0.62    0.75
   2  11   1    1.68    1.02
  -3 -11  -1    1.04    0.95
   3  11   1   -0.05    1.01
  -5  12   1    0.29    0.88
  -5  12   1    0.23    0.88
  -5  12   1    1.77    0.87
  -4  12   1   -0.59    0.83
  -4  12   1    0.61    0.90
  -4  12   1    0.48    0.79
  -3  12   1   -0.26    0.83
  -3  12   1   -0.42    0.90
  -2  12   1   -0.32    0.90
  -2  12   1   -0.02    0.78
   1 -12  -1    0.87    0.89
  -1  12   1   -0.20    0.91
  -1  12   1    0.96    0.79
   0 -12  -1    1.83    0.96
   0  12   1   -0.50    0.81
   0  12   1   -0.05    0.93
   1  13  -2    0.65    0.95
   1  13  -2   -0.31    1.18
   1  13  -2   -0.20    0.92
   0  13  -2    0.53    0.86
   0  13  -2    0.18    0.96
   0  13  -2    0.35    0.74
  -1  13  -2    0.63    0.76
  -1  13  -2    1.76    0.90
  -1  13  -2    0.22    0.80
  -2  13  -2    0.19    0.80
  -2  13  -2    1.04    0.79
  -2  13  -2    0.75    0.86
  -3  13  -2    0.59    0.79
  -3  13  -2    0.95    0.88
  -3  13  -2    1.65    0.86
  -4  13  -2   -1.35    0.86
  -4  13  -2    1.64    0.81
  -4  13  -2   -0.46    0.89
  -5  13  -2   -0.63    0.90
  -5  13  -2   -0.23    0.77
   4  12  -2   -0.80    0.99
  -4 -12   2    1.36    0.96
   3  12  -2    0.84    0.96
  -3 -12   2    3.11    0.93
   2  12  -2    0.35    0.91
  -2 -12   2    3.05    0.87
   1  12  -2    0.05    0.87
   1  12  -2    0.08    0.62
   1  12  -2   -0.98    0.79
   0  12  -2    0.70    0.64
   0  12  -2   -0.50    0.73
   0  12  -2    0.41    0.60
   0  12  -2    0.98    0.86
  -1  12  -2    0.86    0.81
  -1  12  -2    0.15    0.77
  -1  12  -2    1.11    0.83
  -1  12  -2    1.31    0.67
  -2  12  -2   -0.01    0.73
  -2  12  -2   -0.27    0.66
  -2  12  -2    0.01    0.65
  -2  12  -2    0.17    0.59
  -3  12  -2    0.67    0.65
  -3  12  -2    1.06    0.73
  -3  12  -2    0.74    0.80
  -4  12  -2    4.90    0.86
  -4  12  -2    4.67    0.81
  -5  12  -2   -0.21    0.67
  -5  12  -2    0.42    0.87
   5 -12   2    2.36    0.93
  -6  12  -2   -0.37    0.74
  -6  12  -2    0.67    0.96
   6 -12   2    3.30    1.00
  -7  12  -2    0.50    0.77
  -7  12  -2   -0.16    0.96
   7 -12   2    4.50    1.03
   6  11  -2   -1.44    0.99
  -6 -11   2    1.04    0.97
   5  11  -2    0.74    0.94
  -5 -11   2    2.09    0.86
   4  11  -2    0.16    0.89
  -4 -11   2    0.43    0.80
   3  11  -2    0.44    0.56
   3  11  -2    0.13    0.81
  -3 -11   2    1.40    0.80
   2  11  -2    0.38    0.54
   2  11  -2    0.41    0.49
   2  11  -2    0.37    0.79
  -2 -11   2    2.20    0.76
   1  11  -2    0.46    0.53
   1  11  -2    0.27    0.72
   1  11  -2   -0.12    0.50
  -1 -11   2    2.09    0.68
   0  11  -2   -0.36    0.52
   0  11  -2   -0.46    0.64
   0  11  -2    0.43    0.55
   0  11  -2    0.04    0.71
  -1  11  -2    0.50    0.58
  -1  11  -2   -0.06    0.54
  -1  11  -2   -0.02    0.64
  -2  11  -2    3.22    0.65
  -2  11  -2    2.92    0.55
  -2  11  -2    3.01    0.71
  -2  11  -2    3.55    0.65
  -3  11  -2   -0.14    0.59
  -3  11  -2    0.41    0.45
   3 -11   2    2.08    0.72
  -4  11  -2   -0.78    0.64
  -4  11  -2    0.35    0.68
   4 -11   2    2.11    0.75
  -5  11  -2    0.64    0.66
  -5  11  -2    2.33    0.82
   5 -11   2    3.59    0.86
  -6  11  -2    0.35    0.84
  -6  11  -2   -0.02    0.70
   6 -11   2    2.01    0.87
  -7  11  -2    0.49    0.88
  -7  11  -2    0.27    0.74
   7 -11   2    1.68    0.94
  -8  11  -2    0.62    0.75
  -8  11  -2    1.66    1.01
   8 -11   2    2.81    1.08
  -9  11  -2   -0.44    0.86
  -9  11  -2   -0.31    1.08
   9 -11   2    2.58    1.10
   7  10  -2    0.71    1.03
  -7 -10   2    1.24    0.90
   6  10  -2   -1.08    0.88
  -6 -10   2    0.90    0.85
   5  10  -2   -0.50    0.81
  -5 -10   2    0.63    0.73
   4  10  -2    0.38    0.79
  -4 -10   2    1.19    0.71
   3  10  -2    0.35    0.44
   3  10  -2    0.10    0.40
  -3 -10   2    1.34    0.68
   2  10  -2   -0.27    0.43
   2  10  -2   -0.05    0.40
   2  10  -2    0.54    0.67
  -2 -10   2    1.90    1.07
   1  10  -2    0.47    0.68
   1  10  -2    0.62    0.47
   1  10  -2    0.63    0.45
  -1 -10   2    1.52    0.58
   0  10  -2    3.05    0.54
   0  10  -2    2.82    0.66
   0  10  -2    3.11    0.52
  -1  10  -2    1.13    0.49
  -1  10  -2    1.13    0.51
  -1  10  -2    1.25    0.60
  -1  10  -2    1.75    0.53
  -2  10  -2    0.00    0.48
  -2  10  -2    0.50    0.53
  -2  10  -2    0.21    0.43
   2 -10   2    1.30    0.62
  -3  10  -2   10.98    0.79
  -3  10  -2   11.28    1.06
  -3  10  -2   11.89    1.00
   3 -10   2   13.69    1.13
  -4  10  -2   -0.25    0.52
  -4  10  -2   -0.31    0.33
  -4  10  -2   -0.16    0.64
   4 -10   2    1.37    0.70
  -5  10  -2    0.05    0.61
  -5  10  -2    0.00    0.69
   5 -10   2    1.59    0.71
  -6  10  -2    1.73    0.67
  -6  10  -2    1.47    0.78
   6 -10   2    3.41    0.80
  -7  10  -2    0.33    0.68
  -7  10  -2    1.00    0.85
   7 -10   2    2.14    0.82
  -8  10  -2   -0.39    0.92
  -8  10  -2   -0.24    0.73
   8 -10   2    3.22    0.91
  -9  10  -2    0.22    0.97
  -9  10  -2    0.70    0.77
   9 -10   2    1.90    0.91
 -10  10  -2   -0.52    0.99
 -10  10  -2    0.00    0.82
  10 -10   2    0.86    1.06
   8   9  -2    0.12    0.99
  -8  -9   2    0.30    0.80
   7   9  -2    0.47    0.89
  -7  -9   2    0.41    0.79
   6   9  -2    0.74    0.80
  -6  -9   2    1.75    0.73
   5   9  -2    0.36    1.11
  -5  -9   2    1.74    0.68
   4   9  -2    0.19    0.38
   4   9  -2   -0.30    0.64
   4   9  -2    0.15    0.35
  -4  -9   2    0.92    0.59
   3   9  -2    0.63    0.36
   3   9  -2    0.65    0.38
   3   9  -2    0.40    0.61
  -3  -9   2    1.67    0.61
   2   9  -2    0.23    0.37
   2   9  -2    0.48    0.57
   2   9  -2    0.49    0.38
  -2  -9   2    1.32    0.55
   1   9  -2    7.02    0.74
   1   9  -2    7.71    0.92
   1   9  -2    6.83    0.71
  -1  -9   2    8.06    0.82
   0   9  -2   -0.45    0.49
   0   9  -2    0.02    0.42
   0   9  -2    0.06    0.39
   0  -9   2    0.44    0.44
  -1   9  -2    1.23    0.51
  -1   9  -2    0.38    0.41
  -1   9  -2    0.88    0.46
  -1   9  -2    0.24    0.43
  -2   9  -2    5.15    0.75
  -2   9  -2    5.25    0.80
  -2   9  -2    4.61    0.62
   2  -9   2    5.45    0.84
  -3   9  -2    1.53    0.56
  -3   9  -2    2.01    0.52
  -3   9  -2    1.68    0.35
  -3   9  -2    2.06    0.36
   3  -9   2    2.10    0.54
  -4   9  -2    5.45    0.87
  -4   9  -2    7.35    0.86
  -4   9  -2    6.88    0.57
  -4   9  -2    8.57    0.57
   4  -9   2    8.57    0.85
  -5   9  -2    1.74    0.56
  -5   9  -2    2.39    0.29
  -5   9  -2    2.17    0.66
  -6   9  -2    0.37    0.69
  -6   9  -2   -0.42    0.58
   6  -9   2    2.49    1.05
  -7   9  -2    2.61    0.67
  -7   9  -2    2.86    0.74
   7  -9   2    4.78    0.82
  -8   9  -2   -0.02    0.67
  -8   9  -2   -0.14    0.81
   8  -9   2    0.77    0.84
  -9   9  -2    2.14    0.73
  -9   9  -2    1.38    0.89
   9  -9   2    2.93    0.93
 -10   9  -2   -0.87    0.73
 -10   9  -2    0.43    0.93
  10  -9   2   -1.25    0.87
 -11   9  -2   -0.11    1.15
 -11   9  -2   -1.03    0.79
  11  -9   2   -0.78    1.01
   9   8  -2   -0.71    1.02
  -9  -8   2   -0.42    0.81
   8   8  -2    0.26    0.88
  -8  -8   2    0.74    0.79
   7   8  -2    3.37    0.86
  -7  -8   2    3.90    0.75
   6   8  -2   -0.21    0.70
  -6  -8   2    0.60    0.63
   5   8  -2    1.02    0.64
   5   8  -2    0.49    0.32
  -5  -8   2    0.83    0.29
   4   8  -2   -0.51    0.26
   4   8  -2    0.54    0.59
   4   8  -2    0.20    0.31
   4   8  -2    0.58    0.32
  -4  -8   2    0.75    0.56
  -4  -8   2    0.13    0.28
   3   8  -2    0.42    0.32
   3   8  -2   -0.23    0.27
   3   8  -2    0.17    0.55
   3   8  -2   -0.22    0.30
  -3  -8   2    0.80    0.47
  -3  -8   2    0.25    0.29
   2   8  -2   -0.17    0.30
   2   8  -2    0.30    0.33
   2   8  -2   -0.04    0.33
   2   8  -2    0.10    0.48
   2   8  -2    0.03    0.32
  -2  -8   2    0.62    0.43
   1   8  -2    6.53    0.83
   1   8  -2    5.91    0.60
   1   8  -2    5.67    0.58
   1   8  -2    5.31    0.60
  -1  -8   2    6.36    0.75
   0   8  -2    0.17    0.43
   0   8  -2    0.00    0.35
   0   8  -2    0.05    0.37
   0  -8   2    0.72    0.39
  -1   8  -2    7.60    0.73
  -1   8  -2    8.87    0.73
  -1   8  -2    8.80    0.74
  -1   8  -2    7.15    0.70
   1  -8   2    9.92    0.82
  -2   8  -2   12.21    0.86
  -2   8  -2   13.40    0.90
  -2   8  -2   12.53    0.75
  -2   8  -2   13.48    0.74
   2  -8   2   13.08    0.91
  -3   8  -2    0.20    0.44
  -3   8  -2    0.32    0.28
  -3   8  -2    0.16    0.27
   3  -8   2    0.63    0.43
   3  -8   2    0.77    0.42
  -4   8  -2    6.52    0.86
  -4   8  -2    5.94    0.48
  -4   8  -2    5.69    0.46
   4  -8   2    6.63    0.86
   4  -8   2    6.74    0.75
  -5   8  -2    3.72    0.37
  -5   8  -2    4.15    0.66
   5  -8   2    4.37    0.55
   5  -8   2    6.05    0.91
  -6   8  -2   -0.34    0.61
   6  -8   2    0.27    0.46
   6  -8   2    0.74    0.60
  -7   8  -2    2.55    0.75
   7  -8   2    3.53    0.95
   7  -8   2    3.84    0.80
  -8   8  -2    0.27    0.71
   8  -8   2    0.97    0.72
   8  -8   2    0.45    0.58
  -9   8  -2   -0.04    0.82
   9  -8   2    0.66    0.79
   9  -8   2    0.98    0.64
 -10   8  -2    0.76    0.85
  10  -8   2    1.81    0.89
  10  -8   2    1.34    0.66
 -11   8  -2   -0.11    0.87
 -11   8  -2   -0.21    0.74
  11  -8   2   -0.02    0.90
  10   7  -2   -0.07    1.01
 -10  -7   2    0.47    0.81
   9   7  -2    1.49    0.94
  -9  -7   2    1.12    0.75
   8   7  -2    1.15    0.82
  -8  -7   2    1.94    0.72
   7   7  -2    0.64    0.71
  -7  -7   2    0.97    0.60
  -7  -7   2    0.37    0.41
   6   7  -2    0.97    0.61
  -6  -7   2    1.44    0.36
  -6  -7   2    1.27    0.60
   5   7  -2   -0.13    0.27
   5   7  -2   -0.14    0.24
   5   7  -2   -0.33    0.19
   5   7  -2    0.12    0.54
  -5  -7   2    0.53    0.31
  -5  -7   2    0.57    0.53
   4   7  -2    4.92    0.47
   4   7  -2    5.36    0.83
   4   7  -2    5.94    0.53
  -4  -7   2    5.06    0.50
  -4  -7   2    5.57    0.79
   3   7  -2    7.99    0.86
   3   7  -2    8.09    0.61
   3   7  -2    7.32    0.54
   3   7  -2    7.71    0.52
  -3  -7   2    8.82    0.78
  -3  -7   2    8.13    0.57
   2   7  -2    0.58    0.27
   2   7  -2    0.88    0.29
   2   7  -2    0.78    0.31
   2   7  -2    1.32    0.47
  -2  -7   2    1.22    0.39
  -2  -7   2    1.10    0.28
   1   7  -2    8.65    0.65
   1   7  -2    8.03    0.73
   1   7  -2    8.35    0.60
   1   7  -2    9.03    0.58
   1   7  -2    8.24    0.62
  -1  -7   2    8.79    0.61
  -1  -7   2    9.64    0.68
   0   7  -2   25.35    1.21
   0   7  -2   26.51    1.28
   0   7  -2   26.71    1.20
   0   7  -2   26.01    1.24
   0   7  -2   26.67    1.22
   0   7  -2   26.13    1.21
   0   7  -2   26.06    1.21
   0  -7   2   26.70    1.22
  -1   7  -2    9.87    0.73
  -1   7  -2    9.36    0.66
  -1   7  -2    9.72    0.61
  -1   7  -2    9.53    0.68
  -1   7  -2    9.54    0.65
  -1   7  -2   10.11    0.66
   1  -7   2    9.97    0.71
  -2   7  -2    6.24    0.50
  -2   7  -2    7.15    0.68
  -2   7  -2    6.25    0.49
   2  -7   2    7.15    0.65
   2  -7   2    6.96    0.61
  -3   7  -2   37.80    1.72
  -3   7  -2   37.08    1.57
  -3   7  -2   37.46    1.56
   3  -7   2   35.00    1.64
   3  -7   2   37.41    1.69
  -4   7  -2    1.90    0.23
  -4   7  -2    1.95    0.48
  -4   7  -2    2.17    0.35
   4  -7   2    2.55    0.43
   4  -7   2    2.50    0.48
  -5   7  -2    6.04    0.38
  -5   7  -2    6.52    0.36
  -5   7  -2    6.35    0.86
   5  -7   2    6.48    0.72
   5  -7   2    6.81    0.85
  -6   7  -2    0.03    0.56
   6  -7   2    0.28    0.45
   6  -7   2    0.02    0.51
  -7   7  -2    0.39    0.62
   7  -7   2    1.45    0.46
   7  -7   2    1.35    0.57
  -8   7  -2    5.63    0.83
   8  -7   2    7.05    0.99
   8  -7   2    4.96    1.00
  -9   7  -2    0.13    0.71
   9  -7   2   -0.01    0.55
   9  -7   2   -0.15    0.68
 -10   7  -2    0.32    0.78
  10  -7   2   -0.75    0.75
  10  -7   2    0.15    0.64
 -11   7  -2    0.26    0.86
  11  -7   2   -0.52    0.85
  11  -7   2   -0.07    0.68
 -12   7  -2   -0.90    0.90
  12  -7   2   -0.10    1.03
  11   6  -2   -0.47    0.99
 -11  -6   2   -0.06    0.82
  10   6  -2    0.49    0.87
 -10  -6   2   -0.08    0.75
   9   6  -2    0.36    0.86
  -9  -6   2    0.71    0.68
   8   6  -2   -0.58    0.74
  -8  -6   2    1.50    0.47
  -8  -6   2    0.95    0.60
   7   6  -2    0.59    0.62
  -7  -6   2    0.84    0.57
  -7  -6   2    1.47    0.40
   6   6  -2    3.25    0.60
   6   6  -2    2.82    0.35
  -6  -6   2    3.26    0.56
   5   6  -2    0.12    0.48
   5   6  -2    0.20    0.28
   5   6  -2   -0.19    0.13
   5   6  -2    0.16    0.16
  -5  -6   2    0.20    0.45
  -5  -6   2    1.00    0.31
   4   6  -2    3.71    0.39
   4   6  -2    4.10    0.47
   4   6  -2    4.84    0.76
  -4  -6   2    4.79    0.61
  -4  -6   2    4.04    0.50
   3   6  -2    4.39    0.39
   3   6  -2    4.99    0.66
   3   6  -2    3.84    0.57
   3   6  -2    3.71    0.36
   3   6  -2    4.74    0.49
  -3  -6   2    4.78    0.61
  -3  -6   2    5.14    0.64
   2   6  -2    8.97    0.51
   2   6  -2    8.97    0.57
   2   6  -2    8.66    0.52
   2   6  -2    8.73    0.70
   2   6  -2    8.77    0.63
  -2  -6   2    8.61    0.55
  -2  -6   2    9.10    0.66
   1   6  -2   12.69    0.76
   1   6  -2   13.36    0.66
   1   6  -2   12.13    0.71
   1   6  -2   13.46    0.69
   1   6  -2   13.00    0.67
   1   6  -2   12.86    0.71
  -1  -6   2   13.23    0.72
  -1  -6   2   12.52    0.69
   0   6  -2   42.07    1.80
   0   6  -2   43.39    1.80
   0   6  -2   43.45    1.78
   0   6  -2   42.95    1.79
   0  -6   2   41.15    1.80
   0  -6   2   42.04    1.80
   0  -6   2   41.23    1.78
  -1   6  -2   55.17    2.25
  -1   6  -2   54.79    2.26
  -1   6  -2   53.18    2.28
  -1   6  -2   55.12    2.24
  -1   6  -2   53.19    2.24
  -1   6  -2   55.69    2.25
   1  -6   2   52.58    2.26
   1  -6   2   51.21    2.24
  -2   6  -2    2.27    0.35
  -2   6  -2    2.25    0.33
  -2   6  -2    1.62    0.32
  -2   6  -2    2.14    0.33
  -2   6  -2    1.89    0.36
  -2   6  -2    1.34    0.28
   2  -6   2    2.57    0.34
   2  -6   2    2.18    0.32
  -3   6  -2   84.38    3.37
  -3   6  -2   83.22    3.42
  -3   6  -2   87.31    3.37
  -3   6  -2   83.72    3.46
   3  -6   2   82.32    3.43
   3  -6   2   76.22    3.41
  -4   6  -2    0.31    0.18
  -4   6  -2    0.73    0.19
  -4   6  -2    1.04    0.45
   4  -6   2    0.48    0.32
   4  -6   2    0.68    0.38
  -5   6  -2    0.26    0.48
  -5   6  -2    0.24    0.16
   5  -6   2    0.00    0.42
   5  -6   2    0.19    0.38
  -6   6  -2   48.47    2.17
   6  -6   2   46.94    2.12
   6  -6   2   45.99    2.07
  -7   6  -2    2.91    0.60
   7  -6   2    3.52    0.51
   7  -6   2    4.02    0.70
  -8   6  -2    5.68    0.96
   8  -6   2    6.13    0.78
   8  -6   2    4.73    0.65
  -9   6  -2    4.10    0.74
   9  -6   2    3.32    0.67
 -10   6  -2   -0.10    0.70
  10  -6   2   -0.33    0.59
  10  -6   2   -1.10    0.64
 -11   6  -2    1.07    0.78
  11  -6   2    0.60    0.66
  11  -6   2   -0.58    0.70
 -12   6  -2   -1.06    0.79
  12  -6   2   -0.76    0.85
  12  -6   2   -0.33    0.71
  11   5  -2    0.20    0.89
 -11  -5   2    0.27    0.75
  10   5  -2   -0.10    0.78
 -10  -5   2    0.68    0.69
   9   5  -2    0.74    1.29
  -9  -5   2    0.11    0.61
   7   5  -2    2.72    0.62
   7   5  -2    2.21    0.36
  -7  -5   2    2.88    0.51
   6   5  -2    1.32    0.52
   6   5  -2    0.49    0.30
  -6  -5   2    1.36    0.44
   5   5  -2    7.68    0.56
   5   5  -2    8.90    0.83
  -5  -5   2    6.63    0.71
  -5  -5   2    9.08    0.65
   4   5  -2   15.86    0.92
   4   5  -2   14.89    0.67
   4   5  -2   15.53    0.69
   4   5  -2   15.70    0.79
  -4  -5   2   15.43    0.88
  -4  -5   2   16.43    0.94
  -4  -5   2   15.42    0.92
   3   5  -2   16.42    0.74
   3   5  -2   16.76    0.81
   3   5  -2   16.00    0.84
   3   5  -2   16.19    0.73
   3   5  -2   16.79    0.89
  -3  -5   2   17.95    0.87
  -3  -5   2   16.21    0.85
  -3  -5   2   17.06    0.81
   2   5  -2    0.75    0.25
   2   5  -2    0.75    0.23
   2   5  -2    0.87    0.17
   2   5  -2    0.76    0.18
   2   5  -2    0.79    0.30
   2   5  -2    0.55    0.27
  -2  -5   2    0.95    0.28
  -2  -5   2    1.18    0.23
   1   5  -2   98.07    3.90
   1   5  -2   93.91    3.95
   1   5  -2  100.10    3.91
   1   5  -2   99.53    3.88
   1   5  -2   98.20    3.90
  -1  -5   2   91.31    3.90
  -1  -5   2   89.39    3.90
   0   5  -2   26.33    1.14
   0   5  -2   26.44    1.12
   0   5  -2   26.24    1.12
   0   5  -2   26.62    1.13
   0  -5   2   25.53    1.14
   0  -5   2   24.28    1.14
  -1   5  -2  178.32    7.36
  -1   5  -2  189.01    7.38
  -1   5  -2  187.50    7.37
  -1   5  -2  185.96    7.36
  -1   5  -2  185.63    7.37
   1  -5   2  174.71    7.36
   1  -5   2  176.74    7.38
  -2   5  -2    9.57    0.55
  -2   5  -2    9.84    0.48
  -2   5  -2    9.91    0.55
  -2   5  -2    9.65    0.50
  -2   5  -2    9.73    0.58
  -2   5  -2    9.11    0.58
   2  -5   2    9.32    0.54
   2  -5   2    9.65    0.57
  -3   5  -2    0.13    0.27
  -3   5  -2   -0.15    0.14
  -3   5  -2   -0.26    0.30
  -3   5  -2   -0.32    0.25
  -3   5  -2    0.05    0.16
  -3   5  -2    0.13    0.31
   3  -5   2    0.04    0.25
   3  -5   2    0.15    0.26
  -4   5  -2  130.79    5.05
  -4   5  -2  127.79    5.14
  -4   5  -2  128.07    5.11
  -4   5  -2  119.25    5.05
   4  -5   2  122.73    5.11
   4  -5   2  123.32    5.12
  -5   5  -2   13.88    0.90
  -5   5  -2   13.34    0.58
  -5   5  -2   13.51    0.61
   5  -5   2   12.55    0.83
   5  -5   2   13.23    0.79
  -6   5  -2   42.50    1.90
   6  -5   2   40.81    1.82
   6  -5   2   39.55    1.85
  -7   5  -2    2.92    0.56
   7  -5   2    2.19    0.43
   7  -5   2    2.48    0.52
  -8   5  -2    1.15    0.56
   8  -5   2    0.50    0.54
   8  -5   2    1.51    0.47
  -9   5  -2   -0.32    0.58
   9  -5   2    0.61    0.48
   9  -5   2   -0.09    0.56
 -10   5  -2   -0.46    0.62
  10  -5   2   -0.34    0.62
 -11   5  -2    0.52    0.76
  11  -5   2    0.87    0.62
  11  -5   2    0.62    0.79
 -12   5  -2   -0.71    0.76
  12  -5   2   -1.08    0.86
  12  -5   2   -0.24    0.68
  12   4  -2    0.41    0.93
  12   4  -2   -0.61    0.83
  11   4  -2    1.52    0.89
 -11  -4   2    1.49    0.72
  10   4  -2    0.22    0.74
 -10  -4   2   -0.97    0.59
 -10  -4   2   -0.10    0.59
   9   4  -2    0.10    0.66
  -9  -4   2    0.22    0.53
  -9  -4   2   -0.07    0.54
   8   4  -2    6.54    1.00
   8   4  -2    5.97    0.62
  -8  -4   2    6.00    0.82
   7   4  -2    0.11    0.32
   7   4  -2    0.90    0.56
  -7  -4   2    0.56    0.45
   6   4  -2    6.09    0.78
   6   4  -2    5.29    0.53
  -6  -4   2    7.54    0.69
  -6  -4   2    5.59    0.68
   5   4  -2   18.19    0.87
   5   4  -2   17.97    1.00
  -5  -4   2   18.12    0.99
  -5  -4   2   17.72    1.10
  -5  -4   2   17.02    0.94
   4   4  -2    1.75    0.26
   4   4  -2    1.96    0.35
   4   4  -2    1.16    0.32
  -4  -4   2    1.55    0.34
  -4  -4   2    1.31    0.29
   3   4  -2    1.14    0.12
   3   4  -2    1.22    0.24
   3   4  -2    1.11    0.25
   3   4  -2    1.65    0.34
   3   4  -2    1.11    0.17
  -3  -4   2    1.62    0.23
  -3  -4   2    0.98    0.26
  -3  -4   2    1.19    0.27
   2   4  -2   21.01    0.93
   2   4  -2   20.32    0.87
   2   4  -2   20.90    0.94
   2   4  -2   21.21    0.94
  -2  -4   2   20.84    0.92
  -2  -4   2   20.06    0.91
  -2  -4   2   20.49    0.94
   1   4  -2  104.01    4.11
   1   4  -2  104.64    4.12
   1   4  -2  100.91    4.12
   1   4  -2  102.70    4.12
   1   4  -2  104.93    4.10
  -1  -4   2   97.73    4.12
  -1  -4   2   99.50    4.10
  -1  -4   2   98.30    4.13
   0   4  -2    2.11    0.30
   0   4  -2    2.18    0.27
   0   4  -2    2.37    0.25
   0   4  -2    2.20    0.26
   0   4  -2    2.04    0.25
   0  -4   2    2.71    0.27
   0  -4   2    2.39    0.28
   0  -4   2    2.48    0.29
  -1   4  -2    0.01    0.14
  -1   4  -2    0.02    0.16
  -1   4  -2    0.19    0.21
  -1   4  -2    0.10    0.16
  -1   4  -2    0.14    0.16
   1  -4   2    0.19    0.18
   1  -4   2    0.37    0.21
   1  -4   2    0.11    0.16
  -2   4  -2  433.96   16.64
  -2   4  -2  415.79   16.70
  -2   4  -2  431.54   16.67
  -2   4  -2  413.87   16.72
  -2   4  -2  417.90   16.65
   2  -4   2  385.29   16.67
   2  -4   2  402.14   16.73
  -3   4  -2   18.75    0.86
  -3   4  -2   17.90    0.80
  -3   4  -2   17.95    0.90
  -3   4  -2   18.95    0.89
  -3   4  -2   19.46    0.86
   3  -4   2   18.12    0.87
   3  -4   2   17.42    0.86
  -4   4  -2   29.29    1.33
  -4   4  -2   28.64    1.22
  -4   4  -2   30.90    1.31
  -4   4  -2   29.40    1.27
  -4   4  -2   30.65    1.29
   4  -4   2   28.06    1.30
   4  -4   2   28.17    1.28
   4  -4   2   26.31    1.21
  -5   4  -2   58.67    2.45
  -5   4  -2   55.32    2.26
  -5   4  -2   53.71    2.36
   5  -4   2   55.34    2.33
   5  -4   2   53.76    2.36
  -6   4  -2   19.33    1.07
  -6   4  -2   19.78    0.83
   6  -4   2   17.70    1.05
   6  -4   2   18.42    0.96
   6  -4   2   18.68    0.85
  -7   4  -2   23.58    1.00
  -7   4  -2   23.59    1.26
   7  -4   2   22.65    1.04
   7  -4   2   23.52    1.15
   7  -4   2   21.63    1.27
  -8   4  -2    1.56    0.53
  -8   4  -2    1.96    0.33
   8  -4   2    0.78    0.57
   8  -4   2    2.16    0.45
  -9   4  -2   -0.08    0.52
  -9   4  -2   -0.44    0.23
   9  -4   2    0.11    0.44
  10  -4   2    0.92    0.51
  10  -4   2    0.65    0.67
 -11   4  -2   -0.45    0.64
  11  -4   2   -0.46    0.76
  11  -4   2    0.60    0.59
 -12   4  -2   -0.54    0.77
  12  -4   2    0.06    0.85
  12  -4   2   -0.06    0.65
  12   3  -2   -0.26    0.88
  12   3  -2    0.50    0.76
  11   3  -2    0.74    0.77
 -11  -3   2   -0.62    0.67
  10   3  -2    3.37    0.81
 -10  -3   2    3.05    0.59
   9   3  -2    7.47    1.02
   8   3  -2    0.01    0.54
  -8  -3   2    0.45    0.40
   7   3  -2   19.83    1.00
   7   3  -2   19.98    1.17
  -7  -3   2   19.37    1.04
   6   3  -2    1.08    0.43
   6   3  -2    0.77    0.31
  -6  -3   2    0.72    0.36
  -6  -3   2   -0.23    0.44
  -6  -3   2   -0.18    0.43
   5   3  -2    0.47    0.26
   5   3  -2   -0.14    0.29
   5   3  -2    0.54    0.36
  -5  -3   2   -0.36    0.34
  -5  -3   2    0.04    0.42
  -5  -3   2    0.15    0.29
   4   3  -2  151.57    5.88
   4   3  -2  145.44    5.87
  -4  -3   2  143.49    5.89
  -4  -3   2  138.32    5.87
  -4  -3   2  145.75    5.89
   3   3  -2   10.85    0.58
   3   3  -2   10.96    0.57
  -3  -3   2   10.28    0.57
  -3  -3   2   10.55    0.58
  -3  -3   2   10.66    0.57
   2   3  -2    1.73    0.22
   2   3  -2    1.96    0.27
   2   3  -2    1.72    0.16
   2   3  -2    1.34    0.22
  -2  -3   2    1.76    0.15
  -2  -3   2    1.87    0.30
  -2  -3   2    1.72    0.28
  -2  -3   2    1.25    0.21
   1   3  -2    6.62    0.36
   1   3  -2    6.29    0.34
   1   3  -2    6.47    0.33
   1   3  -2    6.42    0.38
   1   3  -2    6.17    0.39
   1   3  -2    6.67    0.40
  -1  -3   2    6.06    0.39
  -1  -3   2    6.58    0.32
   0   3  -2  541.66   20.97
   0   3  -2  530.54   20.92
   0   3  -2  505.52   20.93
   0   3  -2  528.91   20.92
   0   3  -2  532.31   20.94
   0  -3   2  503.69   20.92
   0  -3   2  493.62   20.92
   0  -3   2  518.65   20.92
  -1   3  -2    3.48    0.26
  -1   3  -2    2.67    0.29
  -1   3  -2    2.78    0.26
  -1   3  -2    2.74    0.28
   1  -3   2    2.87    0.30
   1  -3   2    2.61    0.25
   1  -3   2    3.32    0.30
   1  -3   2    2.92    0.24
  -2   3  -2    3.12    0.30
  -2   3  -2    2.49    0.30
  -2   3  -2    2.92    0.31
  -2   3  -2    3.11    0.25
  -2   3  -2    2.59    0.35
   2  -3   2    2.90    0.32
   2  -3   2    2.88    0.31
  -3   3  -2  299.31   11.36
  -3   3  -2  296.28   11.36
  -3   3  -2  282.31   11.37
  -3   3  -2  272.99   11.40
  -3   3  -2  283.85   11.35
   3  -3   2  258.30   11.35
  -4   3  -2   14.29    0.78
  -4   3  -2   14.85    0.70
  -4   3  -2   15.68    0.75
  -4   3  -2   15.97    0.72
  -4   3  -2   15.16    0.76
   4  -3   2   13.34    0.75
   4  -3   2   14.98    0.70
   4  -3   2   14.18    0.74
  -5   3  -2   27.74    1.19
  -5   3  -2   27.15    1.30
  -5   3  -2   28.58    1.23
  -5   3  -2   28.90    1.29
  -5   3  -2   29.64    1.27
   5  -3   2   25.71    1.30
   5  -3   2   28.13    1.25
   5  -3   2   26.76    1.24
  -6   3  -2   36.82    1.51
  -6   3  -2   35.19    1.63
   6  -3   2   33.28    1.66
   6  -3   2   39.06    1.62
   6  -3   2   33.69    1.56
  -7   3  -2    0.23    0.25
  -7   3  -2    0.21    0.43
   7  -3   2    0.28    0.34
   7  -3   2   -0.26    0.50
  -8   3  -2    3.63    0.54
  -8   3  -2    3.67    0.44
   8  -3   2    3.78    0.61
   8  -3   2    3.62    0.44
  -9   3  -2    1.10    0.53
  -9   3  -2    1.37    0.32
   9  -3   2    1.14    0.64
   9  -3   2    1.69    0.45
 -10   3  -2    0.00    0.33
 -10   3  -2   -0.75    0.56
  10  -3   2    0.10    0.47
  10  -3   2   -0.40    0.68
 -11   3  -2    0.24    0.67
  11  -3   2    0.54    0.55
  11  -3   2   -0.13    0.73
 -12   3  -2   -0.76    0.71
  12  -3   2   -0.28    0.82
  12  -3   2    0.17    0.62
  13   2  -2   -0.65    0.89
  12   2  -2    0.33    0.65
  12   2  -2    0.11    0.79
  11   2  -2    0.36    0.58
  11   2  -2    0.25    0.71
 -11  -2   2   -0.56    0.68
  10   2  -2    0.22    0.69
 -10  -2   2    0.49    0.48
   9   2  -2    2.50    0.61
  -9  -2   2    2.32    0.46
   8   2  -2    1.65    0.54
  -8  -2   2    1.37    0.39
  -8  -2   2    1.11    0.16
   7   2  -2    0.15    0.35
   7   2  -2    0.62    0.45
  -7  -2   2    0.09    0.13
  -7  -2   2    0.41    0.33
   6   2  -2   41.15    1.73
   6   2  -2   38.46    1.77
   6   2  -2   41.15    1.72
  -6  -2   2   40.51    1.79
  -6  -2   2   38.37    1.84
  -6  -2   2   38.28    1.71
   5   2  -2    0.52    0.31
   5   2  -2    0.07    0.24
   5   2  -2    0.29    0.26
  -5  -2   2    0.19    0.24
  -5  -2   2   -0.62    0.38
  -5  -2   2    0.02    0.32
   4   2  -2    0.00    0.20
   4   2  -2    0.57    0.25
   4   2  -2    0.22    0.22
  -4  -2   2   -0.31    0.30
  -4  -2   2   -0.16    0.25
   3   2  -2    4.14    0.33
   3   2  -2    3.25    0.32
   3   2  -2    3.83    0.35
  -3  -2   2    3.41    0.41
  -3  -2   2    3.59    0.35
  -3  -2   2    3.73    0.33
   2   2  -2  464.96   19.68
   2   2  -2  487.65   19.63
   2   2  -2  501.12   19.72
   2   2  -2  514.94   19.72
   2   2  -2  502.62   19.75
  -2  -2   2  490.84   19.71
  -2  -2   2  459.03   19.62
  -2  -2   2  489.29   19.78
   1   2  -2  180.05    7.15
   1   2  -2  180.16    7.14
   1   2  -2  177.09    7.13
   1   2  -2  174.89    7.13
  -1  -2   2  176.74    7.12
  -1  -2   2  177.01    7.13
  -1  -2   2  173.18    7.13
   0   2  -2  114.02    4.42
   0   2  -2  113.73    4.41
   0   2  -2  101.48    4.42
   0   2  -2  112.43    4.42
   0  -2   2  106.31    4.42
   0  -2   2  111.74    4.42
   0  -2   2  107.27    4.42
  -1   2  -2  237.39    9.91
  -1   2  -2  245.16    9.87
  -1   2  -2  258.29    9.87
  -1   2  -2  255.32    9.87
   1  -2   2  247.98    9.91
   1  -2   2  241.47    9.89
   1  -2   2  244.91    9.89
   1  -2   2  230.35    9.94
  -2   2  -2    3.82    0.35
  -2   2  -2    2.85    0.33
  -2   2  -2    3.41    0.32
  -2   2  -2    3.73    0.32
  -2   2  -2    3.31    0.30
   2  -2   2    2.96    0.32
   2  -2   2    2.80    0.32
  -3   2  -2  184.59    7.38
  -3   2  -2  182.72    7.37
  -3   2  -2  178.51    7.37
  -3   2  -2  189.66    7.37
  -3   2  -2  183.62    7.37
   3  -2   2  197.96    7.38
   3  -2   2  171.88    7.38
   3  -2   2  172.92    7.36
  -4   2  -2  133.72    5.58
  -4   2  -2  139.65    5.61
  -4   2  -2  142.25    5.59
  -4   2  -2  143.36    5.60
   4  -2   2  153.58    5.62
   4  -2   2  126.98    5.59
   4  -2   2  127.56    5.62
  -5   2  -2    5.49    0.54
  -5   2  -2    4.84    0.53
  -5   2  -2    5.21    0.43
  -5   2  -2    6.62    0.48
   5  -2   2    4.96    0.63
   5  -2   2    5.17    0.46
   5  -2   2    5.68    0.46
  -6   2  -2   34.62    1.41
  -6   2  -2   30.77    1.45
   6  -2   2   29.30    1.52
   6  -2   2   30.10    1.39
   6  -2   2   32.57    1.41
  -7   2  -2    6.93    0.75
  -7   2  -2    6.66    0.53
   7  -2   2    6.33    0.84
   7  -2   2    6.18    0.58
  -8   2  -2    0.00    0.31
  -8   2  -2    0.06    0.45
   8  -2   2   -0.08    0.56
   8  -2   2    0.32    0.36
  -9   2  -2    1.54    0.38
  -9   2  -2    0.86    0.53
   9  -2   2    1.21    0.62
   9  -2   2    1.81    0.44
 -10   2  -2    0.57    0.41
 -10   2  -2    0.10    0.55
  10  -2   2    0.49    0.46
  10  -2   2    0.66    0.64
 -11   2  -2   -0.63    0.62
  11  -2   2   -0.33    0.50
  11  -2   2   -0.93    0.74
 -12   2  -2   -0.39    0.70
  12  -2   2   -0.26    0.89
  13   1  -2    0.91    0.91
 -13  -1   2    1.71    0.90
  12   1  -2   -0.14    0.58
  12   1  -2   -1.37    0.72
 -12  -1   2   -0.24    0.75
  11   1  -2    0.76    0.49
  11   1  -2    0.91    0.70
 -11  -1   2   -0.82    0.64
  10   1  -2    2.45    0.48
  10   1  -2    2.26    0.66
 -10  -1   2    2.21    0.30
   9   1  -2   -0.22    0.54
  -9  -1   2    0.06    0.23
   8   1  -2    9.56    0.91
   8   1  -2   11.51    0.82
  -8  -1   2    9.65    0.57
  -8  -1   2   12.35    0.57
  -8  -1   2    9.92    0.71
   7   1  -2    2.66    0.48
   7   1  -2    2.36    0.41
   7   1  -2    2.81    0.48
  -7  -1   2    2.57    0.32
  -7  -1   2    2.64    0.35
  -7  -1   2    1.24    0.51
   6   1  -2    0.10    0.25
   6   1  -2    0.07    0.30
   6   1  -2   -0.03    0.35
  -6  -1   2    0.42    0.14
  -6  -1   2    0.05    0.26
  -6  -1   2   -0.87    0.40
  -6  -1   2    0.52    0.33
  -6  -1   2    0.26    0.16
   5   1  -2    9.48    0.61
   5   1  -2    9.52    0.52
   5   1  -2   10.15    0.61
  -5  -1   2    9.87    0.58
  -5  -1   2    9.31    0.44
  -5  -1   2    8.06    0.70
  -5  -1   2    9.65    0.43
   4   1  -2   78.27    3.30
   4   1  -2   81.66    3.31
   4   1  -2   81.87    3.29
   4   1  -2   81.56    3.28
  -4  -1   2   81.09    3.25
  -4  -1   2   82.83    3.34
  -4  -1   2   78.03    3.25
  -4  -1   2   80.74    3.30
   3   1  -2   24.29    1.08
   3   1  -2   24.45    1.08
   3   1  -2   25.09    1.07
   3   1  -2   27.01    1.12
  -3  -1   2   25.65    1.05
  -3  -1   2   24.62    1.13
  -3  -1   2   26.26    1.09
   2   1  -2    3.97    0.32
   2   1  -2    3.98    0.22
   2   1  -2    3.51    0.24
   2   1  -2    3.63    0.26
  -2  -1   2    3.63    0.38
  -2  -1   2    4.34    0.28
  -2  -1   2    3.27    0.26
  -2  -1   2    4.34    0.25
   1   1  -2  115.99    4.70
   1   1  -2  117.20    4.70
   1   1  -2  119.46    4.69
  -1  -1   2  104.75    4.70
  -1  -1   2  118.33    4.70
  -1  -1   2  121.53    4.71
  -1  -1   2  118.73    4.69
   0   1  -2    1.49    0.16
   0   1  -2    1.67    0.12
   0   1  -2    1.42    0.16
   0   1  -2    1.52    0.16
   0  -1   2    1.73    0.18
   0  -1   2    1.57    0.19
   0  -1   2    1.30    0.17
   0  -1   2    1.67    0.13
  -1   1  -2   89.71    3.60
  -1   1  -2   88.61    3.62
  -1   1  -2   90.35    3.60
   1  -1   2   88.37    3.61
   1  -1   2   89.13    3.60
   1  -1   2   88.06    3.61
  -2   1  -2  573.60   22.89
  -2   1  -2  565.31   22.93
  -2   1  -2  563.80   22.84
  -2   1  -2  567.94   22.92
  -2   1  -2  575.72   22.98
   2  -1   2  538.98   22.89
   2  -1   2  613.53   22.90
   2  -1   2  542.85   22.87
  -3   1  -2   25.37    1.13
  -3   1  -2   26.36    1.15
  -3   1  -2   24.29    1.11
  -3   1  -2   27.29    1.12
  -3   1  -2   25.78    1.10
   3  -1   2   24.84    1.11
   3  -1   2   28.93    1.17
   3  -1   2   24.84    1.15
  -4   1  -2   18.09    0.82
  -4   1  -2   16.55    0.82
  -4   1  -2   17.34    0.87
  -4   1  -2   16.94    0.79
  -4   1  -2   15.78    0.82
   4  -1   2   16.05    0.90
   4  -1   2   19.89    0.90
  -5   1  -2   19.52    0.96
  -5   1  -2   18.23    0.97
  -5   1  -2   21.39    0.90
  -5   1  -2   17.98    0.91
   5  -1   2   20.00    0.89
   5  -1   2   17.85    0.88
   5  -1   2   17.77    1.03
  -6   1  -2    0.95    0.30
  -6   1  -2   -0.05    0.34
   6  -1   2    0.14    0.43
   6  -1   2    0.19    0.28
   6  -1   2    0.34    0.27
  -7   1  -2    7.89    0.62
  -7   1  -2    7.66    0.74
   7  -1   2    8.40    0.93
   7  -1   2    8.29    0.61
   7  -1   2    8.34    0.60
  -8   1  -2    1.56    0.38
  -8   1  -2    0.54    0.43
   8  -1   2    0.83    0.54
   8  -1   2    1.49    0.36
  -9   1  -2    1.20    0.42
  -9   1  -2    0.85    0.48
   9  -1   2    1.50    0.89
   9  -1   2    1.22    0.40
 -10   1  -2   -0.17    0.53
 -10   1  -2    0.60    0.47
  10  -1   2    0.68    0.45
  10  -1   2    0.45    0.67
 -11   1  -2   -0.32    0.59
 -11   1  -2   -0.20    0.51
  11  -1   2   -0.28    0.83
  11  -1   2    0.42    0.51
  12  -1   2    0.55    0.88
  13   0  -2    0.07    0.85
 -13   0   2    1.16    0.84
  12   0  -2    0.17    0.78
 -12   0   2   -1.55    0.71
  11   0  -2    1.60    0.46
  11   0  -2    1.92    0.72
  10   0  -2    1.64    0.40
  10   0  -2    1.85    0.59
 -10   0   2    0.97    0.62
 -10   0   2    1.62    0.33
   9   0  -2    7.59    0.64
   9   0  -2    6.62    0.90
   9   0  -2    9.29    0.68
  -9   0   2    8.57    0.55
  -9   0   2    5.35    0.90
  -9   0   2    7.69    0.58
   8   0  -2    1.42    0.32
   8   0  -2    1.40    0.50
   8   0  -2    2.25    0.33
  -8   0   2    1.06    0.54
  -8   0   2    2.26    0.36
   7   0  -2    9.27    0.59
   7   0  -2   10.12    0.59
   7   0  -2    9.01    0.70
  -7   0   2   10.23    0.52
  -7   0   2    9.76    0.57
  -7   0   2    8.31    0.83
   6   0  -2    1.06    0.23
   6   0  -2    0.56    0.31
   6   0  -2    1.25    0.23
   6   0  -2    1.63    0.34
  -6   0   2    1.40    0.22
  -6   0   2    0.65    0.41
  -6   0   2    1.10    0.18
  -6   0   2    1.48    0.32
   5   0  -2   35.18    1.53
   5   0  -2   34.42    1.47
   5   0  -2   36.41    1.47
   5   0  -2   32.70    1.51
  -5   0   2   36.16    1.46
  -5   0   2   34.99    1.47
  -5   0   2   33.82    1.58
  -5   0   2   37.84    1.53
   4   0  -2    7.52    0.51
   4   0  -2    6.67    0.37
   4   0  -2    6.88    0.38
   4   0  -2    6.49    0.43
  -4   0   2    6.70    0.37
  -4   0   2    7.92    0.45
  -4   0   2    6.53    0.35
   3   0  -2  128.86    5.24
   3   0  -2  133.67    5.27
   3   0  -2  128.35    5.23
  -3   0   2  133.99    5.24
  -3   0   2  126.99    5.27
  -3   0   2  127.08    5.23
   2   0  -2    5.24    0.30
   2   0  -2    4.52    0.28
   2   0  -2    5.30    0.29
   2   0  -2    5.74    0.37
  -2   0   2    5.43    0.29
  -2   0   2    5.56    0.32
  -2   0   2    5.08    0.29
  -2   0   2    5.20    0.40
   1   0  -2  216.62    9.32
   1   0  -2  234.15    9.29
   1   0  -2  232.89    9.31
   1   0  -2  236.63    9.31
  -1   0   2  230.24    9.33
  -1   0   2  223.96    9.31
  -1   0   2  234.23    9.32
  -1   0   2  236.53    9.32
   0   0  -2   10.69    0.55
   0   0  -2   11.75    0.50
   0   0  -2   11.22    0.50
   0   0   2   11.64    0.51
   0   0   2   11.28    0.50
   0   0   2   11.29    0.55
  -1   0  -2    0.12    0.17
  -1   0  -2    0.66    0.21
  -1   0  -2   -0.11    0.10
  -1   0  -2   -0.11    0.23
   1   0   2    0.46    0.23
   1   0   2   -0.04    0.20
   1   0   2    0.32    0.18
   1   0   2   -0.09    0.10
  -2   0  -2  223.59    8.81
  -2   0  -2  220.21    8.81
  -2   0  -2  223.19    8.80
  -2   0  -2  208.56    8.81
  -2   0  -2  210.11    8.80
   2   0   2  215.08    8.81
   2   0   2  234.21    8.82
   2   0   2  213.60    8.80
  -3   0  -2    4.63    0.32
  -3   0  -2    5.00    0.42
  -3   0  -2    4.54    0.32
  -3   0  -2    5.94    0.39
  -3   0  -2    4.68    0.43
   3   0   2    4.45    0.38
   3   0   2    5.88    0.47
  -4   0  -2   35.49    1.57
  -4   0  -2   36.30    1.48
  -4   0  -2   35.07    1.50
  -4   0  -2   34.53    1.54
  -4   0  -2   36.72    1.52
   4   0   2   33.86    1.51
   4   0   2   38.43    1.58
   4   0   2   34.06    1.60
  -5   0  -2   69.85    3.06
  -5   0  -2   72.68    3.04
  -5   0  -2   72.56    3.04
  -5   0  -2   82.21    3.28
   5   0   2   80.02    3.10
   5   0   2   70.69    3.13
   5   0   2   69.12    3.03
  -6   0  -2    1.16    0.33
  -6   0  -2    0.79    0.33
   6   0   2    1.12    0.29
   6   0   2    1.08    0.50
  -7   0  -2    4.38    0.62
  -7   0  -2    5.08    0.61
   7   0   2    5.10    0.54
   7   0   2    5.27    0.90
  -8   0  -2   12.47    0.74
  -8   0  -2   12.07    0.83
  -8   0  -2   11.04    0.86
   8   0   2   12.57    0.75
   8   0   2   11.62    1.02
  -9   0  -2   -0.34    0.45
  -9   0  -2    0.30    0.46
   9   0   2   -0.05    0.79
   9   0   2   -0.22    0.37
 -10   0  -2   -0.91    0.52
 -10   0  -2    0.13    0.51
  10   0   2    0.89    0.44
  10   0   2    0.56    0.78
 -11   0  -2   -0.79    0.57
  11   0   2   -0.21    0.87
  12   0   2    0.55    0.97
  13  -1  -2    1.33    0.85
 -13   1   2   -0.08    0.80
  12  -1  -2    1.98    0.76
 -12   1   2    0.59    0.73
  11  -1  -2    1.03    0.43
  11  -1  -2    1.12    0.65
 -11   1   2    0.01    0.75
 -11   1   2    0.75    0.40
  10  -1  -2    0.46    0.33
  10  -1  -2    0.53    0.56
 -10   1   2   -0.12    0.62
 -10   1   2    0.65    0.36
   9  -1  -2    1.37    0.31
   9  -1  -2    1.46    0.52
   9  -1  -2    1.76    0.34
  -9   1   2    1.38    0.30
  -9   1   2    1.17    0.34
  -9   1   2    0.17    0.53
   8  -1  -2    0.28    0.27
   8  -1  -2   -0.33    0.43
  -8   1   2    0.06    0.24
  -8   1   2   -0.14    0.48
  -8   1   2   -0.03    0.30
   7  -1  -2    2.11    0.36
   7  -1  -2    1.85    0.25
   7  -1  -2    1.24    0.41
  -7   1   2    1.23    0.45
  -7   1   2    1.91    0.30
  -7   1   2    1.90    0.26
   6  -1  -2   17.50    0.78
   6  -1  -2   16.85    0.78
   6  -1  -2   16.05    0.90
   6  -1  -2   17.91    0.92
  -6   1   2   17.19    1.00
  -6   1   2   17.43    0.81
  -6   1   2   19.63    0.94
   5  -1  -2   50.00    2.12
   5  -1  -2   52.52    2.12
   5  -1  -2   54.45    2.22
   5  -1  -2   49.51    2.17
  -5   1   2   51.64    2.15
  -5   1   2   54.11    2.14
  -5   1   2   48.95    2.22
  -5   1   2   54.67    2.19
   4  -1  -2   17.08    0.82
   4  -1  -2   17.80    0.77
   4  -1  -2   19.20    0.90
   4  -1  -2   17.60    0.78
  -4   1   2   17.92    0.81
  -4   1   2   18.68    0.79
  -4   1   2   17.07    0.88
  -4   1   2   19.10    0.83
   3  -1  -2   21.32    0.96
   3  -1  -2   21.63    0.93
   3  -1  -2   23.42    1.02
   3  -1  -2   21.38    0.94
  -3   1   2   21.51    1.02
  -3   1   2   22.89    0.92
  -3   1   2   21.75    0.96
  -3   1   2   22.45    0.96
   2  -1  -2  178.91    7.02
   2  -1  -2  174.19    7.02
   2  -1  -2  180.15    7.02
   2  -1  -2  181.52    7.04
  -2   1   2  171.34    7.02
  -2   1   2  170.42    7.01
  -2   1   2  167.88    7.03
  -2   1   2  170.17    7.01
   1  -1  -2  142.73    5.75
   1  -1  -2  143.12    5.75
   1  -1  -2  143.03    5.77
  -1   1   2  139.90    5.75
  -1   1   2  144.11    5.78
  -1   1   2  138.42    5.75
  -1   1   2  146.18    5.74
   0  -1  -2  712.69   27.84
   0  -1  -2  673.75   27.80
   0  -1  -2  696.62   27.88
   0  -1  -2  702.81   27.76
   0   1   2  675.25   27.84
   0   1   2  718.26   27.84
   0   1   2  653.13   27.78
   0   1   2  683.12   27.73
  -1  -1  -2  112.72    4.42
  -1  -1  -2   99.57    4.42
  -1  -1  -2  109.86    4.42
  -1  -1  -2  112.05    4.38
   1   1   2  108.50    4.42
   1   1   2  109.31    4.42
   1   1   2  113.25    4.43
   1   1   2  104.89    4.38
  -2  -1  -2    0.02    0.22
  -2  -1  -2    0.12    0.07
  -2  -1  -2   -0.17    0.25
  -2  -1  -2    0.22    0.08
  -2  -1  -2    0.25    0.24
   2   1   2    0.00    0.26
   2   1   2   -0.07    0.23
   2   1   2    0.21    0.28
  -3  -1  -2  254.36   10.10
  -3  -1  -2  238.97   10.09
  -3  -1  -2  239.72   10.07
  -3  -1  -2  260.45   10.09
  -3  -1  -2  246.89   10.04
   3   1   2  264.98   10.10
   3   1   2  249.02   10.07
   3   1   2  245.96   10.10
  -4  -1  -2    4.84    0.52
  -4  -1  -2    4.74    0.52
  -4  -1  -2    4.62    0.37
   4   1   2    4.81    0.50
   4   1   2    5.48    0.59
  -5  -1  -2   23.72    1.01
  -5  -1  -2   21.98    1.13
  -5  -1  -2   21.91    1.06
  -5  -1  -2   25.59    1.13
   5   1   2   23.07    1.27
   5   1   2   21.96    1.07
   5   1   2   25.75    1.21
  -6  -1  -2   18.06    1.05
  -6  -1  -2   23.49    1.05
  -6  -1  -2   20.44    0.91
  -6  -1  -2   18.30    1.00
   6   1   2   20.04    0.98
   6   1   2   21.03    1.27
  -7  -1  -2    2.62    0.40
  -7  -1  -2    1.83    0.43
  -7  -1  -2    2.31    0.44
   7   1   2    2.76    0.62
   7   1   2    2.57    0.35
  -8  -1  -2    1.47    0.31
  -8  -1  -2    1.90    0.49
   8   1   2    1.69    0.67
   8   1   2    1.90    0.36
  -9  -1  -2    0.00    0.50
  -9  -1  -2   -0.74    0.45
   9   1   2   -0.21    0.73
   9   1   2    0.01    0.36
 -10  -1  -2   -0.19    0.57
  10   1   2    0.06    0.80
  10   1   2   -0.07    0.41
 -11  -1  -2   -0.89    0.62
  11   1   2   -0.48    0.94
 -12  -1  -2   -0.81    0.73
  12   1   2    0.95    1.02
  13  -2  -2   -0.83    0.80
 -13   2   2   -1.02    0.79
  12  -2  -2    0.31    0.71
 -12   2   2   -0.76    0.72
  11  -2  -2   -0.23    0.66
 -11   2   2   -0.64    0.68
 -11   2   2    0.07    0.42
  10  -2  -2    0.22    0.59
  10  -2  -2    0.08    0.28
 -10   2   2    0.29    0.39
 -10   2   2   -0.53    0.64
   9  -2  -2    1.36    0.26
   9  -2  -2    1.28    0.51
  -9   2   2    1.31    0.38
  -9   2   2    0.67    0.57
   8  -2  -2    1.76    0.24
   8  -2  -2    1.62    0.48
  -8   2   2    1.44    0.36
  -8   2   2    1.76    0.58
   7  -2  -2   -0.23    0.35
   7  -2  -2    0.48    0.19
   7  -2  -2   -0.13    0.18
  -7   2   2    0.13    0.31
  -7   2   2    0.43    0.49
  -7   2   2   -0.20    0.25
   6  -2  -2    6.97    0.62
   6  -2  -2    7.16    0.42
   6  -2  -2    8.31    0.41
  -6   2   2    8.46    0.77
  -6   2   2    7.80    0.51
  -6   2   2    8.58    0.56
   5  -2  -2   28.75    1.33
   5  -2  -2   27.88    1.19
   5  -2  -2   28.49    1.17
   5  -2  -2   26.95    1.26
  -5   2   2   28.53    1.23
  -5   2   2   27.78    1.31
  -5   2   2   28.57    1.25
  -5   2   2   29.77    1.26
   4  -2  -2   66.48    2.69
   4  -2  -2   60.69    2.64
   4  -2  -2   68.02    2.63
  -4   2   2   64.41    2.63
  -4   2   2   66.51    2.60
  -4   2   2   60.15    2.67
  -4   2   2   66.76    2.65
  -4   2   2   60.83    2.68
   3  -2  -2   20.34    0.91
   3  -2  -2   20.41    0.95
   3  -2  -2   20.18    0.89
   3  -2  -2   19.44    0.91
  -3   2   2   19.87    0.85
  -3   2   2   20.90    0.89
  -3   2   2   19.51    0.90
   2  -2  -2  142.01    5.70
   2  -2  -2  142.59    5.70
   2  -2  -2  143.76    5.70
   2  -2  -2  144.21    5.71
  -2   2   2  133.06    5.70
  -2   2   2  139.47    5.71
  -2   2   2  135.89    5.70
  -2   2   2  146.57    5.70
   1  -2  -2    8.32    0.45
   1  -2  -2    8.47    0.46
   1  -2  -2    7.85    0.50
   1  -2  -2    7.88    0.46
  -1   2   2    8.05    0.48
  -1   2   2    7.86    0.47
  -1   2   2    8.90    0.50
  -1   2   2    8.54    0.45
   0  -2  -2    0.64    0.14
   0  -2  -2    1.10    0.22
   0  -2  -2    0.28    0.23
   0   2   2    0.41    0.20
   0   2   2    0.69    0.23
   0   2   2    0.84    0.14
   0   2   2    0.46    0.21
   0   2   2    0.75    0.26
  -1  -2  -2  298.13   11.97
  -1  -2  -2  304.98   11.97
  -1  -2  -2  321.23   12.08
  -1  -2  -2  283.92   11.94
   1   2   2  312.99   11.98
   1   2   2  283.21   11.94
   1   2   2  276.33   11.96
  -2  -2  -2    0.17    0.27
  -2  -2  -2   -0.05    0.26
  -2  -2  -2   -0.02    0.25
   2   2   2    0.18    0.30
   2   2   2    0.14    0.27
   2   2   2    0.38    0.27
  -3  -2  -2  116.93    4.49
  -3  -2  -2  106.68    4.49
  -3  -2  -2  107.20    4.49
   3   2   2  111.70    4.49
   3   2   2  108.84    4.47
   3   2   2  104.78    4.51
  -4  -2  -2   93.56    3.91
  -4  -2  -2  109.93    4.04
  -4  -2  -2   94.89    4.03
  -4  -2  -2  101.05    3.92
   4   2   2   92.19    4.05
   4   2   2   90.50    4.02
   4   2   2   99.87    4.04
  -5  -2  -2    0.94    0.39
  -5  -2  -2    0.77    0.21
  -5  -2  -2    0.69    0.41
  -5  -2  -2    1.14    0.14
   5   2   2    0.87    0.32
   5   2   2    1.54    0.55
  -6  -2  -2   38.84    1.56
  -6  -2  -2   35.62    1.72
  -6  -2  -2   37.36    1.75
   6   2   2   37.32    1.83
   6   2   2   38.64    1.64
  -7  -2  -2    1.88    0.50
  -7  -2  -2    1.54    0.47
  -7  -2  -2    1.66    0.23
   7   2   2    1.59    0.34
   7   2   2    2.02    0.65
  -8  -2  -2   -0.11    0.50
   8   2   2   -0.40    0.85
   8   2   2   -0.22    0.33
  -9  -2  -2    0.58    0.64
   9   2   2    1.96    0.39
   9   2   2    2.48    0.84
 -10  -2  -2   -0.76    0.62
  10   2   2   -0.52    0.90
 -11  -2  -2   -0.53    0.68
  11   2   2    0.04    0.97
  13  -3  -2   -0.29    0.81
 -13   3   2   -1.21    0.83
  12  -3  -2   -0.39    0.69
 -12   3   2   -0.72    0.78
 -12   3   2   -0.28    0.51
  11  -3  -2    0.51    0.68
 -11   3   2    0.98    0.48
 -11   3   2    0.33    0.69
  10  -3  -2    0.53    1.03
 -10   3   2    1.43    0.44
   9  -3  -2   -0.20    0.50
  -9   3   2    0.25    0.39
  -9   3   2    0.40    0.63
   8  -3  -2    1.11    0.45
  -8   3   2    1.79    0.57
  -8   3   2    1.71    0.39
   7  -3  -2    0.97    0.38
  -7   3   2    1.63    0.50
  -7   3   2    1.49    0.37
   6  -3  -2    3.27    0.42
  -6   3   2    3.69    0.63
  -6   3   2    3.15    0.46
  -6   3   2    3.44    0.53
   5  -3  -2   46.15    2.03
   5  -3  -2   47.37    2.08
   5  -3  -2   51.42    1.94
  -5   3   2   45.76    2.07
  -5   3   2   46.08    2.01
  -5   3   2   48.24    2.00
  -5   3   2   47.18    2.03
   4  -3  -2   30.44    1.38
   4  -3  -2   30.30    1.36
   4  -3  -2   32.60    1.29
  -4   3   2   29.71    1.34
  -4   3   2   29.78    1.38
  -4   3   2   30.59    1.33
  -4   3   2   31.69    1.36
  -4   3   2   29.70    1.26
   3  -3  -2    0.13    0.25
   3  -3  -2    0.44    0.19
   3  -3  -2    0.00    0.26
  -3   3   2    0.12    0.24
  -3   3   2    0.40    0.20
  -3   3   2   -0.20    0.22
  -3   3   2    0.05    0.26
  -3   3   2    0.26    0.27
   2  -3  -2    0.80    0.23
   2  -3  -2    0.73    0.24
   2  -3  -2    1.12    0.22
   2  -3  -2    0.77    0.22
  -2   3   2    0.99    0.24
  -2   3   2    1.09    0.25
  -2   3   2    1.17    0.24
  -2   3   2    1.07    0.26
   1  -3  -2  338.42   13.65
   1  -3  -2  347.74   13.64
   1  -3  -2  333.42   13.65
   1  -3  -2  337.14   13.63
  -1   3   2  326.42   13.64
  -1   3   2  344.16   13.65
  -1   3   2  329.66   13.64
  -1   3   2  356.79   13.65
   0  -3  -2    2.96    0.34
   0   3   2    3.32    0.28
   0   3   2    2.50    0.41
   0   3   2    3.73    0.43
   0   3   2    2.61    0.43
   0   3   2    3.20    0.39
  -1  -3  -2  102.62    4.16
  -1  -3  -2   97.24    4.16
  -1  -3  -2  108.99    4.14
   1   3   2   93.21    4.16
   1   3   2  101.56    4.07
   1   3   2   98.59    4.16
   1   3   2  109.38    4.16
   1   3   2   99.25    4.08
  -2  -3  -2  284.65   11.88
  -2  -3  -2  315.77   11.86
  -2  -3  -2  297.00   11.88
   2   3   2  310.77   11.88
   2   3   2  276.90   11.85
   2   3   2  279.89   11.88
  -3  -3  -2   12.40    0.81
  -3  -3  -2   14.58    0.82
   3   3   2   14.67    0.80
   3   3   2   13.60    0.93
  -4  -3  -2   58.51    2.27
  -4  -3  -2   48.77    2.26
   4   3   2   49.34    2.30
   4   3   2   51.39    2.22
  -5  -3  -2    6.63    0.73
  -5  -3  -2    5.86    0.78
   5   3   2    7.67    0.64
   5   3   2    8.89    0.97
  -6  -3  -2    3.05    0.55
   6   3   2    2.77    0.39
   6   3   2    3.05    0.69
  -7  -3  -2    4.62    0.71
  -7  -3  -2    6.79    0.88
   7   3   2    7.54    1.14
   7   3   2    6.60    0.62
  -8  -3  -2    2.48    0.66
   8   3   2    2.93    0.40
   8   3   2    3.36    0.89
  -9  -3  -2    0.99    0.62
   9   3   2    1.10    0.85
 -10  -3  -2   -0.19    0.68
  10   3   2    0.45    0.96
 -11  -3  -2   -0.22    0.75
  11   3   2   -1.21    1.02
  13  -4  -2    0.09    0.84
 -13   4   2   -0.46    0.90
  12  -4  -2   -0.40    0.72
 -12   4   2   -0.05    0.56
 -12   4   2   -0.40    0.84
  11  -4  -2    0.25    0.64
 -11   4   2   -0.16    0.50
 -11   4   2   -0.37    0.78
  10  -4  -2    2.04    0.62
 -10   4   2    1.82    0.73
 -10   4   2    1.65    0.49
   9  -4  -2    0.11    0.51
  -9   4   2   -0.01    0.42
  -9   4   2    0.16    0.63
   8  -4  -2    5.78    0.78
  -8   4   2    5.90    0.73
  -8   4   2    5.53    0.93
   7  -4  -2    4.05    0.72
  -7   4   2    5.56    0.69
  -7   4   2    4.86    0.64
   6  -4  -2   17.61    1.02
  -6   4   2   19.83    1.15
  -6   4   2   18.56    1.00
   5  -4  -2    1.69    0.39
  -5   4   2    2.02    0.47
  -5   4   2    1.50    0.38
  -5   4   2    1.51    0.17
   4  -4  -2    1.23    0.31
   4  -4  -2    1.07    0.37
  -4   4   2    1.61    0.40
  -4   4   2    1.50    0.36
  -4   4   2    0.98    0.30
  -4   4   2    1.83    0.42
   3  -4  -2   59.00    2.51
   3  -4  -2   60.60    2.47
   3  -4  -2   58.73    2.52
  -3   4   2   62.08    2.48
  -3   4   2   60.27    2.52
  -3   4   2   60.36    2.50
  -3   4   2   57.98    2.52
   2  -4  -2    4.37    0.53
   2  -4  -2    6.00    0.47
   2  -4  -2    5.54    0.43
   2  -4  -2    4.78    0.44
  -2   4   2    4.65    0.50
  -2   4   2    5.45    0.58
  -2   4   2    5.65    0.47
  -2   4   2    5.03    0.52
   1  -4  -2   31.10    1.30
   1  -4  -2   29.32    1.34
   1  -4  -2   31.11    1.33
  -1   4   2   29.76    1.31
  -1   4   2   30.24    1.35
  -1   4   2   31.17    1.35
  -1   4   2   29.63    1.34
  -1   4   2   28.52    1.35
   0  -4  -2  165.53    6.93
   0  -4  -2  177.80    6.92
   0  -4  -2  171.11    6.88
   0   4   2  164.07    6.88
   0   4   2  163.01    6.92
   0   4   2  185.89    6.94
   0   4   2  172.15    6.93
   0   4   2  167.03    6.94
  -1  -4  -2    0.96    0.37
  -1  -4  -2    0.22    0.28
   1   4   2    0.20    0.33
   1   4   2    0.18    0.32
   1   4   2    0.04    0.12
   1   4   2    0.17    0.28
   1   4   2    0.09    0.36
  -2  -4  -2  102.55    3.89
  -2  -4  -2   86.17    3.89
   2   4   2   93.91    3.93
   2   4   2   93.93    3.88
  -3  -4  -2   19.10    1.09
  -3  -4  -2   22.05    1.04
   3   4   2   20.32    1.05
   3   4   2   18.91    1.11
  -4  -4  -2    0.94    0.45
  -4  -4  -2    0.30    0.39
   4   4   2    1.26    0.57
   4   4   2    1.19    0.39
  -5  -4  -2   51.49    2.17
  -5  -4  -2   46.63    2.19
   5   4   2   48.96    2.11
   5   4   2   46.67    2.28
  -6  -4  -2    0.17    0.52
  -6  -4  -2   -0.32    0.50
   6   4   2    0.43    0.36
   6   4   2    0.55    0.66
   7   4   2    0.61    0.88
   7   4   2    0.09    0.35
  -8  -4  -2   -0.05    0.65
   8   4   2   -0.62    0.88
   8   4   2   -0.26    0.37
  -9  -4  -2    1.33    0.72
   9   4   2    0.53    0.98
 -10  -4  -2   -0.63    0.74
  10   4   2   -0.42    1.07
  13  -5  -2   -0.36    0.81
 -13   5   2   -0.81    0.94
 -13   5   2   -0.15    0.85
  12  -5  -2    0.97    0.74
 -12   5   2   -0.09    0.91
 -12   5   2    0.67    0.62
  11  -5  -2    0.83    0.72
 -11   5   2    0.40    0.57
 -11   5   2    0.24    0.84
  10  -5  -2    1.44    0.64
 -10   5   2    0.74    0.70
 -10   5   2    1.52    0.56
  -9   5   2    4.37    0.87
  -9   5   2    5.10    0.82
   8  -5  -2    5.93    0.76
  -8   5   2    5.57    0.89
  -8   5   2    6.15    0.81
   7  -5  -2    1.82    0.47
  -7   5   2    1.78    0.45
  -7   5   2    2.21    0.57
   6  -5  -2   12.46    0.86
  -6   5   2   12.44    0.84
  -6   5   2   13.68    0.96
   5  -5  -2   23.29    0.96
  -5   5   2   21.85    0.95
  -5   5   2   22.32    1.18
  -5   5   2   22.88    1.26
   4  -5  -2    3.97    0.65
   4  -5  -2    5.45    0.45
  -4   5   2    4.08    0.69
  -4   5   2    3.94    0.65
  -4   5   2    4.40    0.44
   3  -5  -2    8.46    0.65
   3  -5  -2    7.71    0.66
   3  -5  -2    9.70    0.60
  -3   5   2    8.63    0.73
  -3   5   2    8.36    0.66
  -3   5   2    9.26    0.60
   2  -5  -2   59.88    2.61
   2  -5  -2   63.16    2.57
   2  -5  -2   58.99    2.57
  -2   5   2   60.64    2.59
  -2   5   2   64.92    2.58
  -2   5   2   60.93    2.60
   1  -5  -2    0.20    0.32
   1  -5  -2    0.30    0.24
  -1   5   2    0.49    0.34
  -1   5   2    0.28    0.35
  -1   5   2   -0.19    0.38
   0  -5  -2   31.24    1.41
   0  -5  -2   30.11    1.45
   0   5   2   30.23    1.48
   0   5   2   32.67    1.34
   0   5   2   30.21    1.43
   0   5   2   31.20    1.35
   0   5   2   32.87    1.46
  -1  -5  -2   82.25    3.27
  -1  -5  -2   76.57    3.29
   1   5   2   79.86    3.32
   1   5   2   80.51    3.18
   1   5   2   77.83    3.27
   1   5   2   73.69    3.22
  -2  -5  -2    1.02    0.37
  -2  -5  -2    1.32    0.46
   2   5   2    1.50    0.39
   2   5   2    1.63    0.52
  -3  -5  -2   14.39    0.99
  -3  -5  -2   15.16    0.87
   3   5   2   14.21    0.93
   3   5   2   13.93    1.00
  -4  -5  -2   28.21    1.48
  -4  -5  -2   30.95    1.39
   4   5   2   27.14    1.57
   4   5   2   28.11    1.39
  -5  -5  -2   -0.27    0.49
  -5  -5  -2   -0.07    0.55
   5   5   2    0.35    0.40
   5   5   2    0.09    0.65
   6   5   2    3.39    0.47
  -7  -5  -2    0.97    0.68
   7   5   2    1.09    0.41
   7   5   2    0.44    0.80
  -8  -5  -2    0.28    0.73
   8   5   2   -0.11    0.92
  -9  -5  -2    0.28    0.79
   9   5   2   -0.17    0.98
 -10  -5  -2   -0.04    0.82
  10   5   2   -0.77    1.18
  12  -6  -2   -0.25    0.75
 -12   6   2   -0.44    0.67
 -12   6   2    0.22    0.87
  11  -6  -2    0.75    0.74
 -11   6   2    0.44    0.90
 -11   6   2    0.01    0.59
  10  -6  -2    1.34    0.67
 -10   6   2    0.95    0.77
 -10   6   2    0.95    0.57
   9  -6  -2   -0.03    0.62
  -9   6   2   -0.23    0.73
  -8   6   2    2.81    0.58
   7  -6  -2    1.97    0.55
  -7   6   2    1.92    0.50
  -7   6   2    2.21    0.63
   6  -6  -2    0.47    0.48
  -6   6   2   -0.38    0.46
  -6   6   2   -0.18    0.57
   5  -6  -2    0.45    0.46
   5  -6  -2    0.78    0.19
  -5   6   2    0.37    0.22
  -5   6   2    0.76    0.53
  -5   6   2    0.76    0.44
   4  -6  -2   22.74    0.99
   4  -6  -2   19.46    1.10
  -4   6   2   20.48    1.00
  -4   6   2   20.06    1.17
  -4   6   2   19.52    1.15
   3  -6  -2    0.23    0.42
  -3   6   2    0.39    0.43
  -3   6   2    0.89    0.34
  -3   6   2    0.47    0.42
   2  -6  -2   10.66    0.89
   2  -6  -2   13.42    0.82
   2  -6  -2   12.95    0.73
  -2   6   2   12.29    0.78
  -2   6   2   10.65    0.79
  -2   6   2   11.07    0.80
   1  -6  -2   18.59    1.03
  -1   6   2   16.46    0.99
  -1   6   2   17.52    0.89
  -1   6   2   16.89    1.08
  -1   6   2   18.87    1.02
  -1   6   2   17.28    0.92
   0  -6  -2   18.01    1.06
   0   6   2   17.17    0.86
   0   6   2   16.44    1.11
   0   6   2   17.41    0.82
   0   6   2   16.71    0.99
  -1  -6  -2   34.86    1.69
   1   6   2   35.63    1.48
   1   6   2   35.66    1.47
   1   6   2   35.35    1.75
   1   6   2   34.40    1.62
  -2  -6  -2   21.95    1.23
   2   6   2   21.24    1.24
   2   6   2   20.75    1.15
  -3  -6  -2   15.48    1.09
   3   6   2   13.36    1.12
   3   6   2   12.95    0.95
  -4  -6  -2    3.69    0.64
   4   6   2    3.63    0.51
   4   6   2    3.30    0.68
  -5  -6  -2    2.91    0.69
   5   6   2    3.10    1.14
   5   6   2    2.90    0.49
  -6  -6  -2    1.24    0.69
   6   6   2    0.64    0.46
   6   6   2    0.31    0.77
  -7  -6  -2    0.41    0.70
   7   6   2    0.78    0.94
  -8  -6  -2   -0.35    0.78
   8   6   2   -0.34    1.03
  -9  -6  -2   -1.41    0.84
   9   6   2   -1.77    1.13
  12  -7  -2   -0.40    0.83
 -12   7   2   -0.44    1.03
 -12   7   2   -0.18    0.69
  11  -7  -2    0.15    0.79
 -11   7   2    1.25    0.94
 -11   7   2   -0.06    0.67
  10  -7  -2    0.42    0.72
 -10   7   2   -0.09    0.60
 -10   7   2    0.16    0.85
   9  -7  -2    0.69    0.66
  -9   7   2   -0.09    0.61
  -9   7   2    0.29    0.72
   8  -7  -2    1.45    0.65
  -8   7   2   -0.18    0.70
  -8   7   2   -0.04    0.57
  -7   7   2    0.60    0.63
  -7   7   2    0.35    0.72
   6  -7  -2    7.26    0.87
  -6   7   2    6.54    0.91
  -6   7   2    7.27    1.02
   5  -7  -2    0.43    0.54
   5  -7  -2    0.15    0.23
  -5   7   2    0.20    0.53
  -5   7   2   -0.16    0.51
  -5   7   2    0.02    0.26
   4  -7  -2    0.28    0.47
   4  -7  -2    0.57    0.29
  -4   7   2    0.04    0.49
  -4   7   2   -0.04    0.49
  -4   7   2    0.69    0.34
   3  -7  -2    6.98    0.88
  -3   7   2    7.02    0.77
  -3   7   2    7.13    0.78
  -3   7   2    8.79    0.69
  -2   7   2    5.56    0.63
  -2   7   2    5.87    0.79
  -2   7   2    6.54    0.77
  -2   7   2    6.04    0.70
   1  -7  -2   42.65    1.94
  -1   7   2   40.86    1.83
  -1   7   2   40.10    1.94
  -1   7   2   40.74    1.91
  -1   7   2   43.10    1.81
   0  -7  -2   21.04    1.23
   0   7   2   18.64    0.91
   0   7   2   17.83    1.10
   0   7   2   18.81    1.18
   0   7   2   18.88    0.96
  -1  -7  -2    1.00    0.51
   1   7   2   -0.11    0.60
   1   7   2   -0.09    0.45
   1   7   2    0.06    0.22
   1   7   2    0.28    0.23
  -2  -7  -2    6.95    0.99
   2   7   2    4.16    0.56
   2   7   2    5.08    0.72
  -3  -7  -2    2.42    0.63
   3   7   2    2.27    0.53
   3   7   2    2.65    0.67
  -4  -7  -2    1.89    0.69
   4   7   2    1.40    0.52
   4   7   2    0.47    0.73
  -5  -7  -2    5.03    0.83
   5   7   2    4.44    0.86
   5   7   2    5.74    0.87
  -6  -7  -2    1.00    0.79
   6   7   2   -0.37    0.86
  -7  -7  -2   -0.74    0.81
   7   7   2   -1.20    0.96
  -8  -7  -2   -1.60    0.83
   8   7   2   -1.41    1.09
  11  -8  -2    2.06    0.89
 -11   8   2    0.82    0.76
 -11   8   2    0.63    1.01
  10  -8  -2    1.38    0.80
 -10   8   2   -0.10    0.67
 -10   8   2    0.21    0.84
   9  -8  -2    0.02    0.75
  -9   8   2    0.29    0.79
  -9   8   2    0.73    0.66
   8  -8  -2    0.87    0.67
  -8   8   2   -0.05    0.72
  -8   8   2   -0.08    0.61
   7  -8  -2    0.89    0.67
  -7   8   2   -0.16    0.71
  -7   8   2   -0.75    0.57
   6  -8  -2    0.64    0.59
  -6   8   2    0.09    0.56
  -6   8   2    1.28    0.66
  -5   8   2    0.59    0.61
   4  -8  -2    0.19    0.36
   4  -8  -2    0.23    0.61
  -4   8   2    0.55    0.57
  -4   8   2    0.11    0.54
   3  -8  -2   13.54    0.91
   3  -8  -2   11.90    1.13
  -3   8   2   12.96    1.06
  -3   8   2   12.64    1.00
   2  -8  -2    1.33    0.49
  -2   8   2    0.23    0.44
  -2   8   2    0.27    0.49
  -2   8   2    0.29    0.57
   1  -8  -2    2.46    0.57
  -1   8   2    1.08    0.40
  -1   8   2    0.01    0.36
  -1   8   2    1.07    0.62
  -1   8   2    0.24    0.55
   0  -8  -2    7.16    0.98
   0   8   2    4.39    0.70
   0   8   2    5.33    0.85
   0   8   2    4.90    0.59
  -1  -8  -2    1.20    0.64
   1   8   2    0.12    0.25
   1   8   2   -0.23    0.51
   2   8   2    6.14    0.87
   2   8   2    6.62    1.05
  -3  -8  -2    2.41    0.74
   3   8   2    2.50    0.78
   3   8   2    2.56    0.60
  -4  -8  -2    0.98    0.69
   4   8   2    1.03    0.82
   4   8   2    0.56    0.58
  -5  -8  -2    1.45    0.84
   5   8   2    0.69    0.89
   5   8   2    0.91    0.60
  -6  -8  -2   -0.13    0.85
   6   8   2   -0.15    0.99
  -7  -8  -2   -0.62    0.92
   7   8   2   -1.45    1.08
  10  -9  -2    1.64    0.90
 -10   9   2    0.77    1.01
 -10   9   2    0.10    0.82
   9  -9  -2    1.59    0.88
  -9   9   2   -0.95    0.76
  -9   9   2    0.34    0.94
   8  -9  -2    0.73    0.74
  -8   9   2   -0.14    0.76
  -8   9   2   -0.62    0.85
   7  -9  -2    1.91    0.76
  -7   9   2    0.66    0.77
  -7   9   2    1.09    0.74
   6  -9  -2    2.08    0.73
  -6   9   2    2.17    0.73
  -6   9   2    1.48    0.70
   5  -9  -2    1.17    0.69
  -5   9   2    1.48    0.67
  -5   9   2    1.56    0.69
   4  -9  -2    2.55    0.47
   4  -9  -2    3.18    0.71
  -4   9   2    2.33    0.67
  -4   9   2    2.89    0.65
   3  -9  -2    1.40    0.51
  -3   9   2    0.89    0.56
  -3   9   2    0.83    0.63
  -3   9   2    0.28    0.60
   2  -9  -2   19.58    1.21
  -2   9   2   14.19    1.34
  -2   9   2   16.48    1.12
  -2   9   2   16.16    1.35
  -1   9   2    0.25    0.99
  -1   9   2   -0.16    0.43
  -1   9   2    0.13    0.70
   0   9   2    0.69    0.62
   0   9   2    0.62    0.38
   0   9   2    0.90    0.75
  -1  -9  -2   13.41    1.27
   1   9   2    9.88    1.35
   1   9   2    9.15    1.10
  -2  -9  -2    0.94    0.79
   2   9   2    0.69    0.62
   2   9   2    0.21    0.80
  -3  -9  -2    5.25    0.92
   3   9   2    3.76    0.73
   3   9   2    3.79    0.92
  -4  -9  -2    2.13    0.91
   4   9   2    0.86    0.99
   4   9   2    1.55    0.70
  -5  -9  -2   -0.09    0.89
   5   9   2    1.14    0.95
  -6  -9  -2   -0.52    0.98
   6   9   2   -0.49    1.09
   9 -10  -2    1.02    0.89
  -9  10   2   -0.18    0.98
  -9  10   2    0.65    0.84
   8 -10  -2    2.37    0.91
  -8  10   2    0.23    0.93
  -8  10   2    1.31    0.81
   7 -10  -2    1.89    0.84
  -7  10   2    0.93    0.74
  -7  10   2    1.46    0.88
   6 -10  -2    0.90    0.85
  -6  10   2    0.29    0.80
  -6  10   2    0.06    0.77
   5 -10  -2    1.05    0.83
  -5  10   2   -0.02    0.74
  -5  10   2    1.00    0.74
  -4  10   2    0.78    0.71
  -4  10   2    0.79    0.72
  -4  10   2    0.72    0.77
   3 -10  -2    0.62    0.59
  -3  10   2    0.19    0.62
  -3  10   2   -0.17    0.71
  -3  10   2    0.73    0.77
   2 -10  -2    2.44    0.68
  -2  10   2    0.93    0.69
  -2  10   2    1.48    0.57
  -2  10   2    1.75    0.78
  -1  10   2    4.14    0.73
  -1  10   2    3.75    0.82
   0 -10  -2    1.74    0.83
   0  10   2   -0.19    0.84
   0  10   2   -0.10    0.67
  -1 -10  -2    4.54    0.94
   1  10   2    2.43    0.73
   1  10   2    2.99    0.88
  -2 -10  -2    1.77    0.96
   2  10   2    1.62    0.75
   2  10   2    1.88    0.99
  -3 -10  -2   -0.53    0.89
   3  10   2    0.58    0.78
   3  10   2    1.11    0.94
  -4 -10  -2    1.61    0.98
   4  10   2    1.66    1.08
   7 -11  -2    1.87    0.99
  -7  11   2    0.36    0.85
  -7  11   2   -0.53    0.91
   6 -11  -2    2.83    0.97
  -6  11   2    1.54    0.86
  -6  11   2    0.42    0.86
  -5  11   2   -0.57    0.84
  -5  11   2    0.45    0.77
  -5  11   2   -0.97    0.79
  -4  11   2    0.63    0.76
  -4  11   2    1.15    0.86
  -4  11   2    1.22    0.85
  -3  11   2    0.53    0.82
  -3  11   2   -0.14    0.79
  -3  11   2    0.58    0.83
   2 -11  -2    1.19    0.80
  -2  11   2    0.28    0.83
  -2  11   2    1.46    0.82
   1 -11  -2    1.76    0.87
  -1  11   2    1.37    0.81
  -1  11   2    0.94    0.88
   0 -11  -2    3.17    0.96
   0  11   2    0.39    0.75
   0  11   2    0.71    0.90
  -1 -11  -2    1.16    1.01
   1  11   2    0.17    0.80
   1  11   2    0.37    0.94
  -2 -11  -2    2.18    1.06
   2  11   2    1.72    0.88
   2  11   2    1.53    1.06
   2  13  -3    0.18    0.96
   2  13  -3    0.21    0.93
   1  13  -3    0.62    0.70
   1  13  -3    0.61    0.92
   1  13  -3    0.35    0.84
   0  13  -3   -0.12    0.92
   0  13  -3    0.07    0.71
   0  13  -3    0.46    0.76
   0  13  -3    0.43    0.79
  -1  13  -3    1.33    0.89
  -1  13  -3    0.67    0.74
  -1  13  -3    0.13    0.74
  -1  13  -3    0.09    0.74
  -2  13  -3   -0.81    0.82
  -2  13  -3    0.50    0.75
  -2  13  -3    0.42    0.78
  -3  13  -3    0.56    0.73
  -3  13  -3    0.20    0.82
  -3  13  -3    0.26    0.85
  -4  13  -3   -0.71    0.77
  -4  13  -3    0.65    0.88
  -5  13  -3    0.39    0.95
  -5  13  -3   -0.95    0.73
   5 -13   3    2.95    1.03
   5  12  -3    1.78    0.99
   5  12  -3   -0.01    1.08
   4  12  -3   -1.77    0.94
   4  12  -3    0.04    0.91
   3  12  -3   -1.97    0.91
   3  12  -3   -0.16    0.85
   2  12  -3    0.62    0.84
   2  12  -3    0.85    0.84
   2  12  -3    0.74    0.59
   1  12  -3   -0.43    0.80
   1  12  -3    0.67    0.61
   1  12  -3    0.27    0.77
   0  12  -3    1.46    0.65
   0  12  -3    0.57    0.61
   0  12  -3    0.51    0.71
   0  12  -3    1.51    0.76
  -1  12  -3    2.45    0.76
  -1  12  -3    2.99    0.77
  -1  12  -3    2.44    0.66
  -1  12  -3    3.12    0.79
  -2  12  -3   -0.13    0.73
  -2  12  -3   -0.25    0.60
  -2  12  -3    0.84    0.71
  -2  12  -3    0.30    0.57
  -3  12  -3    0.04    0.54
  -3  12  -3    0.02    0.67
  -3  12  -3    0.01    0.71
  -4  12  -3    2.21    0.80
  -4  12  -3    1.95    0.74
   4 -12   3    4.29    0.87
  -5  12  -3   -0.06    0.74
  -5  12  -3   -0.45    0.85
   5 -12   3    2.08    0.93
  -6  12  -3    0.81    0.94
  -6  12  -3   -0.22    0.77
   6 -12   3    2.67    1.04
  -7  12  -3    1.25    0.95
  -7  12  -3    0.27    0.85
   7 -12   3    4.36    1.09
   6  11  -3   -0.24    0.96
   5  11  -3    0.27    0.85
  -5 -11   3    1.05    0.83
   4  11  -3   -0.14    0.82
   3  11  -3    1.89    0.50
   3  11  -3    0.76    0.82
   3  11  -3    1.92    0.53
   3  11  -3    1.39    0.77
   2  11  -3    0.65    0.49
   2  11  -3   -0.40    0.71
   2  11  -3    0.37    0.52
   1  11  -3    2.65    0.57
   1  11  -3    2.41    0.89
   1  11  -3    3.24    0.56
   1  11  -3    3.00    0.75
   0  11  -3    0.61    0.55
   0  11  -3    0.43    0.50
   0  11  -3    0.30    0.58
   0  11  -3    0.68    0.66
  -1  11  -3    0.74    0.53
  -1  11  -3    1.19    0.64
  -1  11  -3    0.75    0.54
  -1  11  -3    1.10    0.59
  -2  11  -3    1.08    0.50
  -2  11  -3    1.21    0.69
  -2  11  -3    1.75    0.65
  -2  11  -3    0.77    0.65
  -3  11  -3    0.50    0.68
  -3  11  -3    0.35    0.45
  -3  11  -3   -0.48    0.60
   3 -11   3    2.12    1.29
  -4  11  -3    0.22    0.42
  -4  11  -3    0.09    0.68
  -4  11  -3   -0.08    0.63
   4 -11   3    1.92    0.72
  -5  11  -3   -0.40    0.70
  -5  11  -3    0.14    0.68
  -6  11  -3    0.27    0.78
  -6  11  -3   -1.04    0.73
   6 -11   3    2.44    0.86
  -7  11  -3    1.29    0.86
  -8  11  -3    0.43    0.83
  -8  11  -3    1.20    0.99
  -9  11  -3   -1.14    1.07
  -9  11  -3   -0.39    0.85
   7  10  -3   -1.10    0.91
  -7 -10   3   -0.03    0.79
   6  10  -3   -0.26    0.83
  -6 -10   3    0.73    0.84
   5  10  -3    0.41    0.76
  -5 -10   3    2.04    0.78
   4  10  -3    1.00    0.45
   4  10  -3    0.82    0.50
   4  10  -3    1.38    0.72
  -4 -10   3    2.66    0.74
   3  10  -3    3.77    0.72
   3  10  -3    3.47    0.50
   3  10  -3    3.14    0.46
   2  10  -3   -0.39    0.64
   2  10  -3    0.49    0.46
   2  10  -3    0.54    0.61
   2  10  -3    0.57    0.42
   1  10  -3    1.95    0.51
   1  10  -3    1.90    0.45
   1  10  -3    1.53    0.60
   1  10  -3    2.45    0.64
   0  10  -3    2.52    0.47
   0  10  -3    3.13    0.57
   0  10  -3    3.56    0.63
   0  10  -3    3.25    0.54
  -1  10  -3   -0.14    0.45
  -1  10  -3   -0.19    0.51
  -1  10  -3   -0.06    0.46
  -1  10  -3    0.48    0.53
  -2  10  -3    3.25    0.54
  -2  10  -3    3.66    0.61
  -2  10  -3    3.20    0.48
   2 -10   3    4.57    0.63
  -3  10  -3    4.62    0.67
  -3  10  -3    3.87    0.62
  -3  10  -3    4.15    0.64
   3 -10   3    5.42    0.93
  -4  10  -3   -0.92    0.64
  -4  10  -3   -0.14    0.80
  -4  10  -3   -0.15    0.35
   4 -10   3    1.39    0.65
  -5  10  -3    2.99    0.76
   5 -10   3    3.66    0.65
   5 -10   3    5.68    1.28
  -6  10  -3    1.09    0.72
   6 -10   3    1.58    0.62
   6 -10   3    3.01    0.82
  -7  10  -3    0.96    0.85
   7 -10   3    0.97    0.63
   7 -10   3    3.41    0.91
  -8  10  -3    0.74    0.87
   8 -10   3    1.54    0.75
   8 -10   3    1.63    1.00
  -9  10  -3   -0.29    0.74
  -9  10  -3    0.50    0.97
   9 -10   3    2.19    1.04
 -10  10  -3   -0.34    0.80
 -10  10  -3   -0.71    0.96
  10 -10   3   -0.32    1.13
   9   9  -3   -1.84    1.06
   8   9  -3   -0.38    0.93
  -8  -9   3   -0.24    0.84
   7   9  -3   -0.07    0.82
  -7  -9   3    1.09    0.79
   6   9  -3    0.11    0.83
  -6  -9   3    0.88    0.69
   5   9  -3    1.20    0.64
  -5  -9   3    1.62    0.39
  -5  -9   3    2.84    0.66
   4   9  -3   -0.23    0.59
   4   9  -3    0.55    0.33
  -4  -9   3    0.51    0.36
   3   9  -3    2.90    0.38
   3   9  -3    2.66    0.59
   3   9  -3    2.41    0.62
  -3  -9   3    3.05    0.57
  -3  -9   3    3.98    0.62
   2   9  -3    5.46    0.87
   2   9  -3    5.75    0.63
  -2  -9   3    7.72    0.86
  -2  -9   3    6.66    0.69
   1   9  -3   -0.15    0.36
   1   9  -3   -0.42    0.48
   1   9  -3   -0.40    0.41
   1   9  -3    0.15    0.48
   0   9  -3   17.71    1.14
   0   9  -3   18.07    1.08
   0   9  -3   17.86    1.00
   0   9  -3   17.92    1.05
  -1   9  -3   -0.18    0.39
  -1   9  -3    0.07    0.48
  -1   9  -3   -0.01    0.39
   1  -9   3    0.64    0.47
  -2   9  -3    1.70    0.52
  -2   9  -3    0.98    0.37
   2  -9   3    0.88    0.48
   2  -9   3    1.90    0.44
  -3   9  -3    3.73    0.51
  -3   9  -3    4.44    0.56
  -3   9  -3    3.14    0.57
   3  -9   3    5.24    0.82
   3  -9   3    5.00    0.75
  -4   9  -3    0.71    0.32
  -4   9  -3    1.16    0.59
  -4   9  -3    0.87    0.30
   4  -9   3    1.38    0.48
   4  -9   3    1.66    0.52
  -5   9  -3    2.72    0.33
  -5   9  -3    2.45    0.69
   5  -9   3    2.00    0.51
  -6   9  -3    0.83    0.71
   6  -9   3    0.85    0.57
   6  -9   3    2.32    0.73
  -7   9  -3    0.44    0.72
   7  -9   3    0.58    0.59
   7  -9   3    0.96    0.81
  -8   9  -3    0.81    0.75
   8  -9   3    0.35    0.84
   8  -9   3    0.21    0.66
  -9   9  -3   -0.01    0.86
   9  -9   3    0.93    0.71
   9  -9   3    0.07    0.95
 -10   9  -3    0.52    0.95
  10  -9   3   -0.46    0.93
  10  -9   3    0.10    0.76
  10   8  -3    0.29    1.00
  10   8  -3   -1.02    1.05
   9   8  -3    0.13    0.96
  -9  -8   3   -0.39    0.78
   8   8  -3    1.07    0.85
  -8  -8   3    0.83    0.76
   7   8  -3    0.05    0.73
  -7  -8   3    1.48    0.70
   6   8  -3    0.30    0.64
  -6  -8   3    0.86    0.60
  -6  -8   3    0.80    0.43
   5   8  -3    0.93    0.56
   5   8  -3    0.81    0.26
  -5  -8   3    1.16    0.35
  -5  -8   3    0.84    0.53
   4   8  -3   11.98    0.76
   4   8  -3    9.32    0.94
   4   8  -3    9.89    0.59
  -4  -8   3   10.61    0.73
  -4  -8   3   10.86    0.96
   3   8  -3    0.36    0.27
   3   8  -3    0.85    0.47
   3   8  -3    1.01    0.37
   3   8  -3    0.77    0.29
  -3  -8   3    1.04    0.49
  -3  -8   3    1.04    0.34
   2   8  -3   11.81    0.72
   2   8  -3   11.45    0.91
   2   8  -3   12.31    0.88
   2   8  -3   11.71    0.70
  -2  -8   3   11.90    0.78
  -2  -8   3   14.05    0.93
   1   8  -3    7.72    0.74
   1   8  -3    7.54    0.60
   1   8  -3    6.89    0.60
   1   8  -3    5.41    0.76
  -1  -8   3    8.38    0.65
   0   8  -3    3.35    0.48
   0   8  -3    3.31    0.42
   0   8  -3    3.30    0.47
   0   8  -3    3.45    0.48
  -1   8  -3   89.60    3.65
  -1   8  -3   93.14    3.71
  -1   8  -3   86.16    3.65
   1  -8   3   86.78    3.65
   1  -8   3   85.74    3.67
  -2   8  -3    0.06    0.32
  -2   8  -3    0.01    0.45
  -2   8  -3   -0.60    0.28
   2  -8   3    0.66    0.36
   2  -8   3    0.33    0.40
  -3   8  -3    0.09    0.30
  -3   8  -3    0.24    0.48
  -3   8  -3   -0.28    0.26
   3  -8   3    0.44    0.43
   3  -8   3    0.54    0.40
  -4   8  -3   17.01    0.84
  -4   8  -3   17.79    1.17
   4  -8   3   20.03    1.13
   4  -8   3   17.15    1.05
  -5   8  -3    0.19    0.53
  -5   8  -3    0.29    0.26
  -5   8  -3   -0.21    0.21
   5  -8   3    0.28    0.43
   5  -8   3    0.91    0.55
  -6   8  -3    4.15    0.67
   6  -8   3    7.33    1.00
   6  -8   3    4.83    0.72
  -7   8  -3    2.48    0.72
   7  -8   3    3.36    0.72
   7  -8   3    2.60    0.68
  -8   8  -3   -0.48    0.72
   8  -8   3    0.54    0.59
   8  -8   3    0.92    0.70
  -9   8  -3    0.04    0.81
   9  -8   3    2.00    0.83
   9  -8   3    2.36    0.69
 -10   8  -3    0.07    0.87
  10  -8   3    0.32    0.91
  10  -8   3    0.79    0.71
 -11   8  -3    0.02    0.89
  11  -8   3   -1.04    0.90
  11  -8   3   -0.41    0.73
  10   7  -3   -0.06    0.91
  10   7  -3   -0.21    0.95
   9   7  -3   -0.33    0.86
  -9  -7   3    0.30    0.76
   8   7  -3   -0.30    0.76
  -8  -7   3    0.67    0.53
  -8  -7   3    0.83    0.68
   7   7  -3    1.28    0.64
  -7  -7   3    1.37    0.46
  -7  -7   3    0.30    0.59
   6   7  -3    0.51    0.36
   6   7  -3    1.47    0.58
  -6  -7   3    1.34    0.58
   5   7  -3    0.47    0.33
   5   7  -3    0.39    0.15
   5   7  -3    0.61    0.50
  -5  -7   3    0.72    0.52
  -5  -7   3    1.07    0.37
   4   7  -3    4.03    0.39
   4   7  -3    4.88    0.58
   4   7  -3    4.13    0.73
   4   7  -3    3.76    0.37
  -4  -7   3    4.63    0.72
  -4  -7   3    5.94    0.64
   3   7  -3   18.27    0.91
   3   7  -3   18.07    1.06
   3   7  -3   18.56    0.99
   3   7  -3   18.62    0.97
   3   7  -3   18.01    0.85
  -3  -7   3   17.43    1.00
  -3  -7   3   19.25    0.97
   2   7  -3    5.89    0.71
   2   7  -3    6.76    0.62
   2   7  -3    7.18    0.51
   2   7  -3    6.18    0.50
   2   7  -3    7.02    0.58
  -2  -7   3    6.72    0.57
  -2  -7   3    8.88    0.68
   1   7  -3   56.95    2.35
   1   7  -3   55.73    2.39
   1   7  -3   56.98    2.38
   1   7  -3   57.95    2.35
   1   7  -3   56.95    2.36
   1   7  -3   56.22    2.40
  -1  -7   3   53.10    2.38
   0   7  -3   20.77    0.97
   0   7  -3   19.70    0.97
   0   7  -3   20.73    0.96
   0   7  -3   19.26    1.00
   0   7  -3   20.21    1.01
   0   7  -3   20.26    1.01
   0  -7   3   20.47    0.96
   0  -7   3   19.31    1.01
  -1   7  -3   -0.33    0.37
  -1   7  -3    0.43    0.30
  -1   7  -3    0.10    0.28
  -1   7  -3   -0.14    0.27
   1  -7   3    0.33    0.31
   1  -7   3    0.54    0.31
  -2   7  -3   23.95    1.11
  -2   7  -3   23.01    1.20
  -2   7  -3   23.65    1.06
  -2   7  -3   23.70    1.08
   2  -7   3   22.63    1.12
   2  -7   3   22.59    1.12
  -3   7  -3    2.77    0.39
  -3   7  -3    3.76    0.52
   3  -7   3    3.89    0.59
   3  -7   3    4.87    0.65
  -4   7  -3   24.61    1.11
  -4   7  -3   24.77    1.08
  -4   7  -3   25.00    1.33
   4  -7   3   25.93    1.29
   4  -7   3   23.39    1.22
  -5   7  -3   13.08    0.70
  -5   7  -3   13.39    0.64
  -5   7  -3   13.44    1.04
   5  -7   3   14.54    1.01
   5  -7   3   14.32    0.91
  -6   7  -3    0.55    0.18
  -6   7  -3    0.11    0.55
   6  -7   3    1.03    0.52
   6  -7   3    0.51    0.42
  -7   7  -3    0.01    0.58
   7  -7   3    0.33    0.47
   7  -7   3    0.79    0.55
  -8   7  -3    0.13    0.65
   8  -7   3   -0.52    0.71
   8  -7   3   -0.15    0.59
  -9   7  -3    0.38    0.70
   9  -7   3    0.66    0.58
   9  -7   3    0.24    0.69
 -10   7  -3    0.18    0.70
  10  -7   3    0.26    0.65
  10  -7   3   -0.81    0.79
 -11   7  -3   -0.11    0.78
  11  -7   3   -0.85    0.89
  11  -7   3    0.15    0.71
  11   6  -3   -0.20    0.91
  11   6  -3   -0.59    0.91
  10   6  -3   -0.57    0.80
   9   6  -3    0.35    1.27
  -9  -6   3    0.46    0.69
   8   6  -3    1.12    0.69
  -8  -6   3    1.13    0.59
   7   6  -3    0.11    0.58
   7   6  -3   -0.57    0.41
  -7  -6   3    0.59    0.51
   6   6  -3    2.11    0.37
   6   6  -3    2.76    0.54
  -6  -6   3    2.81    0.55
   5   6  -3   10.36    0.89
   5   6  -3    9.92    0.69
  -5  -6   3   11.00    0.86
  -5  -6   3   12.25    0.77
   4   6  -3    1.12    0.40
   4   6  -3    1.49    0.34
   4   6  -3    1.10    0.18
  -4  -6   3    1.10    0.39
  -4  -6   3    1.40    0.36
  -4  -6   3    1.69    0.34
   3   6  -3   41.31    1.70
   3   6  -3   40.24    1.79
   3   6  -3   41.17    1.77
   3   6  -3   41.28    1.69
   3   6  -3   40.63    1.78
  -3  -6   3   40.71    1.81
  -3  -6   3   40.59    1.76
   2   6  -3    7.98    0.49
   2   6  -3    8.22    0.54
   2   6  -3    8.52    0.60
   2   6  -3    8.23    0.48
   2   6  -3    8.32    0.63
  -2  -6   3    8.48    0.61
  -2  -6   3    9.02    0.63
   1   6  -3   15.49    0.71
   1   6  -3   13.90    0.78
   1   6  -3   14.55    0.80
   1   6  -3   14.83    0.76
   1   6  -3   14.56    0.72
   1   6  -3   14.72    0.77
  -1  -6   3   13.91    0.76
  -1  -6   3   13.90    0.75
   0   6  -3  101.92    4.01
   0   6  -3  104.01    4.00
   0   6  -3  102.84    4.00
   0   6  -3  101.16    4.03
   0   6  -3   97.86    4.01
   0  -6   3   86.79    4.02
   0  -6   3   96.03    3.99
   0  -6   3   94.36    4.02
  -1   6  -3    0.04    0.23
  -1   6  -3   -0.27    0.22
  -1   6  -3   -0.09    0.23
  -1   6  -3    0.03    0.29
  -1   6  -3    0.22    0.25
   1  -6   3    0.34    0.31
   1  -6   3    0.24    0.24
   1  -6   3    0.35    0.27
  -2   6  -3   38.16    1.64
  -2   6  -3   37.91    1.63
  -2   6  -3   38.53    1.61
  -2   6  -3   38.17    1.58
  -2   6  -3   36.63    1.66
   2  -6   3   36.84    1.62
   2  -6   3   36.16    1.62
  -3   6  -3   46.84    2.09
  -3   6  -3   49.71    1.97
  -3   6  -3   47.66    1.99
  -3   6  -3   48.60    2.03
   3  -6   3   45.09    2.02
   3  -6   3   47.78    2.05
  -4   6  -3    0.48    0.24
  -4   6  -3   -0.01    0.19
  -4   6  -3   -0.06    0.39
   4  -6   3    0.45    0.37
   4  -6   3    0.30    0.37
  -5   6  -3    0.60    0.26
  -5   6  -3    0.90    0.50
  -5   6  -3    0.45    0.19
   5  -6   3    0.93    0.41
   5  -6   3    0.90    0.38
  -6   6  -3    2.37    0.34
  -6   6  -3    2.33    0.52
   6  -6   3    2.22    0.46
   6  -6   3    2.31    0.46
  -7   6  -3    2.19    0.55
  -7   6  -3    2.55    0.27
   7  -6   3    2.41    0.48
   7  -6   3    1.62    0.52
  -8   6  -3    0.08    0.57
   8  -6   3   -0.68    0.57
   8  -6   3    0.37    0.47
  -9   6  -3    0.87    0.66
   9  -6   3   -0.54    0.61
   9  -6   3    0.91    0.54
 -10   6  -3   -0.18    0.65
  10  -6   3    0.01    0.60
  10  -6   3   -0.69    0.71
 -11   6  -3    1.13    0.78
  11  -6   3   -0.37    0.80
  11  -6   3    0.40    0.66
 -12   6  -3   -0.26    0.78
  12  -6   3    0.62    0.76
  12  -6   3   -1.48    0.85
  12   5  -3   -0.02    0.86
  12   5  -3   -0.62    0.93
  11   5  -3    0.82    0.86
  11   5  -3   -0.68    0.79
  10   5  -3   -0.10    0.72
  10   5  -3    0.09    0.73
   9   5  -3    0.05    0.65
  -9  -5   3    0.37    0.64
   8   5  -3    0.47    0.60
  -8  -5   3    0.18    0.55
   7   5  -3   -0.07    0.39
   7   5  -3    0.47    0.53
  -7  -5   3    0.73    0.50
   6   5  -3    3.36    0.51
   6   5  -3    2.89    0.38
  -6  -5   3    2.88    0.47
   5   5  -3    9.45    0.73
   5   5  -3    8.14    0.63
  -5  -5   3    8.08    0.73
  -5  -5   3    7.62    0.75
  -5  -5   3   10.12    0.70
   4   5  -3    8.16    0.66
   4   5  -3    7.58    0.36
   4   5  -3    7.57    0.36
   4   5  -3    7.80    0.57
  -4  -5   3    7.56    0.60
  -4  -5   3    8.91    0.62
  -4  -5   3    7.45    0.60
   3   5  -3   16.58    0.72
   3   5  -3   16.44    0.85
   3   5  -3   16.48    0.86
  -3  -5   3   17.62    0.82
  -3  -5   3   16.58    0.86
  -3  -5   3   16.69    0.84
   2   5  -3   62.60    2.56
   2   5  -3   63.56    2.57
   2   5  -3   62.60    2.52
   2   5  -3   64.56    2.54
   2   5  -3   60.67    2.58
   2   5  -3   61.38    2.56
  -2  -5   3   60.25    2.51
  -2  -5   3   58.68    2.56
   1   5  -3   16.08    0.79
   1   5  -3   16.56    0.73
   1   5  -3   15.92    0.77
   1   5  -3   16.37    0.73
   1   5  -3   16.29    0.76
   1   5  -3   15.95    0.80
  -1  -5   3   15.58    0.79
  -1  -5   3   15.84    0.73
   0   5  -3   33.22    1.39
   0   5  -3   33.15    1.37
   0   5  -3   33.77    1.42
   0   5  -3   31.38    1.40
   0   5  -3   33.54    1.39
   0  -5   3   31.08    1.41
   0  -5   3   32.11    1.38
  -1   5  -3   60.51    2.39
  -1   5  -3   59.41    2.37
  -1   5  -3   58.86    2.38
  -1   5  -3   59.84    2.37
   1  -5   3   55.39    2.37
   1  -5   3   55.48    2.38
   1  -5   3   54.08    2.40
  -2   5  -3   -0.05    0.20
  -2   5  -3    0.03    0.24
  -2   5  -3   -0.10    0.22
  -2   5  -3   -0.16    0.29
  -2   5  -3   -0.20    0.26
   2  -5   3    0.24    0.27
   2  -5   3    0.01    0.25
   2  -5   3    0.43    0.31
  -3   5  -3   23.35    1.05
  -3   5  -3   24.49    1.10
  -3   5  -3   23.87    1.13
  -3   5  -3   23.70    1.16
  -3   5  -3   24.48    1.11
   3  -5   3   23.16    1.11
   3  -5   3   24.26    1.03
   3  -5   3   24.49    1.11
  -4   5  -3    0.29    0.33
  -4   5  -3   -0.15    0.34
  -4   5  -3    0.04    0.25
   4  -5   3   -0.23    0.31
   4  -5   3    0.06    0.17
   4  -5   3    0.10    0.32
  -5   5  -3    0.10    0.25
  -5   5  -3    0.28    0.43
   5  -5   3    0.08    0.35
   5  -5   3    0.03    0.36
   5  -5   3   -0.20    0.17
  -6   5  -3   10.38    0.56
  -6   5  -3   10.75    0.87
   6  -5   3    8.60    0.83
   6  -5   3    9.81    0.76
   6  -5   3    9.82    0.53
  -7   5  -3    0.44    0.50
  -7   5  -3    0.98    0.25
   7  -5   3    0.42    0.23
   7  -5   3    0.46    0.43
   7  -5   3    0.08    0.46
  -8   5  -3    0.15    0.51
  -8   5  -3   -0.02    0.23
   8  -5   3   -0.80    0.57
   8  -5   3    0.11    0.48
  -9   5  -3    0.85    0.57
   9  -5   3    0.48    0.66
   9  -5   3    1.52    0.52
 -10   5  -3    0.56    0.63
  10  -5   3    0.72    0.56
  10  -5   3    0.38    0.67
 -11   5  -3   -0.89    0.70
  11  -5   3   -0.19    0.62
  11  -5   3   -0.64    0.77
 -12   5  -3   -0.68    0.75
  12  -5   3   -0.11    0.72
  12  -5   3   -0.12    0.82
  12   4  -3   -0.09    0.87
  12   4  -3    0.94    0.77
  11   4  -3    1.74    0.80
  11   4  -3    1.07    0.71
  10   4  -3   -0.62    1.15
   9   4  -3    0.18    0.58
   8   4  -3    0.19    0.50
  -8  -4   3   -0.94    0.54
  -8  -4   3    0.65    0.48
   7   4  -3   15.40    1.01
   7   4  -3   17.14    0.98
  -7  -4   3   14.42    1.11
  -7  -4   3   14.33    0.95
   6   4  -3    1.05    0.34
   6   4  -3    1.14    0.44
  -6  -4   3    0.26    0.45
  -6  -4   3    1.49    0.42
  -6  -4   3    1.54    0.47
   5   4  -3    0.72    0.31
   5   4  -3    0.72    0.35
  -5  -4   3    0.20    0.36
  -5  -4   3    0.72    0.38
  -5  -4   3    0.56    0.34
   4   4  -3   89.91    3.65
   4   4  -3   88.71    3.65
  -4  -4   3   87.04    3.65
  -4  -4   3   92.99    3.66
  -4  -4   3   85.35    3.66
   3   4  -3   17.43    0.83
   3   4  -3   16.67    0.71
   3   4  -3   17.33    0.82
   3   4  -3   16.70    0.85
   3   4  -3   16.82    0.79
  -3  -4   3   16.07    0.70
  -3  -4   3   16.89    0.79
   2   4  -3  254.29   10.14
   2   4  -3  240.55   10.12
   2   4  -3  262.16   10.12
   2   4  -3  248.55   10.13
   2   4  -3  267.85   10.15
   2   4  -3  254.10   10.12
  -2  -4   3  250.43   10.15
  -2  -4   3  235.60   10.16
   1   4  -3  133.99    5.53
   1   4  -3  140.17    5.51
   1   4  -3  143.86    5.54
   1   4  -3  136.35    5.51
  -1  -4   3  134.66    5.51
  -1  -4   3  131.63    5.54
   0   4  -3    0.52    0.22
   0   4  -3    0.34    0.14
   0   4  -3    0.44    0.19
   0   4  -3    0.53    0.17
   0  -4   3    0.49    0.14
   0  -4   3    0.73    0.18
   0  -4   3    0.68    0.18
  -1   4  -3  186.72    7.38
  -1   4  -3  189.96    7.39
  -1   4  -3  184.31    7.38
  -1   4  -3  185.59    7.40
   1  -4   3  172.47    7.41
   1  -4   3  185.50    7.38
   1  -4   3  178.14    7.38
  -2   4  -3  114.83    4.57
  -2   4  -3  116.19    4.55
  -2   4  -3  114.39    4.56
  -2   4  -3  110.12    4.54
   2  -4   3  108.84    4.57
   2  -4   3  105.34    4.55
   2  -4   3  114.49    4.54
   2  -4   3  113.00    4.55
  -3   4  -3    0.14    0.24
  -3   4  -3   -0.11    0.26
  -3   4  -3   -0.09    0.24
  -3   4  -3    0.19    0.21
  -3   4  -3    0.12    0.23
   3  -4   3    0.03    0.24
   3  -4   3    0.15    0.26
   3  -4   3   -0.16    0.17
  -4   4  -3   48.37    2.08
  -4   4  -3   48.86    2.04
  -4   4  -3   49.39    2.04
  -4   4  -3   48.23    2.02
  -4   4  -3   49.09    2.06
   4  -4   3   50.03    2.01
   4  -4   3   45.49    2.04
   4  -4   3   46.64    2.06
  -5   4  -3    0.05    0.37
  -5   4  -3   -0.03    0.27
   5  -4   3   -0.26    0.35
   5  -4   3    0.18    0.31
  -6   4  -3    8.69    0.55
  -6   4  -3    8.98    0.78
   6  -4   3    8.54    0.68
   6  -4   3    6.53    0.79
  -7   4  -3    8.76    0.83
   7  -4   3    8.49    0.71
   7  -4   3    7.14    0.88
  -8   4  -3    0.25    0.29
  -8   4  -3   -0.04    0.47
   8  -4   3   -0.04    0.41
   8  -4   3   -0.51    0.57
  -9   4  -3   -0.24    0.31
  -9   4  -3    0.00    0.54
   9  -4   3    0.10    0.48
   9  -4   3   -0.57    0.64
  10  -4   3   -0.05    0.61
  10  -4   3   -0.58    0.71
 -11   4  -3   -0.64    0.67
  11  -4   3    0.44    0.61
  11  -4   3   -0.58    0.80
 -12   4  -3   -0.21    0.74
  12  -4   3   -1.13    0.67
  12  -4   3   -0.80    0.86
  12   3  -3    1.13    0.72
  12   3  -3    0.17    0.81
 -12  -3   3    0.47    0.84
  11   3  -3    0.61    0.73
 -11  -3   3   -0.29    0.74
  10   3  -3    0.12    0.55
  10   3  -3    0.64    0.63
   9   3  -3    0.49    0.54
   9   3  -3    0.74    0.50
   8   3  -3    0.84    0.46
   8   3  -3    0.96    0.49
   7   3  -3    0.55    0.43
   6   3  -3   41.56    1.77
   6   3  -3   38.51    1.78
   6   3  -3   40.72    1.78
  -6  -3   3   38.13    1.89
  -6  -3   3   41.41    1.84
   5   3  -3   29.72    1.33
   5   3  -3   30.44    1.35
   5   3  -3   29.38    1.36
   5   3  -3   29.64    1.36
  -5  -3   3   31.23    1.37
  -5  -3   3   28.54    1.42
   4   3  -3  113.39    4.72
   4   3  -3  116.83    4.75
   4   3  -3  113.60    4.74
   4   3  -3  121.72    4.74
  -4  -3   3  119.78    4.74
  -4  -3   3  112.93    4.77
   3   3  -3  228.24    9.07
   3   3  -3  226.06    9.05
   3   3  -3  232.69    9.03
   3   3  -3  214.25    9.04
   3   3  -3  229.88    9.06
  -3  -3   3  220.42    9.08
  -3  -3   3  218.94    9.03
  -3  -3   3  227.18    9.05
   2   3  -3    2.17    0.31
   2   3  -3    2.49    0.22
   2   3  -3    2.10    0.33
   2   3  -3    2.07    0.36
   2   3  -3    2.51    0.23
  -2  -3   3    2.01    0.36
  -2  -3   3    2.33    0.21
  -2  -3   3    2.39    0.21
   1   3  -3  194.67    7.83
   1   3  -3  199.86    7.83
   1   3  -3  191.87    7.80
   1   3  -3  194.60    7.81
   1   3  -3  195.30    7.82
  -1  -3   3  199.22    7.82
  -1  -3   3  188.26    7.83
  -1  -3   3  189.73    7.81
   0   3  -3   77.03    3.19
   0   3  -3   80.05    3.16
   0   3  -3   79.71    3.18
   0   3  -3   80.32    3.20
   0  -3   3   74.62    3.16
   0  -3   3   77.09    3.18
   0  -3   3   78.24    3.20
   0  -3   3   79.29    3.19
  -1   3  -3   34.18    1.42
  -1   3  -3   34.70    1.42
  -1   3  -3   33.08    1.39
  -1   3  -3   32.24    1.41
   1  -3   3   32.65    1.43
   1  -3   3   33.63    1.39
   1  -3   3   33.10    1.42
   1  -3   3   35.00    1.41
  -2   3  -3   90.71    3.58
  -2   3  -3   80.43    3.57
  -2   3  -3   88.96    3.57
  -2   3  -3   89.44    3.58
   2  -3   3   85.13    3.57
   2  -3   3   92.22    3.57
  -3   3  -3    0.32    0.22
  -3   3  -3   -0.21    0.22
  -3   3  -3   -0.09    0.22
  -3   3  -3   -0.17    0.24
   3  -3   3   -0.19    0.22
   3  -3   3   -0.05    0.21
  -4   3  -3    5.06    0.49
  -4   3  -3    4.92    0.46
  -4   3  -3    5.14    0.47
  -4   3  -3    6.13    0.49
  -4   3  -3    6.21    0.49
   4  -3   3    4.63    0.49
   4  -3   3    4.53    0.53
   4  -3   3    4.69    0.47
  -5   3  -3    0.45    0.34
  -5   3  -3    0.35    0.29
  -5   3  -3    0.48    0.32
  -5   3  -3    0.11    0.30
   5  -3   3   -0.14    0.40
   5  -3   3    0.16    0.28
   5  -3   3    0.22    0.39
  -6   3  -3    0.03    0.29
  -6   3  -3    0.05    0.39
   6  -3   3    1.15    0.44
   6  -3   3   -0.48    0.45
   6  -3   3    0.12    0.34
  -7   3  -3    0.08    0.41
  -7   3  -3   -0.22    0.31
   7  -3   3    0.21    0.38
   7  -3   3   -0.80    0.51
  -9   3  -3    0.00    0.37
  -9   3  -3   -0.27    0.51
   9  -3   3    0.37    0.46
   9  -3   3    0.10    0.63
 -10   3  -3   -0.07    0.41
 -10   3  -3   -0.13    0.56
  10  -3   3   -0.93    0.69
  10  -3   3    0.17    0.51
 -11   3  -3   -0.95    0.62
  11  -3   3   -0.76    0.81
  11  -3   3    0.11    0.62
 -12   3  -3   -0.98    0.73
  12  -3   3   -1.88    0.88
  12  -3   3   -0.27    0.69
  13   2  -3   -0.11    0.87
 -13  -2   3    1.70    1.10
  12   2  -3   -0.55    0.76
 -12  -2   3    0.44    0.79
  11   2  -3    0.17    0.54
  11   2  -3   -0.25    0.66
 -11  -2   3   -0.75    0.71
  10   2  -3    0.18    0.47
  10   2  -3    0.21    0.57
   9   2  -3   -0.23    0.52
   9   2  -3    0.15    0.43
   8   2  -3    4.22    0.66
   8   2  -3    4.31    0.76
  -8  -2   3    2.45    0.65
   7   2  -3    0.91    0.42
   7   2  -3    0.78    0.36
  -7  -2   3   -0.88    0.54
   6   2  -3   14.38    0.78
   6   2  -3   14.58    0.74
   6   2  -3   14.91    0.81
   6   2  -3   13.87    0.81
  -6  -2   3   12.71    0.98
  -6  -2   3   15.30    0.85
  -6  -2   3   12.25    0.64
   5   2  -3   68.32    2.88
   5   2  -3   68.03    2.87
   5   2  -3   71.88    2.91
  -5  -2   3   71.08    2.83
  -5  -2   3   68.56    2.96
  -5  -2   3   69.27    2.81
  -5  -2   3   71.59    2.91
   4   2  -3    0.58    0.28
   4   2  -3    0.41    0.21
   4   2  -3    0.13    0.27
   4   2  -3    0.12    0.20
  -4  -2   3   -0.27    0.32
  -4  -2   3   -0.01    0.23
  -4  -2   3   -0.19    0.14
   3   2  -3   96.02    3.84
   3   2  -3   92.41    3.83
   3   2  -3   94.56    3.85
   3   2  -3   95.53    3.87
   3   2  -3   95.01    3.81
  -3  -2   3   93.63    3.88
  -3  -2   3   95.70    3.82
   2   2  -3   24.48    1.08
   2   2  -3   26.40    1.06
   2   2  -3   25.88    1.12
   2   2  -3   24.13    1.02
  -2  -2   3   23.97    1.12
  -2  -2   3   25.41    1.03
  -2  -2   3   24.46    1.05
  -2  -2   3   25.27    1.07
   1   2  -3   11.83    0.57
   1   2  -3   11.57    0.54
   1   2  -3   11.25    0.59
  -1  -2   3   10.64    0.59
  -1  -2   3   10.86    0.55
  -1  -2   3   12.05    0.56
   0   2  -3  586.32   22.99
   0   2  -3  572.66   22.95
   0   2  -3  564.01   22.98
   0   2  -3  577.43   22.90
   0  -2   3  578.43   23.01
   0  -2   3  565.05   22.95
   0  -2   3  558.19   23.01
   0  -2   3  554.34   22.89
  -1   2  -3    2.16    0.33
  -1   2  -3    1.23    0.20
  -1   2  -3    1.32    0.23
   1  -2   3    1.24    0.19
   1  -2   3    0.95    0.22
   1  -2   3    1.24    0.19
   1  -2   3    1.31    0.22
  -2   2  -3    3.26    0.40
  -2   2  -3    2.89    0.30
  -2   2  -3    3.86    0.33
  -2   2  -3    3.75    0.33
   2  -2   3    3.12    0.33
   2  -2   3    3.67    0.40
   2  -2   3    3.11    0.36
   2  -2   3    2.94    0.36
  -3   2  -3   32.67    1.35
  -3   2  -3   31.38    1.35
  -3   2  -3   30.75    1.37
  -3   2  -3   29.55    1.33
  -3   2  -3   30.57    1.32
   3  -2   3   29.56    1.34
   3  -2   3   33.09    1.39
  -4   2  -3   36.39    1.52
  -4   2  -3   35.37    1.55
  -4   2  -3   37.30    1.55
  -4   2  -3   34.18    1.54
   4  -2   3   33.82    1.58
   4  -2   3   40.44    1.61
   4  -2   3   33.60    1.54
  -5   2  -3    8.97    0.59
  -5   2  -3    7.57    0.52
  -5   2  -3    7.93    0.58
  -5   2  -3    6.44    0.57
   5  -2   3    6.23    0.75
   5  -2   3    6.73    0.57
  -6   2  -3    2.23    0.39
  -6   2  -3    2.49    0.34
  -6   2  -3    2.23    0.36
   6  -2   3    1.99    0.36
   6  -2   3    2.07    0.52
  -7   2  -3    0.81    0.41
  -7   2  -3    0.43    0.36
   7  -2   3   -0.18    0.53
   7  -2   3    1.09    0.37
  -8   2  -3    0.01    0.37
  -8   2  -3   -0.22    0.44
   8  -2   3   -0.54    0.59
   8  -2   3   -0.02    0.38
  -9   2  -3    0.17    0.48
  -9   2  -3   -0.02    0.41
   9  -2   3    0.27    0.43
   9  -2   3   -0.66    0.66
 -10   2  -3   -0.75    0.54
 -10   2  -3   -0.46    0.46
  10  -2   3    0.18    0.50
  10  -2   3   -0.84    0.72
 -11   2  -3   -0.06    0.63
  11  -2   3    0.15    0.74
  11  -2   3    0.45    0.58
  12  -2   3   -0.57    0.92
  13   1  -3    0.16    0.79
 -13  -1   3    2.36    0.88
  12   1  -3    0.02    0.72
  12   1  -3    0.18    0.72
 -12  -1   3   -0.35    0.78
  11   1  -3    1.03    0.49
  11   1  -3    0.88    0.66
 -11  -1   3   -0.97    0.76
  10   1  -3   -0.86    0.57
  10   1  -3    0.12    0.42
 -10  -1   3   -1.34    0.63
 -10  -1   3    0.18    0.27
   9   1  -3    1.46    0.49
   9   1  -3    1.41    0.40
  -9  -1   3   -0.21    0.56
  -9  -1   3    1.45    0.26
   8   1  -3    0.60    0.44
   8   1  -3    1.10    0.34
   8   1  -3    0.95    0.36
  -8  -1   3    0.84    0.23
  -8  -1   3   -0.23    0.53
   7   1  -3    5.84    0.65
   7   1  -3    6.38    0.52
   7   1  -3    6.43    0.57
  -7  -1   3    5.95    0.43
  -7  -1   3    7.04    0.38
  -7  -1   3    5.38    0.66
   6   1  -3   -0.11    0.26
   6   1  -3   -0.09    0.30
   6   1  -3    0.12    0.34
   6   1  -3   -0.26    0.23
  -6  -1   3    0.02    0.14
  -6  -1   3   -0.02    0.18
  -6  -1   3    0.44    0.31
  -6  -1   3   -0.76    0.43
   5   1  -3   84.20    3.46
   5   1  -3   89.60    3.52
  -5  -1   3   89.06    3.49
  -5  -1   3   83.11    3.45
  -5  -1   3   80.49    3.54
  -5  -1   3   83.82    3.43
   4   1  -3   43.19    1.79
   4   1  -3   40.55    1.74
   4   1  -3   40.84    1.73
   4   1  -3   41.64    1.73
  -4  -1   3   43.46    1.75
  -4  -1   3   41.97    1.72
  -4  -1   3   40.20    1.80
   3   1  -3   11.58    0.57
   3   1  -3   11.40    0.53
  -3  -1   3   12.07    0.58
  -3  -1   3   11.62    0.69
  -3  -1   3   11.96    0.56
   2   1  -3  430.34   17.48
   2   1  -3  431.76   17.61
   2   1  -3  426.77   17.55
   2   1  -3  437.65   17.46
  -2  -1   3  436.56   17.57
  -2  -1   3  431.50   17.47
  -2  -1   3  443.68   17.54
  -2  -1   3  434.30   17.48
   1   1  -3   12.19    0.58
   1   1  -3   11.53    0.57
   1   1  -3   11.39    0.59
  -1  -1   3   11.54    0.61
  -1  -1   3   10.71    0.48
  -1  -1   3    9.88    0.56
  -1  -1   3   11.64    0.56
  -1  -1   3   10.64    0.48
   0   1  -3   35.70    1.62
   0   1  -3   40.35    1.63
   0   1  -3   38.81    1.60
   0   1  -3   39.85    1.59
   0  -1   3   40.34    1.63
   0  -1   3   37.03    1.63
   0  -1   3   39.24    1.59
   0  -1   3   38.28    1.61
  -1   1  -3  187.16    7.60
  -1   1  -3  191.64    7.62
  -1   1  -3  186.88    7.63
  -1   1  -3  189.16    7.60
   1  -1   3  205.08    7.64
   1  -1   3  185.73    7.62
   1  -1   3  184.69    7.60
   1  -1   3  181.18    7.61
  -2   1  -3    2.11    0.24
  -2   1  -3    2.67    0.34
  -2   1  -3    2.25    0.33
  -2   1  -3    2.18    0.32
   2  -1   3    1.74    0.27
   2  -1   3    2.17    0.27
   2  -1   3    2.67    0.43
   2  -1   3    2.18    0.27
  -3   1  -3   86.71    3.64
  -3   1  -3   91.35    3.68
  -3   1  -3   93.01    3.64
  -3   1  -3   90.54    3.66
   3  -1   3   96.62    3.71
   3  -1   3   82.98    3.66
   3  -1   3   86.32    3.69
  -4   1  -3    0.68    0.31
  -4   1  -3    1.72    0.30
  -4   1  -3    0.89    0.24
  -4   1  -3    1.27    0.31
  -4   1  -3    0.99    0.20
   4  -1   3    0.87    0.39
   4  -1   3    0.75    0.28
  -5   1  -3   -0.31    0.31
  -5   1  -3    0.80    0.31
  -5   1  -3   -0.21    0.22
  -5   1  -3    0.02    0.28
   5  -1   3    0.17    0.44
   5  -1   3   -0.27    0.30
   5  -1   3    0.95    0.41
  -6   1  -3    1.29    0.35
  -6   1  -3    1.10    0.37
  -6   1  -3    1.72    0.37
  -6   1  -3    1.16    0.28
   6  -1   3    0.94    0.53
   6  -1   3    0.91    0.33
  -7   1  -3    1.53    0.40
  -7   1  -3    1.32    0.32
  -7   1  -3    1.55    0.40
   7  -1   3    1.69    0.37
   7  -1   3    1.58    0.59
  -8   1  -3    0.93    0.43
  -8   1  -3    0.30    0.41
   8  -1   3    0.57    0.38
   8  -1   3    0.51    0.64
  -9   1  -3    1.42    0.50
  -9   1  -3    2.14    0.49
   9  -1   3    1.43    0.66
   9  -1   3    2.02    0.46
 -10   1  -3    1.71    0.57
 -10   1  -3    1.68    0.54
  10  -1   3    2.55    0.52
  10  -1   3    2.71    0.81
 -11   1  -3    0.08    0.60
  11  -1   3    1.15    0.59
  11  -1   3   -0.06    0.89
  12  -1   3   -1.15    0.96
  13   0  -3    0.99    0.83
 -13   0   3    0.12    0.80
  12   0  -3    0.44    0.72
 -12   0   3   -0.50    0.77
  11   0  -3    0.26    0.64
  11   0  -3    0.20    0.41
 -11   0   3   -1.37    0.80
  10   0  -3    2.67    0.60
  10   0  -3    3.05    0.42
 -10   0   3    1.25    0.63
 -10   0   3    3.18    0.37
   9   0  -3    0.30    0.33
   9   0  -3    0.38    0.50
   9   0  -3    0.38    0.34
  -9   0   3   -0.59    0.56
  -9   0   3    0.75    0.25
  -9   0   3    0.11    0.30
   8   0  -3    0.37    0.30
   8   0  -3    0.38    0.29
   8   0  -3   -0.23    0.44
  -8   0   3    0.19    0.21
  -8   0   3   -0.25    0.50
  -8   0   3    0.37    0.28
   7   0  -3   24.71    1.10
   7   0  -3   23.35    1.19
   7   0  -3   24.20    1.07
  -7   0   3   23.97    1.11
  -7   0   3   21.99    1.25
  -7   0   3   25.33    1.05
   6   0  -3   44.48    1.83
   6   0  -3   42.45    1.85
   6   0  -3   41.28    1.88
   6   0  -3   45.01    1.95
  -6   0   3   45.69    1.82
  -6   0   3   43.56    1.84
  -6   0   3   48.79    1.91
  -6   0   3   40.64    1.98
   5   0  -3    0.54    0.32
   5   0  -3    0.47    0.20
   5   0  -3    0.13    0.23
   5   0  -3    0.21    0.18
  -5   0   3    0.34    0.19
  -5   0   3    0.89    0.25
  -5   0   3    0.21    0.16
  -5   0   3   -0.12    0.35
   4   0  -3  200.80    8.22
   4   0  -3  215.91    8.27
   4   0  -3  205.11    8.21
   4   0  -3  202.26    8.22
  -4   0   3  211.44    8.22
  -4   0   3  196.17    8.22
  -4   0   3  212.20    8.23
  -4   0   3  189.24    8.26
   3   0  -3   19.49    0.87
   3   0  -3   18.89    0.85
   3   0  -3   19.95    0.86
   3   0  -3   20.98    0.93
  -3   0   3   19.76    0.96
  -3   0   3   19.74    0.88
  -3   0   3   20.71    0.86
  -3   0   3   19.91    0.86
   2   0  -3   52.06    2.10
   2   0  -3   49.13    2.05
   2   0  -3   45.88    2.07
   2   0  -3   53.19    2.07
  -2   0   3   49.71    2.08
  -2   0   3   51.41    2.09
  -2   0   3   49.93    2.06
   1   0  -3  769.55   28.87
   1   0  -3  661.44   28.83
   1   0  -3  766.72   28.87
  -1   0   3  701.33   28.83
  -1   0   3  709.71   28.81
  -1   0   3  704.01   28.78
  -1   0   3  689.82   28.82
   0   0  -3   25.95    1.14
   0   0  -3   25.57    1.10
   0   0  -3   24.87    1.18
   0   0  -3   24.73    1.12
   0   0   3   26.16    1.17
   0   0   3   27.98    1.17
   0   0   3   25.88    1.11
   0   0   3   24.57    1.09
  -1   0  -3  132.74    5.77
  -1   0  -3  145.00    5.78
  -1   0  -3  141.30    5.82
  -1   0  -3  143.39    5.80
   1   0   3  154.44    5.82
   1   0   3  143.38    5.80
   1   0   3  144.01    5.81
   1   0   3  140.09    5.76
  -2   0  -3   45.73    1.96
  -2   0  -3   47.10    1.96
   2   0   3   45.81    1.98
   2   0   3   45.18    1.98
   2   0   3   46.14    1.91
   2   0   3   51.20    2.01
  -3   0  -3   18.73    0.80
  -3   0  -3   18.43    0.90
  -3   0  -3   19.27    0.90
  -3   0  -3   17.79    0.81
  -3   0  -3   17.79    0.94
   3   0   3   18.38    0.97
   3   0   3   21.03    0.97
   3   0   3   17.74    0.89
  -4   0  -3   50.33    2.24
  -4   0  -3   53.71    2.25
  -4   0  -3   53.58    2.22
  -4   0  -3   52.14    2.17
  -4   0  -3   52.25    2.15
   4   0   3   50.33    2.28
   4   0   3   50.53    2.20
   4   0   3   56.17    2.27
  -5   0  -3   -0.04    0.19
  -5   0  -3    0.11    0.26
  -5   0  -3   -0.52    0.37
  -5   0  -3    0.70    0.34
   5   0   3    1.16    0.46
   5   0   3    0.28    0.49
   5   0   3   -0.31    0.32
  -6   0  -3    3.83    0.60
  -6   0  -3    1.86    0.45
  -6   0  -3    2.09    0.27
   6   0   3    1.90    0.61
   6   0   3    1.95    0.37
  -7   0  -3    1.89    0.43
  -7   0  -3    2.32    0.30
  -7   0  -3    1.55    0.38
   7   0   3    1.79    0.38
   7   0   3    1.81    0.63
  -8   0  -3    0.23    0.45
  -8   0  -3   -0.44    0.39
   8   0   3    0.33    0.64
   8   0   3   -0.08    0.37
  -9   0  -3    1.94    0.53
  -9   0  -3    0.97    0.48
   9   0   3    1.35    0.77
   9   0   3    1.94    0.45
 -10   0  -3    0.27    0.57
  10   0   3    1.37    0.88
  10   0   3    0.28    0.48
 -11   0  -3   -0.45    0.65
  11   0   3    0.55    0.96
  13  -1  -3    0.60    0.81
 -13   1   3   -1.31    0.83
  12  -1  -3    0.12    0.73
 -12   1   3   -0.76    0.74
  11  -1  -3    0.44    0.65
 -11   1   3    0.07    0.39
 -11   1   3   -1.00    0.69
  10  -1  -3    0.33    0.56
  10  -1  -3   -0.12    0.33
 -10   1   3    0.17    0.37
 -10   1   3   -0.21    0.64
   9  -1  -3    0.42    0.49
   9  -1  -3    1.33    0.31
   9  -1  -3    0.55    0.30
  -9   1   3    0.11    0.59
  -9   1   3    0.69    0.34
  -9   1   3    0.35    0.28
   8  -1  -3    4.41    0.67
   8  -1  -3    4.88    0.45
  -8   1   3    4.55    0.55
  -8   1   3    3.57    0.58
  -8   1   3    3.85    0.44
   7  -1  -3    4.67    0.63
   7  -1  -3    5.87    0.41
   7  -1  -3    5.42    0.44
  -7   1   3    5.70    0.54
  -7   1   3    5.01    0.44
  -7   1   3    5.26    0.82
   6  -1  -3   28.23    1.18
   6  -1  -3   26.97    1.20
   6  -1  -3   28.01    1.27
  -6   1   3   31.01    1.29
  -6   1   3   27.33    1.24
  -6   1   3   25.52    1.35
  -6   1   3   27.51    1.21
   5  -1  -3   13.04    0.64
   5  -1  -3   13.01    0.70
   5  -1  -3   14.47    0.79
  -5   1   3   13.43    0.65
  -5   1   3   12.40    0.74
  -5   1   3   12.59    0.79
  -5   1   3   15.06    0.71
   4  -1  -3   22.15    1.02
   4  -1  -3   19.86    0.92
   4  -1  -3   21.04    0.92
  -4   1   3   19.59    1.00
  -4   1   3   21.77    0.90
  -4   1   3   21.80    0.94
  -4   1   3   20.31    0.99
   3  -1  -3   94.72    3.65
   3  -1  -3   84.48    3.59
   3  -1  -3   90.97    3.60
   3  -1  -3   85.86    3.60
  -3   1   3   86.06    3.58
  -3   1   3   87.34    3.61
  -3   1   3   89.74    3.60
   2  -1  -3    6.90    0.43
   2  -1  -3    6.38    0.40
   2  -1  -3    6.64    0.50
   2  -1  -3    7.20    0.50
  -2   1   3    6.29    0.39
  -2   1   3    6.47    0.46
  -2   1   3    7.20    0.43
  -2   1   3    6.57    0.45
   1  -1  -3   70.15    2.70
   1  -1  -3   69.83    2.70
   1  -1  -3   65.21    2.72
  -1   1   3   63.42    2.67
  -1   1   3   61.95    2.69
  -1   1   3   62.47    2.67
  -1   1   3   62.50    2.67
  -1   1   3   67.42    2.70
   0  -1  -3  257.92   10.74
   0  -1  -3  281.81   10.77
   0  -1  -3  271.54   10.78
   0   1   3  264.50   10.76
   0   1   3  260.20   10.75
   0   1   3  274.40   10.77
   0   1   3  259.24   10.76
  -1  -1  -3   72.45    2.87
  -1  -1  -3   72.02    2.81
  -1  -1  -3   68.55    2.85
   1   1   3   66.73    2.87
   1   1   3   63.98    2.90
   1   1   3   73.85    2.89
   1   1   3   67.09    2.80
  -2  -1  -3   74.57    2.99
  -2  -1  -3   74.60    3.07
  -2  -1  -3   73.94    3.06
  -2  -1  -3   73.36    3.08
   2   1   3   75.44    3.09
   2   1   3   69.59    3.10
   2   1   3   74.28    2.98
   2   1   3   75.83    3.08
  -3  -1  -3    9.93    0.44
  -3  -1  -3    9.33    0.46
  -3  -1  -3    9.16    0.60
  -3  -1  -3   10.32    0.65
  -3  -1  -3    8.44    0.68
   3   1   3    9.78    0.70
   3   1   3   11.37    0.72
   3   1   3    9.90    0.66
  -4  -1  -3    1.17    0.36
  -4  -1  -3    0.70    0.19
  -4  -1  -3    0.45    0.38
  -4  -1  -3    0.90    0.24
   4   1   3    1.02    0.35
   4   1   3    1.19    0.47
   4   1   3    1.59    0.45
  -5  -1  -3    0.03    0.43
  -5  -1  -3    0.32    0.17
  -5  -1  -3    0.71    0.38
  -5  -1  -3   -0.13    0.24
   5   1   3    0.29    0.53
   5   1   3   -0.03    0.34
  -6  -1  -3    0.87    0.46
  -6  -1  -3    0.48    0.31
  -6  -1  -3    1.34    0.21
   6   1   3    1.28    0.64
   6   1   3    0.88    0.37
  -7  -1  -3    0.43    0.22
  -7  -1  -3    0.20    0.47
  -7  -1  -3   -0.40    0.39
   7   1   3    0.03    0.61
   7   1   3    0.81    0.37
  -8  -1  -3    3.64    0.56
  -8  -1  -3    2.87    0.46
   8   1   3    4.39    0.65
  -9  -1  -3    0.01    0.54
   9   1   3    0.11    0.42
   9   1   3   -0.27    0.73
 -10  -1  -3   -0.43    0.61
  10   1   3   -0.25    0.90
 -11  -1  -3    1.28    0.72
  11   1   3    0.92    0.97
  13  -2  -3   -0.08    0.78
 -13   2   3   -0.97    0.82
  12  -2  -3   -0.49    0.73
 -12   2   3   -0.72    0.81
  11  -2  -3   -0.13    0.60
 -11   2   3   -1.46    0.66
 -11   2   3   -0.23    0.45
  10  -2  -3    0.78    0.30
  10  -2  -3    0.12    0.54
 -10   2   3    0.52    0.41
 -10   2   3    0.14    0.78
   9  -2  -3    0.55    0.26
   9  -2  -3    0.75    0.27
   9  -2  -3    0.03    0.45
  -9   2   3   -0.07    0.37
  -9   2   3   -0.30    0.60
   8  -2  -3    7.82    0.45
   8  -2  -3    5.31    0.73
   8  -2  -3    6.05    0.47
  -8   2   3    6.01    0.83
  -8   2   3    6.71    0.67
   7  -2  -3    0.94    0.39
   7  -2  -3    1.38    0.19
   7  -2  -3    0.50    0.24
  -7   2   3    1.15    0.36
  -7   2   3    0.84    0.28
  -7   2   3    0.84    0.53
   6  -2  -3    1.72    0.19
   6  -2  -3    1.32    0.35
  -6   2   3    1.06    0.27
  -6   2   3    1.29    0.32
  -6   2   3    1.94    0.49
   5  -2  -3   45.11    1.94
   5  -2  -3   47.62    2.04
   5  -2  -3   43.56    1.95
  -5   2   3   45.70    1.96
  -5   2   3   46.65    1.94
  -5   2   3   47.95    1.96
  -5   2   3   44.46    2.01
  -5   2   3   47.96    1.89
   4  -2  -3    2.18    0.28
   4  -2  -3    2.23    0.33
   4  -2  -3    2.52    0.37
   4  -2  -3    2.98    0.35
  -4   2   3    2.88    0.27
  -4   2   3    2.84    0.40
  -4   2   3    2.57    0.37
  -4   2   3    2.46    0.31
   3  -2  -3  181.26    6.94
   3  -2  -3  170.27    6.89
   3  -2  -3  175.61    6.92
   3  -2  -3  170.02    6.90
  -3   2   3  176.04    6.89
  -3   2   3  167.30    6.88
  -3   2   3  160.31    6.91
  -3   2   3  164.21    6.90
   2  -2  -3   79.87    3.15
   2  -2  -3   78.65    3.13
   2  -2  -3   76.01    3.16
  -2   2   3   77.72    3.13
  -2   2   3   71.28    3.12
  -2   2   3   73.60    3.13
  -2   2   3   76.72    3.12
   1  -2  -3   48.09    2.08
   1  -2  -3   51.16    2.06
   1  -2  -3   49.59    2.05
  -1   2   3   48.25    2.03
  -1   2   3   46.11    2.05
  -1   2   3   47.16    2.03
  -1   2   3   52.42    2.08
   0  -2  -3  242.78    9.18
   0  -2  -3  210.45    9.18
   0   2   3  237.38    9.17
   0   2   3  221.01    9.13
   0   2   3  212.74    9.16
   0   2   3  220.68    9.17
   0   2   3  244.54    9.19
  -1  -2  -3   12.95    0.70
  -1  -2  -3   11.64    0.74
  -1  -2  -3   11.76    0.56
  -1  -2  -3   13.30    0.73
   1   2   3   12.62    0.70
   1   2   3   12.16    0.54
   1   2   3   14.05    0.76
   1   2   3   12.45    0.73
  -2  -2  -3    3.16    0.47
  -2  -2  -3    3.15    0.42
  -2  -2  -3    2.68    0.40
   2   2   3    2.84    0.41
   2   2   3    3.86    0.58
   2   2   3    3.30    0.53
  -3  -2  -3    3.65    0.60
  -3  -2  -3    3.54    0.47
   3   2   3    4.77    0.64
   3   2   3    4.07    0.61
  -4  -2  -3    1.53    0.43
  -4  -2  -3    1.80    0.46
   4   2   3    2.09    0.41
   4   2   3    2.34    0.51
  -5  -2  -3   -0.76    0.45
  -5  -2  -3   -0.68    0.47
   5   2   3   -0.08    0.37
   5   2   3    0.49    0.57
  -6  -2  -3   -0.06    0.47
  -6  -2  -3    0.16    0.13
   6   2   3    0.07    0.62
   6   2   3   -0.21    0.36
  -7  -2  -3    2.61    0.54
  -7  -2  -3    2.84    0.30
   7   2   3    3.09    0.43
   7   2   3    2.65    0.79
  -8  -2  -3    6.31    0.93
   8   2   3    4.99    0.85
   8   2   3    6.03    0.72
  -9  -2  -3    3.01    0.66
   9   2   3    3.11    0.48
   9   2   3    3.06    0.91
 -10  -2  -3    0.19    0.68
  10   2   3    0.58    0.96
 -11  -2  -3   -1.07    0.73
  11   2   3   -0.93    0.99
  13  -3  -3   -0.06    0.77
 -13   3   3   -1.05    0.85
  12  -3  -3    0.05    0.73
 -12   3   3   -0.21    0.55
 -12   3   3   -0.53    0.85
  11  -3  -3    0.25    0.65
 -11   3   3   -0.01    0.49
 -11   3   3   -0.77    0.70
 -10   3   3   -0.14    0.45
 -10   3   3    0.08    0.68
   9  -3  -3    0.25    0.49
  -9   3   3    0.13    0.63
  -9   3   3   -0.05    0.41
   8  -3  -3    2.94    0.49
  -8   3   3    2.87    0.62
  -8   3   3    3.19    0.45
   7  -3  -3   13.95    0.64
   7  -3  -3   11.29    0.54
   7  -3  -3   10.74    0.83
  -7   3   3   11.32    0.81
  -7   3   3   11.65    1.02
   6  -3  -3    2.00    0.40
  -6   3   3    2.38    0.39
  -6   3   3    2.81    0.50
   5  -3  -3   30.70    1.24
   5  -3  -3   24.58    1.24
  -5   3   3   27.35    1.23
  -5   3   3   27.45    1.14
  -5   3   3   26.43    1.27
  -5   3   3   26.07    1.36
   4  -3  -3   15.30    0.78
   4  -3  -3   16.00    0.91
   4  -3  -3   17.19    0.82
   4  -3  -3   14.54    0.82
  -4   3   3   15.91    0.82
  -4   3   3   15.54    0.90
  -4   3   3   15.15    0.84
  -4   3   3   15.13    0.72
   3  -3  -3   13.56    0.70
   3  -3  -3   14.04    0.80
   3  -3  -3   14.32    0.75
   3  -3  -3   12.97    0.74
  -3   3   3   13.80    0.72
  -3   3   3   12.83    0.73
  -3   3   3   14.32    0.70
  -3   3   3   12.94    0.77
   2  -3  -3  144.22    6.13
   2  -3  -3  153.98    6.12
   2  -3  -3  154.19    6.12
   2  -3  -3  148.58    6.12
  -2   3   3  156.59    6.12
  -2   3   3  153.54    6.11
  -2   3   3  143.31    6.12
   1  -3  -3   37.15    1.58
   1  -3  -3   34.87    1.59
   1  -3  -3   36.08    1.55
  -1   3   3   39.28    1.60
  -1   3   3   37.96    1.58
  -1   3   3   34.24    1.57
  -1   3   3   35.40    1.58
  -1   3   3   35.09    1.53
   0  -3  -3   10.66    0.62
   0  -3  -3    9.72    0.69
   0  -3  -3   10.57    0.53
   0   3   3   11.52    0.69
   0   3   3   10.86    0.66
   0   3   3   10.41    0.67
   0   3   3   10.75    0.53
   0   3   3    9.75    0.68
  -1  -3  -3   13.86    0.77
  -1  -3  -3   12.34    0.82
  -1  -3  -3   13.40    0.78
  -1  -3  -3   14.27    0.59
   1   3   3   13.41    0.59
   1   3   3   13.46    0.80
   1   3   3   16.02    0.85
   1   3   3   13.40    0.84
  -2  -3  -3   -0.25    0.35
  -2  -3  -3   -0.16    0.37
   2   3   3   -0.03    0.37
   2   3   3    0.26    0.41
  -3  -3  -3    4.07    0.54
  -3  -3  -3    5.35    0.56
   3   3   3    5.50    0.69
   3   3   3    5.54    0.79
  -4  -3  -3   -0.53    0.48
  -4  -3  -3   -0.10    0.49
   4   3   3    0.35    0.41
   4   3   3    0.25    0.51
  -5  -3  -3    3.67    0.54
  -5  -3  -3    3.78    0.72
   5   3   3    4.05    0.67
   5   3   3    4.84    0.70
  -6  -3  -3    5.39    0.85
   6   3   3    5.53    0.77
   6   3   3    6.35    0.71
  -7  -3  -3   10.19    1.00
   7   3   3    9.70    0.79
   7   3   3    9.57    1.13
  -8  -3  -3    0.20    0.61
   8   3   3    0.20    0.90
   8   3   3    0.16    0.43
  -9  -3  -3   -0.51    0.64
   9   3   3   -0.67    0.95
 -10  -3  -3   -0.76    0.73
  10   3   3    0.24    1.05
  13  -4  -3   -0.24    0.81
 -13   4   3   -0.67    0.93
  12  -4  -3    0.36    0.75
 -12   4   3   -0.71    0.86
 -12   4   3   -0.37    0.60
  11  -4  -3    0.12    0.63
 -11   4   3   -0.13    0.54
 -11   4   3   -0.04    0.79
  10  -4  -3    0.27    0.57
 -10   4   3   -0.17    0.74
 -10   4   3   -0.15    0.48
   9  -4  -3    1.80    0.55
  -9   4   3    1.83    0.51
  -9   4   3    1.70    0.92
   8  -4  -3    4.86    0.80
  -8   4   3    4.81    0.75
  -8   4   3    6.15    1.00
   7  -4  -3    6.73    0.70
  -7   4   3    6.81    0.84
  -7   4   3    7.02    0.75
   6  -4  -3   18.42    1.07
  -6   4   3   19.42    0.81
  -6   4   3   19.32    1.07
  -6   4   3   19.34    1.19
   5  -4  -3    1.97    0.41
  -5   4   3    2.28    0.43
  -5   4   3    2.30    0.47
  -5   4   3    2.71    0.30
   4  -4  -3  100.86    3.95
   4  -4  -3  102.86    4.10
   4  -4  -3   95.05    3.99
  -4   4   3   95.68    3.93
  -4   4   3   92.54    4.00
  -4   4   3   91.83    3.99
   3  -4  -3    8.14    0.68
   3  -4  -3    6.06    0.65
   3  -4  -3    6.24    0.64
  -3   4   3    7.59    0.64
  -3   4   3    7.27    0.66
  -3   4   3    8.37    0.59
   2  -4  -3   14.05    0.84
   2  -4  -3   14.44    0.80
   2  -4  -3   13.21    0.77
  -2   4   3   14.22    0.77
  -2   4   3   15.52    0.81
  -2   4   3   13.59    0.83
   1  -4  -3   80.66    3.29
   1  -4  -3   75.65    3.29
   1  -4  -3   81.58    3.25
  -1   4   3   83.40    3.30
  -1   4   3   75.69    3.24
  -1   4   3   76.26    3.29
  -1   4   3   79.65    3.31
   0  -4  -3    6.48    0.62
   0  -4  -3    6.09    0.65
   0  -4  -3    7.04    0.43
   0   4   3    6.83    0.65
   0   4   3    7.43    0.45
   0   4   3    6.84    0.65
   0   4   3    7.92    0.68
  -1  -4  -3    7.26    0.74
  -1  -4  -3    7.72    0.65
   1   4   3    7.36    0.37
   1   4   3    7.13    0.70
   1   4   3    7.28    0.37
   1   4   3    7.36    0.68
  -2  -4  -3   11.31    0.90
  -2  -4  -3   12.23    0.82
   2   4   3   11.54    0.86
   2   4   3   11.49    0.93
  -3  -4  -3    0.53    0.48
   3   4   3    0.31    0.49
   3   4   3    0.29    0.43
  -4  -4  -3   -0.03    0.51
   4   4   3    0.73    0.44
   4   4   3    0.68    0.54
  -5  -4  -3    0.31    0.55
   5   4   3    1.01    0.64
   5   4   3    1.19    0.46
  -6  -4  -3    3.63    0.71
   6   4   3    3.33    0.49
  -7  -4  -3    0.04    0.63
   7   4   3   -0.37    0.79
   7   4   3   -0.26    0.43
  -8  -4  -3   -0.43    0.70
   8   4   3   -0.23    0.86
   8   4   3   -0.45    0.68
  -9  -4  -3   -0.24    0.72
   9   4   3    0.02    1.08
 -10  -4  -3   -0.34    0.84
  10   4   3    0.53    1.10
  12  -5  -3    0.78    0.79
 -12   5   3   -0.86    0.92
 -12   5   3    0.70    0.67
  11  -5  -3   -0.25    0.65
 -11   5   3    0.12    0.58
 -11   5   3    0.27    0.79
  10  -5  -3    0.37    0.65
 -10   5   3    0.81    0.92
 -10   5   3    0.24    0.76
   9  -5  -3    0.28    0.57
  -9   5   3    0.37    0.69
  -9   5   3    0.36    0.53
   8  -5  -3   12.98    1.04
  -8   5   3   13.54    1.02
  -8   5   3   13.19    1.10
   7  -5  -3    1.36    0.49
  -7   5   3    1.56    0.51
  -7   5   3    2.20    0.64
   6  -5  -3    7.79    0.84
   6  -5  -3   10.29    0.50
  -6   5   3    8.03    0.83
  -6   5   3    8.07    0.95
  -6   5   3    8.38    0.45
   5  -5  -3    5.27    0.76
  -5   5   3    6.18    0.84
  -5   5   3    5.57    0.43
  -5   5   3    5.19    0.67
   4  -5  -3    2.08    0.43
  -4   5   3    2.14    0.48
  -4   5   3    2.26    0.46
  -4   5   3    2.59    0.33
   3  -5  -3   78.15    3.30
   3  -5  -3   77.34    3.31
   3  -5  -3   81.76    3.29
  -3   5   3   75.54    3.29
  -3   5   3   80.97    3.27
  -3   5   3   78.05    3.31
   2  -5  -3   14.36    0.90
   2  -5  -3   13.02    0.76
   2  -5  -3   12.14    0.84
  -2   5   3   14.17    0.84
  -2   5   3   12.33    0.84
  -2   5   3   12.98    0.79
  -2   5   3   12.65    0.87
   1  -5  -3   44.27    1.79
   1  -5  -3   41.11    1.91
  -1   5   3   39.70    1.87
  -1   5   3   43.10    1.88
  -1   5   3   41.64    1.92
   0  -5  -3   15.19    1.00
   0   5   3   15.96    1.04
   0   5   3   15.51    0.96
   0   5   3   15.64    0.76
  -1  -5  -3    1.19    0.50
   1   5   3    1.43    0.17
   1   5   3    1.36    0.45
   1   5   3    1.24    0.51
   1   5   3    1.06    0.16
  -2  -5  -3    4.00    0.59
   2   5   3    3.65    0.61
   2   5   3    3.42    0.51
  -3  -5  -3    0.27    0.48
   3   5   3    0.63    0.58
   3   5   3    0.57    0.45
  -4  -5  -3    0.94    0.59
   4   5   3    0.92    0.48
   4   5   3    0.33    0.57
   5   5   3    2.54    0.51
  -6  -5  -3    0.04    0.61
   6   5   3    0.32    0.49
   6   5   3    0.65    0.78
  -7  -5  -3   -0.72    0.66
   7   5   3   -0.34    0.81
   7   5   3    0.01    0.48
  -8  -5  -3    0.63    0.76
   8   5   3    0.66    0.94
  -9  -5  -3   -0.47    0.80
   9   5   3   -2.11    1.14
  12  -6  -3   -0.21    0.82
 -12   6   3   -0.74    0.93
 -12   6   3   -0.45    0.69
  11  -6  -3    0.67    0.75
 -11   6   3   -0.08    0.86
 -11   6   3    0.44    0.64
  10  -6  -3    0.60    0.72
 -10   6   3    0.59    0.83
 -10   6   3   -0.03    0.61
   9  -6  -3    1.32    0.66
  -9   6   3    0.82    0.56
  -9   6   3    1.02    0.74
   8  -6  -3    4.25    0.67
  -8   6   3    3.34    0.74
  -8   6   3    3.19    0.75
   7  -6  -3    1.12    0.57
  -7   6   3    1.07    0.51
  -7   6   3    1.60    0.66
   6  -6  -3    0.55    0.19
   6  -6  -3    0.70    0.50
  -6   6   3    0.15    0.59
  -6   6   3    0.27    0.52
   5  -6  -3   18.35    1.06
  -5   6   3   18.05    1.12
  -5   6   3   17.66    1.15
  -5   6   3   17.11    0.87
   4  -6  -3    4.18    0.57
  -4   6   3    4.92    0.78
  -4   6   3    5.24    0.59
  -4   6   3    3.84    0.54
   3  -6  -3   22.28    1.13
   3  -6  -3   17.41    1.14
  -3   6   3   18.10    1.14
  -3   6   3   18.31    1.07
  -3   6   3   19.88    1.04
   2  -6  -3   32.17    1.41
   2  -6  -3   31.92    1.54
  -2   6   3   29.58    1.53
  -2   6   3   29.48    1.52
  -2   6   3   29.49    1.43
   1  -6  -3   12.16    0.93
  -1   6   3   11.22    0.71
  -1   6   3   10.45    0.90
  -1   6   3   10.93    0.97
   0  -6  -3    4.51    0.60
   0   6   3    4.00    0.44
   0   6   3    3.70    0.60
   0   6   3    2.70    0.40
   0   6   3    2.74    0.51
  -1  -6  -3    0.63    0.54
   1   6   3    0.54    0.17
   1   6   3    0.36    0.49
   1   6   3    0.05    0.52
   1   6   3    0.22    0.19
  -2  -6  -3    0.32    0.56
   2   6   3   -0.84    0.47
   2   6   3    0.30    0.56
  -3  -6  -3    8.79    1.03
   3   6   3    8.87    1.10
   3   6   3    8.31    0.90
  -4  -6  -3    2.25    0.70
   4   6   3    2.23    0.54
   4   6   3    1.59    0.67
  -5  -6  -3    1.15    0.72
   5   6   3    1.18    0.52
   5   6   3    0.35    0.74
  -6  -6  -3   -0.03    0.69
   6   6   3   -0.01    0.52
   6   6   3   -0.24    0.87
  -7  -6  -3    0.49    0.83
   7   6   3    0.71    1.00
  -8  -6  -3    0.60    0.89
   8   6   3    0.80    1.09
  11  -7  -3    0.73    0.76
 -11   7   3   -0.85    0.95
 -11   7   3   -0.24    0.71
  10  -7  -3    1.31    0.79
 -10   7   3    0.86    0.72
 -10   7   3    0.75    0.92
   9  -7  -3    0.24    0.71
  -9   7   3   -0.55    0.66
  -9   7   3    0.63    0.84
   8  -7  -3    0.46    0.68
  -8   7   3    0.66    0.60
  -8   7   3    0.32    0.73
   7  -7  -3    2.05    0.62
  -7   7   3    1.90    0.60
   6  -7  -3    0.93    0.86
   6  -7  -3    0.41    0.23
  -6   7   3   -0.04    1.03
  -6   7   3    0.35    0.65
   5  -7  -3    3.68    0.64
   5  -7  -3    3.48    0.61
  -5   7   3    3.01    0.61
  -5   7   3    3.69    0.61
   4  -7  -3    7.52    0.87
  -4   7   3    7.01    0.92
  -4   7   3    8.22    0.95
  -4   7   3    9.56    0.74
   3  -7  -3    0.86    0.53
  -3   7   3    1.07    0.51
  -3   7   3    0.79    0.51
  -3   7   3    1.10    0.47
  -2   7   3    3.00    0.59
  -2   7   3    4.22    0.68
  -2   7   3    3.02    0.56
  -1   7   3    3.93    0.43
  -1   7   3    4.75    0.59
  -1   7   3    5.31    0.63
  -1   7   3    4.68    0.65
   0  -7  -3    3.01    0.65
   0   7   3    1.29    0.29
   0   7   3    1.65    0.65
   0   7   3    1.12    0.52
  -1  -7  -3    8.73    1.07
   1   7   3    7.05    0.97
   1   7   3    6.41    0.40
   1   7   3    6.46    0.90
  -2  -7  -3    0.78    0.68
   2   7   3    0.27    0.55
  -3  -7  -3    0.44    0.68
   3   7   3    0.12    0.56
   3   7   3    0.08    0.74
  -4  -7  -3    0.03    0.69
   4   7   3    0.20    0.79
   4   7   3    0.30    0.56
  -5  -7  -3   -0.29    0.72
   5   7   3   -0.56    0.81
   5   7   3    0.46    0.57
  -6  -7  -3   -1.14    0.79
   6   7   3   -0.58    0.96
  -7  -7  -3    0.36    0.88
   7   7   3   -1.00    1.05
  11  -8  -3    1.37    0.88
 -11   8   3    0.03    1.30
 -11   8   3    1.06    0.74
  10  -8  -3    0.65    0.85
 -10   8   3   -0.90    0.94
 -10   8   3    0.67    0.78
   9  -8  -3    2.47    0.85
  -9   8   3    2.33    0.94
  -9   8   3    1.50    0.77
   8  -8  -3    0.70    0.76
  -8   8   3    0.13    0.65
  -8   8   3    0.44    0.77
   7  -8  -3    1.02    0.69
  -7   8   3    0.58    0.72
  -7   8   3    0.23    0.63
   6  -8  -3    4.75    0.77
  -6   8   3    3.92    0.73
   5  -8  -3    1.37    0.65
   5  -8  -3    0.44    0.38
  -5   8   3    0.55    0.63
  -5   8   3    0.64    0.62
   4  -8  -3    5.09    0.82
   4  -8  -3    3.63    0.66
  -4   8   3    4.29    0.64
  -4   8   3    4.04    0.69
  -3   8   3    7.28    0.88
  -3   8   3    6.29    1.03
  -2   8   3    0.12    0.66
  -2   8   3    0.37    0.61
  -2   8   3    0.28    0.44
  -1   8   3    5.81    0.96
  -1   8   3    4.38    0.67
  -1   8   3    5.22    0.66
   0   8   3    2.48    0.36
   0   8   3    2.30    0.70
   0   8   3    2.14    0.61
   1   8   3    1.14    0.63
   1   8   3    0.59    0.73
  -2  -8  -3    2.40    0.77
   2   8   3    0.31    0.75
   2   8   3    1.72    0.64
  -3  -8  -3   -0.08    0.73
   3   8   3    0.16    0.80
   3   8   3   -0.85    0.62
  -4  -8  -3   -0.62    0.84
   4   8   3    0.18    0.64
   4   8   3   -0.07    0.91
  -5  -8  -3   -0.20    0.87
   5   8   3   -0.39    0.89
  -6  -8  -3   -1.78    0.90
   6   8   3   -1.79    1.01
  10  -9  -3    1.19    1.15
 -10   9   3    0.33    0.88
 -10   9   3    1.31    1.05
   9  -9  -3    0.72    0.87
  -9   9   3   -0.31    0.83
  -9   9   3    0.64    0.91
   8  -9  -3    0.16    0.81
  -8   9   3    0.06    0.88
  -8   9   3    0.92    0.76
   7  -9  -3    1.53    0.83
  -7   9   3    0.57    0.71
  -7   9   3    0.96    0.82
   6  -9  -3    0.44    0.74
  -6   9   3    0.24    0.72
  -6   9   3    0.01    0.75
   5  -9  -3    1.06    0.76
  -5   9   3    0.91    0.74
   4  -9  -3    4.98    0.62
  -4   9   3    4.20    0.73
  -4   9   3    4.28    0.69
  -4   9   3    3.07    0.73
   3  -9  -3    1.10    0.59
  -3   9   3    0.31    0.68
  -3   9   3    0.53    0.68
  -3   9   3    0.02    0.55
  -2   9   3    3.18    0.73
  -2   9   3    2.74    0.53
  -2   9   3    2.62    0.71
   1  -9  -3    3.16    0.78
  -1   9   3    0.40    0.69
  -1   9   3    1.69    0.79
  -1   9   3    0.52    0.45
   0  -9  -3    1.13    0.81
   0   9   3   -0.46    0.71
   0   9   3   -0.58    0.66
  -1  -9  -3    2.19    0.88
   1   9   3    1.65    0.90
   1   9   3    1.99    0.72
  -2  -9  -3    0.13    0.84
   2   9   3    0.13    0.71
   2   9   3    0.16    0.89
  -3  -9  -3   -0.37    0.86
   3   9   3   -0.08    0.73
   3   9   3   -0.12    0.97
  -4  -9  -3    0.03    0.92
   4   9   3   -0.53    0.95
   4   9   3    1.15    1.15
  -5  -9  -3   -0.13    0.98
   5   9   3   -1.08    1.09
   8 -10  -3    0.99    0.95
  -8  10   3    0.32    0.91
  -8  10   3    0.42    0.90
   7 -10  -3    1.45    0.90
  -7  10   3   -0.06    0.86
  -7  10   3   -0.18    0.85
   6 -10  -3    2.30    0.89
  -6  10   3    0.70    0.78
  -6  10   3    1.42    0.83
  -5  10   3    0.36    0.75
  -5  10   3    0.22    0.79
  -5  10   3    0.65    0.75
  -4  10   3    0.51    0.79
  -4  10   3    0.16    0.81
   3 -10  -3    1.01    0.74
  -3  10   3    0.75    0.77
  -3  10   3    0.68    0.62
  -3  10   3    0.72    0.74
  -2  10   3   -0.19    0.78
  -2  10   3   -0.23    0.75
   1 -10  -3    3.16    0.91
  -1  10   3    1.15    0.82
  -1  10   3    0.29    0.78
   0 -10  -3    2.57    0.98
   0  10   3    0.69    0.76
   0  10   3    1.20    0.88
  -1 -10  -3    0.97    1.02
   1  10   3    0.50    0.78
   1  10   3    0.65    0.98
  -2 -10  -3    1.06    1.02
   2  10   3    0.35    1.03
   2  10   3    0.04    0.82
  -3 -10  -3   -0.64    1.03
   3  10   3    0.80    1.29
   3  10   3   -0.09    1.07
  -6  11   3   -0.32    1.23
  -6  11   3    0.07    1.10
  -6  11   3   -0.85    0.89
  -5  11   3   -0.40    0.83
  -5  11   3   -0.81    0.79
  -5  11   3   -0.31    0.93
  -4  11   3    0.20    0.87
  -4  11   3   -0.07    0.81
  -3  11   3    0.35    0.91
  -3  11   3    0.52    0.89
   2 -11  -3    0.55    1.25
  -2  11   3    0.46    0.85
  -2  11   3    0.26    0.84
   1 -11  -3   -0.08    1.03
  -1  11   3    0.35    0.84
  -1  11   3   -0.41    0.94
   0 -11  -3    1.02    1.12
   0  11   3    0.27    1.05
   0  11   3    0.29    0.87
   3  13  -4   -0.91    0.95
   3  13  -4   -0.01    0.95
   2  13  -4    0.20    0.93
   2  13  -4   -0.79    0.88
   1  13  -4    2.03    0.84
   1  13  -4    1.94    0.79
   1  13  -4    2.01    0.92
   1  13  -4    2.38    0.71
   0  13  -4    0.43    0.75
   0  13  -4   -0.04    0.88
   0  13  -4   -0.14    0.77
   0  13  -4    0.22    0.67
  -1  13  -4   -0.32    0.66
  -1  13  -4    0.10    0.78
  -1  13  -4    0.41    0.83
  -1  13  -4   -0.35    0.70
  -2  13  -4   -0.08    0.81
  -2  13  -4    0.01    0.67
  -2  13  -4   -0.26    0.81
  -2  13  -4    0.25    0.79
  -3  13  -4    0.00    0.82
  -3  13  -4   -0.57    0.84
  -3  13  -4   -0.52    0.74
  -4  13  -4    0.68    0.88
  -4  13  -4   -0.16    0.78
   4 -13   4    2.90    0.96
  -5  13  -4    0.28    0.94
  -5  13  -4    0.08    0.82
   5 -13   4    3.45    1.05
  -6  13  -4    0.37    0.95
   6 -13   4    4.25    1.15
   5  12  -4    2.01    1.07
   5  12  -4    1.24    0.92
   4  12  -4    0.45    0.84
   4  12  -4   -0.09    0.90
   3  12  -4   -0.46    0.79
   3  12  -4    0.12    0.81
   2  12  -4   -0.11    0.80
   2  12  -4    0.74    0.64
   2  12  -4    0.81    0.56
   2  12  -4   -0.15    0.77
   1  12  -4    1.22    0.57
   1  12  -4    0.85    0.70
   1  12  -4    1.24    0.68
   1  12  -4    1.21    0.77
   0  12  -4    1.04    0.81
   0  12  -4    1.26    0.66
   0  12  -4    0.93    0.68
   0  12  -4    2.03    0.74
  -1  12  -4   -0.60    0.70
  -1  12  -4    0.29    0.68
  -1  12  -4   -0.91    0.58
  -1  12  -4    0.20    0.61
  -2  12  -4   -0.06    0.69
  -2  12  -4    0.57    0.73
  -2  12  -4   -0.04    0.59
  -2  12  -4   -0.09    0.55
  -3  12  -4    0.18    0.75
  -3  12  -4   -0.75    0.52
  -3  12  -4    0.49    0.66
  -4  12  -4   -0.38    0.67
  -4  12  -4    0.91    0.83
   4 -12   4    2.17    0.82
  -5  12  -4   -1.41    0.74
  -5  12  -4    0.32    0.88
   5 -12   4    2.22    0.94
  -6  12  -4   -1.26    0.73
  -6  12  -4    0.62    0.94
  -7  12  -4    0.88    1.03
  -7  12  -4   -1.01    0.84
   7  11  -4   -1.35    0.99
   7  11  -4   -1.43    1.56
   6  11  -4   -0.38    0.89
   6  11  -4   -0.70    0.91
   5  11  -4   -0.12    0.77
   5  11  -4   -0.75    0.88
   4  11  -4    0.39    0.87
   4  11  -4    0.77    0.55
   3  11  -4    0.26    0.43
   3  11  -4   -0.43    0.76
   3  11  -4    0.30    0.67
   3  11  -4   -0.16    0.53
   2  11  -4    0.86    0.67
   2  11  -4    1.14    0.48
   2  11  -4    0.82    0.70
   2  11  -4    0.99    0.56
   1  11  -4   -0.60    0.55
   1  11  -4   -0.18    0.45
   1  11  -4    0.54    0.65
   0  11  -4    0.21    0.59
   0  11  -4    0.08    0.62
   0  11  -4    0.54    0.56
   0  11  -4    0.09    0.48
  -1  11  -4    2.67    0.55
  -1  11  -4    2.17    0.62
  -1  11  -4    3.09    0.69
  -1  11  -4    3.22    0.58
  -2  11  -4    1.32    0.50
   2 -11   4    2.61    0.64
  -3  11  -4    1.57    0.48
  -3  11  -4    0.32    0.62
  -3  11  -4    2.52    0.74
   3 -11   4    2.71    0.66
  -4  11  -4    0.04    0.75
  -4  11  -4    0.50    0.44
   4 -11   4    2.50    1.21
   4 -11   4    2.36    0.61
   5 -11   4   10.05    1.28
   5 -11   4    6.72    1.09
  -6  11  -4    0.31    0.86
   6 -11   4    1.29    0.74
  -7  11  -4    0.74    0.93
   7 -11   4    3.73    1.05
   7 -11   4    2.55    0.80
  -8  11  -4    0.32    0.89
   8 -11   4    3.44    1.12
   8 -11   4    1.51    0.80
  -9  11  -4   -0.75    1.69
   9 -11   4    0.22    1.17
   9 -11   4    1.55    1.03
   8  10  -4   -1.60    0.99
   8  10  -4   -0.05    0.97
   7  10  -4   -0.56    0.86
   7  10  -4   -0.23    0.91
   6  10  -4    1.33    0.88
   6  10  -4    0.73    0.88
   5  10  -4    0.18    0.66
   5  10  -4   -0.88    0.76
  -5 -10   4    0.20    0.45
   4  10  -4    0.98    0.79
   4  10  -4    2.08    0.41
   4  10  -4    0.89    0.63
  -4 -10   4    1.88    0.47
   3  10  -4    0.42    0.37
   3  10  -4    0.11    0.67
   3  10  -4    0.01    0.57
  -3 -10   4    0.47    0.45
   2  10  -4   -0.58    0.60
   2  10  -4   -0.03    0.55
   2  10  -4    0.19    0.38
  -2 -10   4    0.94    0.45
   1  10  -4    6.45    0.71
   1  10  -4    5.55    0.93
   1  10  -4    6.27    0.85
   1  10  -4    7.63    0.89
   0  10  -4    2.02    0.46
   0  10  -4    1.33    0.53
   0  10  -4    1.66    0.51
   0  10  -4    1.78    0.56
  -1  10  -4   -0.16    0.46
  -1  10  -4    0.16    0.50
  -1  10  -4    0.23    0.45
  -1  10  -4   -0.28    0.52
  -2  10  -4    0.51    0.43
  -2  10  -4    0.75    0.59
   2 -10   4    1.30    0.51
   2 -10   4    1.55    0.51
  -3  10  -4    2.14    0.65
  -3  10  -4    2.61    0.44
   3 -10   4    3.49    0.57
  -4  10  -4    1.51    0.40
  -4  10  -4    1.60    0.75
   4 -10   4    2.46    0.72
   4 -10   4    2.75    0.63
  -5  10  -4    0.25    0.38
  -5  10  -4    0.17    0.73
   5 -10   4    1.00    0.57
   5 -10   4    2.50    0.72
  -6  10  -4    1.24    0.79
   6 -10   4    1.50    0.63
  -7  10  -4    0.00    0.77
   7 -10   4    0.96    0.65
   7 -10   4    2.76    1.00
  -8  10  -4   -0.53    0.86
   8 -10   4    0.07    0.73
   8 -10   4    2.20    1.12
  -9  10  -4    0.62    0.96
   9 -10   4    0.19    0.78
   9 -10   4   -0.58    1.15
   9   9  -4   -0.07    0.92
   9   9  -4   -0.53    0.98
   8   9  -4   -0.37    0.85
   8   9  -4   -0.70    0.87
   7   9  -4    0.44    0.89
   7   9  -4   -0.08    0.89
   6   9  -4    0.95    0.76
   6   9  -4    2.17    0.69
  -6  -9   4    2.32    0.48
   5   9  -4    0.66    0.57
   5   9  -4   -0.09    0.70
  -5  -9   4    1.11    0.42
   4   9  -4   -0.99    1.11
   4   9  -4    0.33    0.30
   4   9  -4   -0.25    0.53
  -4  -9   4    0.87    0.42
   3   9  -4   12.10    1.01
   3   9  -4   12.74    0.74
   3   9  -4   11.58    1.05
   3   9  -4   11.74    0.74
  -3  -9   4   13.33    0.88
   2   9  -4    0.08    0.33
   2   9  -4   -0.06    0.50
   2   9  -4    0.04    0.47
  -2  -9   4    0.66    0.40
   1   9  -4    2.83    0.49
   1   9  -4    2.49    0.52
   1   9  -4    2.54    0.40
  -1  -9   4    4.48    0.72
   0   9  -4   13.31    0.96
   0   9  -4   12.97    0.94
   0  -9   4   14.07    0.93
   0  -9   4   15.56    0.91
  -1   9  -4   13.70    0.89
  -1   9  -4   13.54    0.99
   1  -9   4   13.53    0.95
   1  -9   4   13.98    0.88
  -2   9  -4   12.07    0.81
  -2   9  -4   11.73    0.92
   2  -9   4   12.59    0.90
   2  -9   4   13.02    0.89
  -3   9  -4   -0.06    0.32
  -3   9  -4    0.25    0.55
  -3   9  -4    0.09    0.34
   3  -9   4    0.30    0.47
   3  -9   4    0.99    0.46
  -4   9  -4    2.68    0.40
  -4   9  -4    2.06    0.34
  -4   9  -4    2.15    0.64
   4  -9   4    3.06    0.54
  -5   9  -4    6.82    0.69
  -5   9  -4    7.03    0.92
   5  -9   4    7.53    0.87
  -6   9  -4    3.47    0.75
   6  -9   4    3.17    0.59
  -7   9  -4    0.65    0.73
   7  -9   4    2.34    0.88
   7  -9   4    1.08    0.63
  -8   9  -4    0.21    0.76
   8  -9   4    0.84    0.69
   8  -9   4    0.24    0.86
  -9   9  -4   -0.16    0.79
   9  -9   4    0.29    0.70
   9  -9   4   -0.22    1.00
 -10   9  -4   -0.05    0.85
  10  -9   4    0.32    0.81
  10  -9   4   -1.51    1.06
  10   8  -4    0.47    0.94
  10   8  -4    0.48    0.96
   9   8  -4   -0.34    0.87
   9   8  -4   -0.14    0.94
   8   8  -4    0.89    0.94
   8   8  -4    0.68    0.89
   7   8  -4    0.87    0.78
   7   8  -4    1.81    0.68
  -7  -8   4    3.00    0.56
   6   8  -4    0.41    0.58
   6   8  -4   -0.86    0.72
  -6  -8   4    0.83    0.48
   5   8  -4    6.88    1.04
   5   8  -4    7.03    0.42
   5   8  -4    7.89    0.92
   4   8  -4    4.19    0.43
   4   8  -4    5.11    0.79
   4   8  -4    5.11    0.67
   4   8  -4    5.41    0.69
   3   8  -4    4.28    0.47
   3   8  -4    4.17    0.57
   3   8  -4    5.66    0.48
   3   8  -4    4.77    0.74
  -3  -8   4    5.93    0.68
   2   8  -4   10.15    0.65
   2   8  -4    9.64    0.68
   2   8  -4   10.22    0.86
   2   8  -4   10.05    0.64
   2   8  -4   10.15    0.81
  -2  -8   4   10.89    0.76
   1   8  -4    3.70    0.50
   1   8  -4    4.09    0.64
   1   8  -4    3.54    0.53
   1   8  -4    4.05    0.52
  -1  -8   4    5.17    0.55
  -1  -8   4    5.07    0.67
   0   8  -4    0.29    0.30
   0   8  -4    0.67    0.41
   0   8  -4    0.53    0.37
   0  -8   4    1.03    0.41
   0  -8   4    0.66    0.33
  -1   8  -4    8.41    0.71
  -1   8  -4    9.45    0.65
   1  -8   4    8.75    0.69
   1  -8   4    8.61    0.79
   1  -8   4    9.42    0.70
  -2   8  -4    0.66    0.35
  -2   8  -4    0.50    0.49
  -2   8  -4    0.75    0.31
   2  -8   4    1.31    0.37
   2  -8   4    1.48    0.38
  -3   8  -4    7.69    0.63
  -3   8  -4    7.49    0.88
  -3   8  -4    6.92    0.58
   3  -8   4    8.81    0.75
   3  -8   4    9.60    0.78
  -4   8  -4    6.15    0.57
  -4   8  -4    4.68    0.49
  -4   8  -4    5.00    0.78
   4  -8   4    6.68    0.74
  -5   8  -4   14.25    1.10
  -5   8  -4   12.72    0.72
   5  -8   4   12.89    0.97
   5  -8   4   16.25    1.10
  -6   8  -4    1.17    0.28
  -6   8  -4   -0.04    0.63
   6  -8   4    1.27    0.50
   6  -8   4    1.10    0.65
  -7   8  -4    1.05    0.64
   7  -8   4    1.22    0.53
   7  -8   4    2.66    0.74
  -8   8  -4   -0.80    0.71
   8  -8   4    0.31    0.60
   8  -8   4    0.52    0.76
  -9   8  -4    2.35    0.81
   9  -8   4    2.57    0.91
   9  -8   4    2.70    0.66
 -10   8  -4    0.16    0.80
  10  -8   4    1.33    0.71
  10  -8   4   -0.93    0.94
 -11   8  -4   -0.62    0.88
  11  -8   4    0.49    0.78
  11  -8   4   -1.56    1.05
  11   7  -4   -0.42    0.93
  11   7  -4   -0.42    0.94
  10   7  -4    0.15    0.86
  10   7  -4   -0.46    0.82
   9   7  -4    0.06    0.84
   9   7  -4    0.69    1.19
   8   7  -4   -0.30    0.67
   8   7  -4    0.01    0.77
   7   7  -4    5.88    0.85
   7   7  -4    7.54    1.04
   6   7  -4   -0.19    0.63
   6   7  -4    0.73    0.51
   5   7  -4    5.58    0.88
   5   7  -4    7.12    0.79
   4   7  -4    6.99    0.83
   4   7  -4    8.23    0.74
   4   7  -4    7.57    0.46
   4   7  -4    8.70    0.48
   4   7  -4    7.46    0.66
  -4  -7   4   10.07    0.77
   3   7  -4    1.20    0.32
   3   7  -4    1.69    0.25
   3   7  -4    1.64    0.47
   3   7  -4    1.81    0.39
   3   7  -4    1.49    0.24
  -3  -7   4    2.12    0.40
   2   7  -4   40.81    1.82
   2   7  -4   33.23    1.55
   2   7  -4   35.46    1.50
   2   7  -4   34.65    1.51
   2   7  -4   33.70    1.61
  -2  -7   4   33.48    1.57
  -2  -7   4   33.39    1.49
   1   7  -4    0.56    0.31
   1   7  -4   -0.45    0.37
   1   7  -4   -0.26    0.27
   1   7  -4   -0.30    0.25
  -1  -7   4    0.22    0.26
  -1  -7   4    0.35    0.35
   0   7  -4   -0.43    0.31
   0   7  -4   -0.17    0.24
   0   7  -4    0.07    0.30
   0   7  -4   -0.06    0.33
   0  -7   4    0.25    0.28
   0  -7   4    0.25    0.36
   0  -7   4    0.27    0.28
  -1   7  -4   13.02    0.77
  -1   7  -4   13.02    0.71
  -1   7  -4   12.68    0.72
   1  -7   4   12.74    0.84
   1  -7   4   13.39    0.74
   1  -7   4   13.72    0.77
  -2   7  -4   37.32    1.59
  -2   7  -4   35.34    1.67
  -2   7  -4   36.93    1.57
  -2   7  -4   36.95    1.60
   2  -7   4   36.70    1.62
   2  -7   4   35.22    1.62
  -3   7  -4    5.53    0.54
  -3   7  -4    4.35    0.56
  -3   7  -4    5.91    0.62
  -3   7  -4    3.72    0.44
   3  -7   4    6.04    0.66
   3  -7   4    5.08    0.58
  -4   7  -4    0.92    0.26
  -4   7  -4    1.64    0.37
  -4   7  -4    1.26    0.48
   4  -7   4    2.21    0.46
   4  -7   4    1.87    0.45
  -5   7  -4   22.20    1.29
  -5   7  -4   20.25    1.06
  -5   7  -4   21.65    0.98
   5  -7   4   20.27    1.13
   5  -7   4   25.55    1.29
  -6   7  -4    0.08    0.57
  -6   7  -4    0.74    0.28
   6  -7   4    0.68    0.53
   6  -7   4    0.49    0.45
  -7   7  -4    0.08    0.62
  -7   7  -4    0.29    0.25
   7  -7   4    0.16    0.59
   7  -7   4    0.43    0.52
  -8   7  -4    3.60    0.73
   8  -7   4    3.64    0.59
   8  -7   4    3.34    0.64
  -9   7  -4   -0.15    0.66
   9  -7   4    0.39    0.58
 -10   7  -4   -0.20    0.74
  10  -7   4   -1.23    0.73
  10  -7   4    0.71    0.68
 -11   7  -4    0.08    0.79
  11  -7   4   -1.69    0.83
  11  -7   4   -0.17    0.70
  11   6  -4    0.06    0.83
  11   6  -4   -0.39    0.82
  10   6  -4    0.05    0.78
  10   6  -4    0.21    0.72
   6   6  -4   12.30    0.92
   6   6  -4   11.00    1.00
   5   6  -4    1.15    0.44
   5   6  -4    1.26    0.41
   5   6  -4    0.37    0.48
  -5  -6   4    1.86    0.41
  -5  -6   4    1.17    0.38
   4   6  -4   30.12    1.39
   4   6  -4   28.47    1.41
   4   6  -4   28.40    1.25
   4   6  -4   30.00    1.24
   4   6  -4   30.17    1.38
  -4  -6   4   30.75    1.34
  -4  -6   4   30.94    1.41
   3   6  -4    6.69    0.70
   3   6  -4    8.23    0.66
   3   6  -4    7.77    0.45
   3   6  -4    7.36    0.52
  -3  -6   4    8.14    0.65
  -3  -6   4    6.99    0.43
   2   6  -4    2.07    0.30
   2   6  -4    2.36    0.35
   2   6  -4    2.36    0.41
   2   6  -4    1.73    0.35
   2   6  -4    1.92    0.25
  -2  -6   4    2.48    0.34
  -2  -6   4    2.77    0.38
   1   6  -4   51.50    2.17
   1   6  -4   50.24    2.13
   1   6  -4   52.41    2.11
   1   6  -4   53.13    2.12
   1   6  -4   50.49    2.15
   1   6  -4   52.50    2.18
  -1  -6   4   49.65    2.12
  -1  -6   4   48.13    2.17
   0   6  -4   13.58    0.69
   0   6  -4   12.68    0.69
   0   6  -4   13.13    0.77
   0   6  -4   13.32    0.65
   0   6  -4   12.93    0.73
   0  -6   4   13.55    0.69
   0  -6   4   12.24    0.72
   0  -6   4   12.78    0.66
  -1   6  -4    0.86    0.29
  -1   6  -4    0.79    0.23
  -1   6  -4    0.65    0.25
  -1   6  -4    0.36    0.31
  -1   6  -4    0.95    0.29
   1  -6   4    1.00    0.27
   1  -6   4    0.53    0.31
  -2   6  -4    9.71    0.61
  -2   6  -4    9.62    0.60
   2  -6   4    9.20    0.65
   2  -6   4   10.03    0.64
   2  -6   4    9.71    0.72
  -3   6  -4   30.38    1.37
  -3   6  -4   32.23    1.39
  -3   6  -4   29.41    1.47
   3  -6   4   31.10    1.33
   3  -6   4   32.85    1.42
   3  -6   4   29.69    1.42
  -4   6  -4    0.45    0.44
   4  -6   4    0.34    0.36
   4  -6   4    0.68    0.22
   4  -6   4    1.02    0.38
  -5   6  -4    0.21    0.48
  -5   6  -4    0.28    0.37
   5  -6   4    0.33    0.40
   5  -6   4    0.16    0.22
   5  -6   4    0.01    0.39
  -6   6  -4    5.84    0.53
  -6   6  -4    6.09    0.84
   6  -6   4    5.77    0.74
   6  -6   4    5.71    0.45
   6  -6   4    5.39    0.78
  -7   6  -4    0.91    0.29
  -7   6  -4    0.84    0.56
   7  -6   4    0.22    0.50
   7  -6   4    0.33    0.49
   7  -6   4    0.51    0.35
  -8   6  -4    3.46    0.45
  -8   6  -4    2.26    0.60
   8  -6   4    3.24    0.66
   8  -6   4    1.80    0.80
  -9   6  -4    0.09    0.59
   9  -6   4   -1.33    0.64
   9  -6   4    0.19    0.55
 -10   6  -4   -0.55    0.63
  10  -6   4   -0.70    0.77
  10  -6   4    0.50    0.64
 -11   6  -4    0.29    0.73
  11  -6   4   -0.81    0.84
  11  -6   4    0.89    0.71
  12   5  -4    0.03    0.82
  12   5  -4   -0.50    0.88
  11   5  -4    0.46    0.78
  11   5  -4    0.69    0.75
  10   5  -4    0.36    0.69
   9   5  -4    1.30    0.58
  -9  -5   4    2.10    0.68
   8   5  -4    2.81    0.60
   8   5  -4    3.02    0.55
   7   5  -4    0.10    0.54
   7   5  -4    0.48    0.45
  -7  -5   4    0.54    0.48
   6   5  -4   39.81    1.87
   6   5  -4   38.69    1.82
  -6  -5   4   40.48    1.86
  -6  -5   4   42.09    1.88
   5   5  -4   22.68    1.12
   5   5  -4   21.99    1.18
   5   5  -4   21.89    1.11
  -5  -5   4   22.39    1.18
  -5  -5   4   22.66    1.13
   4   5  -4    4.77    0.65
   4   5  -4    6.23    0.34
   4   5  -4    5.36    0.30
   4   5  -4    5.78    0.60
   4   5  -4    6.21    0.62
  -4  -5   4    6.33    0.51
  -4  -5   4    6.49    0.62
   3   5  -4  124.12    4.83
   3   5  -4  125.23    4.90
   3   5  -4  117.15    4.83
   3   5  -4  119.43    4.87
   3   5  -4  119.68    4.81
   3   5  -4  114.76    4.87
  -3  -5   4  118.48    4.80
  -3  -5   4  114.20    4.87
   2   5  -4   15.62    0.81
   2   5  -4   16.85    0.84
   2   5  -4   16.73    0.84
   2   5  -4   16.53    0.74
   2   5  -4   15.90    0.72
   2   5  -4   16.14    0.75
  -2  -5   4   16.08    0.73
  -2  -5   4   15.41    0.84
   1   5  -4    3.17    0.28
   1   5  -4    3.81    0.34
   1   5  -4    4.14    0.46
   1   5  -4    3.23    0.44
   1   5  -4    3.65    0.32
   1   5  -4    3.29    0.40
  -1  -5   4    3.85    0.36
  -1  -5   4    3.41    0.42
   0   5  -4   38.45    1.60
   0   5  -4   37.43    1.58
   0   5  -4   37.52    1.60
   0   5  -4   37.89    1.54
   0  -5   4   36.59    1.58
   0  -5   4   35.92    1.61
   0  -5   4   38.05    1.58
   0  -5   4   36.13    1.55
  -1   5  -4   41.62    1.73
  -1   5  -4   41.84    1.75
  -1   5  -4   40.41    1.73
  -1   5  -4   42.46    1.70
   1  -5   4   39.51    1.76
   1  -5   4   38.82    1.73
   1  -5   4   40.58    1.71
   1  -5   4   41.88    1.72
  -2   5  -4    3.28    0.36
  -2   5  -4    3.24    0.40
  -2   5  -4    2.74    0.42
   2  -5   4    3.09    0.42
   2  -5   4    3.14    0.36
   2  -5   4    3.16    0.51
  -3   5  -4   10.50    0.72
  -3   5  -4   12.50    0.67
   3  -5   4   11.92    0.68
   3  -5   4   11.31    0.72
   3  -5   4   11.52    0.61
  -4   5  -4   48.95    2.10
  -4   5  -4   49.46    2.15
   4  -5   4   51.31    2.05
   4  -5   4   45.94    2.09
   4  -5   4   49.28    2.11
  -5   5  -4    1.25    0.42
   5  -5   4    0.90    0.38
   5  -5   4    0.69    0.28
   5  -5   4    0.67    0.41
  -6   5  -4    1.21    0.49
  -6   5  -4    0.76    0.35
   6  -5   4    0.53    0.46
   6  -5   4    1.13    0.39
   6  -5   4    0.55    0.33
  -7   5  -4    6.51    0.84
  -7   5  -4    6.65    0.56
   7  -5   4    5.88    0.70
   7  -5   4    6.90    0.75
   7  -5   4    5.14    0.64
  -8   5  -4    0.14    0.50
  -8   5  -4    0.27    0.32
   8  -5   4    0.13    0.47
   8  -5   4   -0.78    0.61
  -9   5  -4    2.17    0.45
   9  -5   4    1.37    0.89
   9  -5   4    1.37    0.71
 -10   5  -4    1.43    0.64
  10  -5   4    0.65    0.80
  10  -5   4    2.03    0.63
 -11   5  -4   -0.26    0.67
  11  -5   4   -1.22    0.83
  11  -5   4   -0.66    0.67
  12  -5   4   -1.95    1.33
  12   4  -4   -0.81    0.78
  12   4  -4    0.95    0.75
 -12  -4   4    0.52    1.29
  11   4  -4    0.75    0.69
  11   4  -4   -0.12    0.70
  10   4  -4    1.11    0.63
  10   4  -4    1.21    0.80
   9   4  -4    0.66    0.55
   9   4  -4    0.38    0.53
   8   4  -4    3.45    0.54
   8   4  -4    3.71    0.52
  -8  -4   4    2.67    0.73
   7   4  -4   49.52    2.22
   7   4  -4   51.71    2.26
  -7  -4   4   51.72    2.41
   6   4  -4    1.73    0.45
   6   4  -4    2.03    0.38
  -6  -4   4    1.42    0.53
  -6  -4   4    1.32    0.45
   5   4  -4   31.94    1.43
   5   4  -4   31.02    1.44
   5   4  -4   29.35    1.43
  -5  -4   4   30.43    1.52
  -5  -4   4   31.60    1.42
   4   4  -4    0.13    0.31
   4   4  -4   -0.20    0.28
   4   4  -4    0.48    0.33
   4   4  -4    0.66    0.24
  -4  -4   4   -0.03    0.25
  -4  -4   4    0.04    0.33
   3   4  -4    2.84    0.47
   3   4  -4    3.04    0.34
   3   4  -4    3.39    0.31
   3   4  -4    3.14    0.48
  -3  -4   4    3.34    0.26
  -3  -4   4    2.78    0.48
  -3  -4   4    2.95    0.29
   2   4  -4   86.86    3.59
   2   4  -4   86.82    3.55
   2   4  -4   90.28    3.60
   2   4  -4   91.98    3.58
   2   4  -4   87.89    3.53
   2   4  -4   86.12    3.53
  -2  -4   4   84.34    3.59
  -2  -4   4   85.62    3.54
   1   4  -4   35.65    1.48
   1   4  -4   35.47    1.44
   1   4  -4   36.13    1.52
   1   4  -4   35.04    1.45
   1   4  -4   34.91    1.51
  -1  -4   4   35.94    1.50
  -1  -4   4   35.11    1.48
  -1  -4   4   34.53    1.53
   0   4  -4   19.34    0.80
   0   4  -4   19.71    0.85
   0   4  -4   18.12    0.91
   0   4  -4   19.16    0.89
   0  -4   4   19.09    0.85
   0  -4   4   17.80    0.87
   0  -4   4   17.90    0.79
  -1   4  -4   16.46    0.72
  -1   4  -4   15.69    0.79
  -1   4  -4   15.92    0.77
   1  -4   4   16.43    0.72
   1  -4   4   15.34    0.77
   1  -4   4   15.89    0.75
   1  -4   4   14.95    0.77
  -2   4  -4   75.34    2.98
  -2   4  -4   75.96    2.99
  -2   4  -4   65.80    3.02
   2  -4   4   73.54    2.98
   2  -4   4   72.49    3.01
   2  -4   4   68.89    2.99
   2  -4   4   76.55    2.99
  -3   4  -4    0.52    0.31
  -3   4  -4    0.01    0.29
  -3   4  -4    0.26    0.25
  -3   4  -4    0.05    0.32
   3  -4   4    0.04    0.28
   3  -4   4    0.00    0.26
   3  -4   4    0.15    0.27
  -4   4  -4   17.53    0.85
  -4   4  -4   18.28    0.87
  -4   4  -4   14.66    0.94
  -4   4  -4   15.89    0.89
   4  -4   4   15.28    0.90
   4  -4   4   16.27    0.88
   4  -4   4   16.97    0.87
  -5   4  -4    7.49    0.67
  -5   4  -4    6.92    0.62
   5  -4   4    6.09    0.73
   5  -4   4    7.61    0.65
  -6   4  -4   16.31    0.96
  -6   4  -4   15.33    0.85
   6  -4   4   15.42    0.91
   6  -4   4   13.21    1.05
  -7   4  -4    1.96    0.46
  -7   4  -4    2.64    0.37
   7  -4   4    1.44    0.58
   7  -4   4    2.47    0.45
  -8   4  -4    0.02    0.48
  -8   4  -4    0.33    0.36
   8  -4   4   -0.59    0.62
   8  -4   4    0.73    0.47
  -9   4  -4    0.31    0.52
  -9   4  -4    0.54    0.39
   9  -4   4    0.73    0.51
   9  -4   4   -0.59    0.69
 -10   4  -4    0.08    0.67
  10  -4   4    0.00    0.58
  10  -4   4   -0.54    0.70
 -11   4  -4    0.83    0.66
  11  -4   4    1.54    0.67
  11  -4   4   -0.72    0.84
 -12   4  -4   -0.02    0.76
  12  -4   4    0.10    1.00
  12  -4   4   -0.01    0.74
  13   3  -4    0.72    0.88
  12   3  -4   -0.19    0.73
  12   3  -4    0.02    0.68
 -12  -3   4    0.87    0.92
  11   3  -4    1.03    0.67
  11   3  -4    1.76    0.67
 -11  -3   4    0.26    0.97
  10   3  -4    1.99    0.57
  10   3  -4    1.69    0.59
   9   3  -4    1.39    0.52
   9   3  -4    1.43    0.51
   8   3  -4    4.60    0.72
   8   3  -4    4.23    0.53
   7   3  -4    7.53    0.68
   7   3  -4    7.11    0.70
  -7  -3   4    6.42    0.76
  -7  -3   4    5.86    0.65
   6   3  -4   -0.17    0.36
   6   3  -4    0.34    0.32
  -6  -3   4   -0.09    0.49
   5   3  -4    6.63    0.52
   5   3  -4    8.47    0.63
   5   3  -4    7.39    0.59
   5   3  -4    8.06    0.53
  -5  -3   4    6.72    0.61
  -5  -3   4    5.86    0.74
   4   3  -4   57.68    2.41
   4   3  -4   57.57    2.35
   4   3  -4   59.50    2.45
   4   3  -4   56.51    2.38
   4   3  -4   57.00    2.42
  -4  -3   4   58.28    2.35
  -4  -3   4   56.29    2.48
  -4  -3   4   60.73    2.40
   3   3  -4   12.74    0.70
   3   3  -4   11.39    0.63
   3   3  -4   11.98    0.55
   3   3  -4   11.79    0.65
  -3  -3   4   13.08    0.56
  -3  -3   4   11.43    0.73
  -3  -3   4   12.03    0.57
   2   3  -4   41.51    1.69
   2   3  -4   42.50    1.74
   2   3  -4   39.82    1.72
  -2  -3   4   42.42    1.72
  -2  -3   4   37.84    1.75
  -2  -3   4   40.24    1.68
   1   3  -4   15.57    0.70
   1   3  -4   14.94    0.74
  -1  -3   4   14.75    0.70
  -1  -3   4   15.35    0.72
   0   3  -4  163.57    6.47
   0   3  -4  165.59    6.49
   0   3  -4  160.71    6.44
   0   3  -4  156.33    6.49
   0  -3   4  162.35    6.48
   0  -3   4  156.83    6.48
   0  -3   4  157.13    6.44
  -1   3  -4   31.37    1.34
  -1   3  -4   32.28    1.34
  -1   3  -4   29.36    1.34
  -1   3  -4   32.08    1.30
   1  -3   4   33.07    1.35
   1  -3   4   30.69    1.30
   1  -3   4   28.84    1.34
  -2   3  -4  103.01    4.29
  -2   3  -4  106.09    4.29
  -2   3  -4  106.91    4.28
   2  -3   4  113.21    4.31
   2  -3   4  105.40    4.30
   2  -3   4  102.06    4.29
   2  -3   4  101.16    4.30
  -3   3  -4   21.79    1.00
  -3   3  -4   21.86    0.98
  -3   3  -4   23.39    1.02
  -3   3  -4   19.15    1.09
   3  -3   4   21.56    1.01
   3  -3   4   23.25    1.04
   3  -3   4   19.90    1.02
   3  -3   4   19.83    0.99
  -4   3  -4   13.25    0.77
  -4   3  -4   14.34    0.83
  -4   3  -4   14.63    0.75
  -4   3  -4   15.48    0.80
  -4   3  -4   14.53    0.79
   4  -3   4   13.41    0.79
   4  -3   4   15.10    0.89
   4  -3   4   12.25    0.86
  -5   3  -4   48.73    2.01
  -5   3  -4   46.66    2.03
  -5   3  -4   47.69    2.03
   5  -3   4   45.87    2.08
   5  -3   4   46.20    2.03
  -6   3  -4   -0.23    0.35
  -6   3  -4   -0.04    0.37
   6  -3   4    0.07    0.36
   6  -3   4   -0.63    0.46
  -7   3  -4    2.66    0.41
  -7   3  -4    2.90    0.46
   7  -3   4    2.24    0.61
   7  -3   4    2.98    0.44
  -8   3  -4   12.90    0.84
  -8   3  -4   12.45    0.93
   8  -3   4   11.24    1.03
   8  -3   4   13.44    0.92
  -9   3  -4    3.08    0.48
  -9   3  -4    2.68    0.57
   9  -3   4    1.67    0.70
   9  -3   4    2.45    0.52
 -10   3  -4    1.19    0.61
 -10   3  -4    1.49    0.50
  10  -3   4    0.59    0.79
 -11   3  -4   -0.74    0.63
  11  -3   4   -0.06    0.64
  11  -3   4    0.23    0.87
  12  -3   4   -0.27    1.43
  13   2  -4   -0.17    0.80
 -13  -2   4    2.55    0.97
  12   2  -4    0.49    0.73
  12   2  -4    0.94    0.61
 -12  -2   4    1.06    0.84
  11   2  -4    1.74    0.67
  11   2  -4    1.99    0.56
  10   2  -4   -0.60    0.55
  10   2  -4    0.26    0.48
   9   2  -4    8.93    0.81
   9   2  -4    8.49    0.88
  -9  -2   4    6.90    0.86
   8   2  -4    3.81    0.46
   8   2  -4    3.08    0.46
  -8  -2   4    2.20    0.68
  -8  -2   4    3.15    0.35
   7   2  -4    2.65    0.41
   7   2  -4    2.18    0.39
  -7  -2   4    3.28    0.25
  -7  -2   4    1.29    0.61
  -7  -2   4    2.24    0.45
   6   2  -4   56.01    2.37
   6   2  -4   53.10    2.34
   6   2  -4   57.62    2.35
  -6  -2   4   56.70    2.33
  -6  -2   4   53.34    2.46
  -6  -2   4   59.03    2.39
   5   2  -4    0.63    0.35
   5   2  -4    0.04    0.25
   5   2  -4    0.37    0.28
   5   2  -4    0.36    0.22
  -5  -2   4   -0.29    0.43
  -5  -2   4    0.16    0.26
   4   2  -4   36.09    1.51
   4   2  -4   34.84    1.52
   4   2  -4   38.22    1.58
   4   2  -4   34.19    1.47
   4   2  -4   33.59    1.47
  -4  -2   4   36.04    1.52
  -4  -2   4   34.65    1.61
  -4  -2   4   36.48    1.50
   3   2  -4   41.58    1.72
   3   2  -4   38.19    1.61
   3   2  -4   41.46    1.64
   3   2  -4   35.82    1.70
  -3  -2   4   39.54    1.67
  -3  -2   4   40.67    1.63
  -3  -2   4   40.67    1.66
  -3  -2   4   37.70    1.71
   2   2  -4   40.19    1.91
   2   2  -4   46.35    1.87
   2   2  -4   47.49    1.91
   2   2  -4   44.64    1.81
  -2  -2   4   45.23    1.87
  -2  -2   4   44.39    1.88
  -2  -2   4   46.55    1.82
   1   2  -4   95.07    4.04
   1   2  -4  102.96    4.05
   1   2  -4   99.73    4.04
  -1  -2   4   99.87    4.06
  -1  -2   4   99.60    4.05
  -1  -2   4   97.26    3.99
  -1  -2   4  101.85    4.05
   0   2  -4    0.82    0.23
   0   2  -4    0.69    0.13
   0   2  -4    0.54    0.22
   0   2  -4    0.60    0.21
   0  -2   4    0.38    0.16
   0  -2   4    0.54    0.24
   0  -2   4    0.37    0.20
   0  -2   4    0.56    0.24
  -1   2  -4   38.52    1.92
  -1   2  -4   45.44    1.85
  -1   2  -4   45.93    1.86
  -1   2  -4   45.89    1.88
   1  -2   4   43.96    1.86
   1  -2   4   45.27    1.87
   1  -2   4   47.34    1.90
  -2   2  -4   35.46    1.51
  -2   2  -4   35.92    1.50
  -2   2  -4   34.95    1.48
  -2   2  -4   31.02    1.58
   2  -2   4   33.73    1.52
   2  -2   4   39.39    1.57
   2  -2   4   35.69    1.53
   2  -2   4   34.62    1.49
  -3   2  -4   65.73    2.60
  -3   2  -4   63.38    2.60
  -3   2  -4   58.74    2.62
   3  -2   4   59.26    2.60
   3  -2   4   67.63    2.65
   3  -2   4   58.98    2.62
  -4   2  -4   33.06    1.55
  -4   2  -4   34.65    1.52
  -4   2  -4   32.38    1.48
  -4   2  -4   35.59    1.53
  -4   2  -4   35.50    1.47
   4  -2   4   32.37    1.52
   4  -2   4   32.26    1.58
   4  -2   4   37.43    1.59
  -5   2  -4    2.90    0.43
  -5   2  -4    3.70    0.44
  -5   2  -4    4.60    0.53
   5  -2   4    3.36    0.55
   5  -2   4    3.54    0.54
  -6   2  -4   22.39    1.10
  -6   2  -4   21.19    1.12
  -6   2  -4   23.27    1.05
   6  -2   4   20.71    1.22
   6  -2   4   20.85    1.11
  -7   2  -4    7.03    0.72
  -7   2  -4    7.47    0.71
   7  -2   4    6.59    0.97
   7  -2   4    7.48    0.69
  -8   2  -4    4.74    0.76
  -8   2  -4    5.03    0.72
   8  -2   4    3.78    0.71
   8  -2   4    6.36    0.71
  -9   2  -4    1.68    0.49
  -9   2  -4    0.62    0.51
   9  -2   4    1.08    0.49
   9  -2   4    0.12    0.73
 -10   2  -4   -0.32    0.51
 -10   2  -4   -0.24    0.55
  10  -2   4   -0.69    0.53
  10  -2   4   -0.07    0.79
  11  -2   4   -0.90    0.88
  11  -2   4   -0.13    0.63
  13   1  -4    1.43    0.81
 -13  -1   4    1.52    0.85
  12   1  -4    0.65    0.68
 -12  -1   4   -1.48    0.73
  11   1  -4   -0.10    0.47
  11   1  -4    0.20    0.69
 -11  -1   4   -1.09    0.66
  10   1  -4    0.03    0.53
  10   1  -4    0.27    0.42
 -10  -1   4    0.50    0.31
 -10  -1   4   -0.85    0.65
   9   1  -4    1.67    0.41
   9   1  -4    1.67    0.49
  -9  -1   4    1.27    0.31
  -9  -1   4   -0.03    0.62
  -9  -1   4    2.22    0.35
   8   1  -4   21.87    1.05
   8   1  -4   20.31    1.02
   8   1  -4   18.74    1.07
  -8  -1   4   17.04    1.20
  -8  -1   4   20.00    0.88
  -8  -1   4   19.15    0.94
   7   1  -4   -0.06    0.34
   7   1  -4   -0.16    0.28
   7   1  -4    0.41    0.32
  -7  -1   4    0.18    0.26
  -7  -1   4   -0.73    0.49
  -7  -1   4    0.39    0.18
   6   1  -4   16.23    0.80
   6   1  -4   16.18    0.84
   6   1  -4   17.20    0.84
  -6  -1   4   16.66    0.74
  -6  -1   4   16.62    0.81
  -6  -1   4   15.83    1.06
   5   1  -4   33.68    1.43
   5   1  -4   32.30    1.44
   5   1  -4   30.66    1.46
   5   1  -4   33.81    1.40
   5   1  -4   35.89    1.54
  -5  -1   4   37.37    1.46
  -5  -1   4   32.28    1.58
  -5  -1   4   32.57    1.44
   4   1  -4   16.47    0.73
   4   1  -4   16.74    0.85
   4   1  -4   15.57    0.74
  -4  -1   4   16.51    0.76
  -4  -1   4   16.14    0.80
  -4  -1   4   15.29    0.91
  -4  -1   4   17.99    0.76
   3   1  -4  200.02    7.80
   3   1  -4  189.60    7.81
   3   1  -4  187.29    7.79
   3   1  -4  198.93    7.84
  -3  -1   4  199.85    7.83
  -3  -1   4  197.64    7.81
  -3  -1   4  191.32    7.85
  -3  -1   4  184.86    7.80
   2   1  -4    8.10    0.47
   2   1  -4    8.09    0.50
   2   1  -4    7.22    0.36
   2   1  -4    7.57    0.49
  -2  -1   4    7.52    0.45
  -2  -1   4    6.76    0.53
  -2  -1   4    7.14    0.36
  -2  -1   4    7.31    0.55
   1   1  -4   94.27    3.82
   1   1  -4   86.12    3.82
   1   1  -4   94.91    3.82
  -1  -1   4   94.70    3.78
  -1  -1   4   95.29    3.84
  -1  -1   4   92.65    3.77
  -1  -1   4   96.56    3.82
  -1  -1   4   92.61    3.81
   0   1  -4   49.81    2.19
   0   1  -4   54.24    2.14
   0   1  -4   54.45    2.16
   0   1  -4   52.60    2.18
   0  -1   4   49.14    2.18
   0  -1   4   52.25    2.18
   0  -1   4   52.70    2.15
   0  -1   4   51.61    2.15
  -1   1  -4  117.18    4.63
  -1   1  -4  114.89    4.65
  -1   1  -4  118.21    4.62
  -1   1  -4  101.46    4.75
   1  -1   4  112.57    4.64
   1  -1   4  107.98    4.66
   1  -1   4  112.69    4.62
   1  -1   4  128.17    4.68
  -2   1  -4    2.28    0.29
  -2   1  -4    3.46    0.45
  -2   1  -4    2.37    0.36
  -2   1  -4    2.26    0.38
   2  -1   4    3.08    0.51
   2  -1   4    2.48    0.31
   2  -1   4    2.15    0.33
  -3   1  -4    0.02    0.37
  -3   1  -4    0.90    0.31
  -3   1  -4    0.36    0.29
  -3   1  -4    0.04    0.18
   3  -1   4    0.26    0.34
   3  -1   4    0.50    0.38
   3  -1   4    0.23    0.30
  -4   1  -4   80.77    3.51
  -4   1  -4   85.76    3.49
  -4   1  -4   84.62    3.56
  -4   1  -4   84.10    3.57
  -4   1  -4   87.33    3.55
   4  -1   4   84.78    3.61
   4  -1   4   83.45    3.54
   4  -1   4   95.14    3.62
  -5   1  -4    2.90    0.45
  -5   1  -4    3.80    0.49
  -5   1  -4    3.48    0.40
   5  -1   4    3.23    0.41
   5  -1   4    3.90    0.60
  -6   1  -4   14.46    0.73
  -6   1  -4   12.85    0.90
  -6   1  -4   14.36    0.81
   6  -1   4   12.83    0.86
   6  -1   4   13.67    1.07
  -7   1  -4    9.71    0.63
  -7   1  -4    8.86    0.78
  -7   1  -4    8.96    0.74
   7  -1   4    9.03    1.01
   7  -1   4    9.26    0.75
  -8   1  -4    0.29    0.47
  -8   1  -4    0.08    0.41
   8  -1   4    0.08    0.42
   8  -1   4   -0.44    0.86
  -9   1  -4    0.32    0.50
  -9   1  -4   -0.32    0.46
   9  -1   4    0.91    0.48
   9  -1   4   -0.37    0.76
 -10   1  -4    1.31    0.59
  10  -1   4    1.24    0.55
  10  -1   4    0.76    0.88
 -11   1  -4   -0.38    0.65
  11  -1   4   -0.95    0.91
  13   0  -4    0.03    0.77
 -13   0   4   -0.03    0.87
  12   0  -4    0.20    0.70
 -12   0   4   -1.35    0.76
  11   0  -4    0.23    0.61
  11   0  -4   -0.43    0.43
 -11   0   4   -1.24    0.70
  10   0  -4   10.25    0.97
  10   0  -4    8.86    0.75
 -10   0   4    8.91    0.70
 -10   0   4    7.64    1.12
   9   0  -4    0.21    0.47
   9   0  -4   -0.55    0.31
   9   0  -4    0.32    0.34
  -9   0   4   -0.71    0.60
  -9   0   4   -0.23    0.24
  -9   0   4   -0.26    0.32
   8   0  -4    0.70    0.41
   8   0  -4    0.99    0.28
   8   0  -4    0.84    0.32
  -8   0   4    0.80    0.24
  -8   0   4    0.49    0.58
  -8   0   4    0.84    0.31
   7   0  -4   15.16    0.90
   7   0  -4   16.17    0.83
   7   0  -4   16.89    0.79
  -7   0   4   15.45    1.10
  -7   0   4   15.99    0.83
  -7   0   4   16.69    0.77
   6   0  -4   -0.02    0.26
   6   0  -4   -0.31    0.22
   6   0  -4   -0.19    0.28
  -6   0   4   -0.13    0.47
  -6   0   4   -0.05    0.20
  -6   0   4    0.75    0.30
   5   0  -4   23.31    1.00
   5   0  -4   21.18    1.02
   5   0  -4   24.07    1.14
   5   0  -4   21.92    1.08
  -5   0   4   20.80    1.20
  -5   0   4   24.75    1.02
  -5   0   4   25.46    1.04
  -5   0   4   21.34    1.14
   4   0  -4    6.34    0.41
   4   0  -4    6.49    0.47
   4   0  -4    7.15    0.62
   4   0  -4    6.63    0.43
  -4   0   4    5.90    0.60
  -4   0   4    6.35    0.49
  -4   0   4    7.27    0.43
  -4   0   4    6.31    0.41
   3   0  -4    0.53    0.23
   3   0  -4    0.49    0.17
   3   0  -4    0.65    0.20
   3   0  -4    0.93    0.31
  -3   0   4    0.34    0.26
  -3   0   4    0.77    0.32
  -3   0   4    0.46    0.20
  -3   0   4    0.78    0.17
   2   0  -4   81.00    3.28
   2   0  -4   87.29    3.34
   2   0  -4   75.78    3.31
  -2   0   4   81.59    3.30
  -2   0   4   77.71    3.32
  -2   0   4   82.56    3.28
  -2   0   4   79.74    3.33
   1   0  -4   11.86    0.71
   1   0  -4   13.16    0.65
  -1   0   4   11.61    0.63
  -1   0   4   11.77    0.59
  -1   0   4   12.11    0.57
  -1   0   4   13.05    0.66
   0   0  -4    0.73    0.40
   0   0  -4    0.98    0.28
   0   0  -4    0.71    0.19
   0   0   4    0.69    0.19
   0   0   4    1.29    0.31
   0   0   4    0.68    0.36
   0   0   4    0.75    0.22
  -1   0  -4    1.35    0.31
  -1   0  -4    1.26    0.19
  -1   0  -4    0.78    0.22
  -1   0  -4    0.51    0.34
   1   0   4    0.95    0.28
   1   0   4    1.12    0.35
   1   0   4    0.68    0.17
   1   0   4    1.39    0.36
  -2   0  -4  135.20    5.47
  -2   0  -4  137.26    5.49
  -2   0  -4  127.32    5.50
  -2   0  -4  131.26    5.42
   2   0   4  148.46    5.52
   2   0   4  131.61    5.49
   2   0   4  132.48    5.49
   2   0   4  132.24    5.42
  -3   0  -4   27.19    1.25
  -3   0  -4   31.24    1.37
  -3   0  -4   28.86    1.24
  -3   0  -4   27.91    1.39
  -3   0  -4   29.06    1.35
   3   0   4   29.31    1.37
   3   0   4   33.93    1.46
   3   0   4   29.91    1.43
  -4   0  -4    7.54    0.74
  -4   0  -4   10.40    0.71
  -4   0  -4    8.14    0.51
  -4   0  -4    8.48    0.47
   4   0   4    8.12    0.70
   4   0   4    8.64    0.85
  -5   0  -4   24.53    1.05
  -5   0  -4   24.80    1.10
  -5   0  -4   22.86    1.26
   5   0   4   23.81    1.20
   5   0   4   24.39    1.39
  -6   0  -4    7.93    0.50
  -6   0  -4    7.51    0.78
   6   0   4    6.88    1.04
   6   0   4    7.30    0.72
  -7   0  -4   13.35    0.83
  -7   0  -4   13.56    1.00
  -7   0  -4   14.41    0.73
   7   0   4   13.46    1.23
   7   0   4   13.36    0.90
  -8   0  -4    2.64    0.57
  -8   0  -4    2.11    0.43
   8   0   4    2.66    0.48
   8   0   4    1.94    0.76
  -9   0  -4    2.23    0.60
   9   0   4    1.42    0.80
   9   0   4    1.87    0.50
 -10   0  -4    0.99    0.62
  10   0   4    1.27    0.55
  10   0   4    0.55    0.91
 -11   0  -4   -0.85    0.69
  11   0   4   -0.18    1.03
  13  -1  -4    0.17    0.75
 -13   1   4    0.06    0.90
  12  -1  -4   -0.33    0.70
 -12   1   4   -1.45    0.79
  11  -1  -4    0.35    0.59
 -11   1   4    0.59    0.44
 -11   1   4   -0.34    0.73
  10  -1  -4   -0.54    0.34
  10  -1  -4   -0.72    0.51
 -10   1   4   -0.26    0.38
 -10   1   4   -0.07    1.08
   9  -1  -4    2.34    0.33
   9  -1  -4    2.55    0.36
   9  -1  -4    2.08    0.47
  -9   1   4    2.15    0.39
  -9   1   4    2.04    0.60
   8  -1  -4   -0.32    0.39
   8  -1  -4    0.05    0.29
   8  -1  -4   -0.11    0.23
  -8   1   4    0.20    0.52
  -8   1   4   -0.07    0.33
  -8   1   4   -0.43    0.27
   7  -1  -4   27.32    1.32
   7  -1  -4   29.29    1.22
  -7   1   4   29.09    1.25
  -7   1   4   28.28    1.30
  -7   1   4   26.08    1.47
   6  -1  -4    0.77    0.22
   6  -1  -4    0.64    0.31
   6  -1  -4    0.60    0.27
  -6   1   4    0.98    0.48
  -6   1   4    1.38    0.33
  -6   1   4    0.75    0.31
  -6   1   4    0.74    0.26
   5  -1  -4   15.12    0.77
   5  -1  -4   14.79    0.79
   5  -1  -4   15.63    0.75
   5  -1  -4   16.53    0.91
  -5   1   4   16.80    0.79
  -5   1   4   14.33    0.81
  -5   1   4   14.02    0.88
  -5   1   4   16.45    0.72
   4  -1  -4  154.44    5.78
   4  -1  -4  138.33    5.72
   4  -1  -4  136.75    5.71
   4  -1  -4  144.93    5.72
  -4   1   4  129.93    5.75
  -4   1   4  144.67    5.71
  -4   1   4  144.00    5.70
  -4   1   4  135.54    5.72
   3  -1  -4   42.66    1.85
   3  -1  -4   46.19    1.88
   3  -1  -4   44.46    1.81
   3  -1  -4   41.04    1.80
  -3   1   4   41.73    1.85
  -3   1   4   43.32    1.79
  -3   1   4   41.43    1.83
  -3   1   4   42.79    1.80
   2  -1  -4   37.69    1.59
   2  -1  -4   41.22    1.63
   2  -1  -4   37.74    1.56
   2  -1  -4   34.81    1.70
  -2   1   4   34.41    1.62
  -2   1   4   37.97    1.59
  -2   1   4   35.46    1.59
  -2   1   4   36.11    1.55
   1  -1  -4    5.77    0.50
   1  -1  -4    4.21    0.57
   1  -1  -4    6.34    0.48
  -1   1   4    5.07    0.41
  -1   1   4    5.01    0.50
  -1   1   4    4.87    0.39
  -1   1   4    6.01    0.52
  -1   1   4    5.04    0.43
   0  -1  -4  187.99    7.20
   0  -1  -4  179.72    7.20
   0  -1  -4  180.63    7.23
   0  -1  -4  167.77    7.24
   0   1   4  175.51    7.18
   0   1   4  174.15    7.23
   0   1   4  181.26    7.24
  -1  -1  -4    0.45    0.26
  -1  -1  -4    0.32    0.38
  -1  -1  -4    0.69    0.32
   1   1   4    0.52    0.35
   1   1   4    0.37    0.31
   1   1   4    0.88    0.42
   1   1   4    0.41    0.16
  -2  -1  -4   50.54    2.38
  -2  -1  -4   58.32    2.37
  -2  -1  -4   55.68    2.34
  -2  -1  -4   54.77    2.27
   2   1   4   60.06    2.41
   2   1   4   53.83    2.25
   2   1   4   54.38    2.36
   2   1   4   54.60    2.38
  -3  -1  -4   38.68    1.81
  -3  -1  -4   41.96    1.78
  -3  -1  -4   38.64    1.63
  -3  -1  -4   40.61    1.64
   3   1   4   38.99    1.78
   3   1   4   39.55    1.84
  -4  -1  -4    7.19    0.44
  -4  -1  -4    9.25    0.73
  -4  -1  -4    7.05    0.75
   4   1   4    7.25    0.73
   4   1   4    8.47    0.91
  -5  -1  -4   55.21    2.48
  -5  -1  -4   55.00    2.32
  -5  -1  -4   57.28    2.30
   5   1   4   57.19    2.44
   5   1   4   56.86    2.57
  -6  -1  -4   35.42    1.45
  -6  -1  -4   33.53    1.68
  -6  -1  -4   34.24    1.50
   6   1   4   33.58    1.84
   6   1   4   35.58    1.60
  -7  -1  -4    1.84    0.37
  -7  -1  -4    1.95    0.53
   7   1   4    2.16    0.76
   7   1   4    2.97    0.47
  -8  -1  -4    7.02    0.95
   8   1   4    7.45    0.81
   8   1   4    6.62    1.16
  -9  -1  -4    0.62    0.63
   9   1   4    0.19    0.48
   9   1   4   -0.13    0.83
 -10  -1  -4   -0.19    0.65
  10   1   4   -0.50    0.96
 -11  -1  -4    0.95    0.76
  11   1   4    0.77    1.15
  13  -2  -4    0.08    0.77
 -13   2   4   -1.32    0.88
  12  -2  -4    0.45    0.72
 -12   2   4   -0.26    0.78
  11  -2  -4    0.65    0.63
 -11   2   4    0.85    0.48
 -11   2   4    0.12    0.73
  10  -2  -4    0.16    0.51
 -10   2   4    0.15    0.43
 -10   2   4   -0.30    0.63
   9  -2  -4    4.14    0.55
   9  -2  -4    4.28    0.76
  -9   2   4    5.43    0.69
  -9   2   4    4.43    0.73
   8  -2  -4    6.59    0.58
   8  -2  -4    8.57    0.48
   8  -2  -4    7.69    0.74
  -8   2   4    6.70    0.99
  -8   2   4    8.02    0.72
   7  -2  -4    0.21    0.20
   7  -2  -4    0.23    0.36
  -7   2   4    0.06    0.55
  -7   2   4    0.50    0.37
   6  -2  -4   35.37    1.61
   6  -2  -4   33.28    1.59
  -6   2   4   35.16    1.74
  -6   2   4   38.27    1.52
  -6   2   4   39.15    1.63
  -6   2   4   35.71    1.61
   5  -2  -4   -0.04    0.28
   5  -2  -4   -0.01    0.26
  -5   2   4    0.01    0.20
  -5   2   4    0.06    0.34
  -5   2   4    0.07    0.30
  -5   2   4    0.22    0.42
   4  -2  -4    6.65    0.64
   4  -2  -4    6.46    0.52
   4  -2  -4    6.84    0.51
  -4   2   4    7.04    0.45
  -4   2   4    5.78    0.56
  -4   2   4    6.88    0.52
  -4   2   4    6.43    0.64
   3  -2  -4   79.00    3.03
   3  -2  -4   74.67    2.97
   3  -2  -4   71.36    2.96
   3  -2  -4   69.01    3.07
  -3   2   4   73.53    2.95
  -3   2   4   71.86    2.96
  -3   2   4   68.48    2.98
  -3   2   4   65.37    2.97
   2  -2  -4   58.72    2.38
   2  -2  -4   53.88    2.36
   2  -2  -4   60.08    2.42
   2  -2  -4   53.45    2.43
  -2   2   4   54.24    2.38
  -2   2   4   58.72    2.38
   1  -2  -4    2.95    0.37
   1  -2  -4    2.69    0.45
   1  -2  -4    3.65    0.45
  -1   2   4    3.28    0.40
  -1   2   4    2.62    0.40
  -1   2   4    4.08    0.54
  -1   2   4    2.82    0.41
  -1   2   4    2.97    0.39
   0  -2  -4   16.48    0.86
   0  -2  -4   15.26    0.79
   0  -2  -4   12.78    0.87
   0   2   4   14.50    0.70
   0   2   4   17.05    0.90
   0   2   4   14.79    0.83
   0   2   4   14.71    0.86
   0   2   4   15.43    0.79
  -1  -2  -4   62.11    2.62
  -1  -2  -4   68.73    2.68
  -1  -2  -4   57.86    2.66
  -1  -2  -4   62.68    2.60
   1   2   4   61.37    2.54
   1   2   4   67.36    2.69
   1   2   4   60.58    2.65
   1   2   4   60.79    2.66
  -2  -2  -4    0.13    0.39
  -2  -2  -4   -0.36    0.40
   2   2   4    0.22    0.41
   2   2   4    0.47    0.39
  -3  -2  -4   46.76    2.20
  -3  -2  -4   55.71    2.32
   3   2   4   47.05    2.17
   3   2   4   48.39    2.23
  -4  -2  -4   45.74    2.17
   4   2   4   49.41    2.24
   4   2   4   51.46    2.19
  -5  -2  -4   13.62    1.02
   5   2   4   13.24    0.94
   5   2   4   13.29    1.17
  -6  -2  -4    2.21    0.58
   6   2   4    2.45    0.49
   6   2   4    1.98    0.67
  -7  -2  -4   -0.14    0.55
   7   2   4    0.43    0.73
   7   2   4    0.17    0.44
  -8  -2  -4    0.03    0.61
   8   2   4    0.24    0.47
   8   2   4   -1.10    0.87
  -9  -2  -4    0.11    0.68
   9   2   4    0.58    0.51
   9   2   4   -0.17    0.97
 -10  -2  -4    0.33    0.73
  10   2   4   -0.68    1.03
  13  -3  -4   -1.05    0.77
 -13   3   4   -0.49    0.95
  12  -3  -4   -0.41    0.70
 -12   3   4   -0.84    0.88
 -12   3   4    0.06    0.59
  11  -3  -4   -0.04    0.60
 -11   3   4   -0.77    0.78
 -11   3   4   -0.13    0.52
  10  -3  -4    0.50    0.67
 -10   3   4    0.22    0.75
 -10   3   4   -0.28    0.46
   9  -3  -4   -0.33    0.49
  -9   3   4    0.13    0.45
  -9   3   4   -0.54    0.65
   8  -3  -4   14.10    0.64
   8  -3  -4   13.11    0.92
  -8   3   4   13.45    1.15
  -8   3   4   13.56    0.94
   7  -3  -4    2.36    0.31
   7  -3  -4    2.98    0.47
  -7   3   4    3.27    0.61
  -7   3   4    2.65    0.44
   6  -3  -4   12.63    0.84
  -6   3   4   12.85    0.63
  -6   3   4   13.12    1.00
  -6   3   4   13.39    0.86
   5  -3  -4   22.00    1.12
   5  -3  -4   21.67    1.17
  -5   3   4   22.82    0.99
  -5   3   4   22.75    1.14
  -5   3   4   22.16    1.21
   4  -3  -4   14.47    0.94
   4  -3  -4   13.24    0.80
   4  -3  -4   13.03    0.99
  -4   3   4   15.03    0.86
  -4   3   4   14.57    0.73
  -4   3   4   13.12    0.85
  -4   3   4   13.99    0.89
   3  -3  -4   30.48    1.41
   3  -3  -4   31.98    1.49
   3  -3  -4   31.04    1.47
  -3   3   4   32.46    1.39
  -3   3   4   31.28    1.39
  -3   3   4   29.18    1.41
  -3   3   4   29.56    1.42
   2  -3  -4    2.55    0.55
   2  -3  -4    1.84    0.43
   2  -3  -4    2.14    0.39
  -2   3   4    2.29    0.37
  -2   3   4    1.85    0.33
  -2   3   4    2.40    0.39
  -2   3   4    2.32    0.39
  -2   3   4    2.93    0.48
   1  -3  -4   24.23    1.17
   1  -3  -4   22.37    1.07
   1  -3  -4   20.76    1.16
  -1   3   4   21.79    1.12
  -1   3   4   22.03    1.09
  -1   3   4   21.77    1.14
  -1   3   4   22.65    1.04
  -1   3   4   25.14    1.16
   0  -3  -4    3.58    0.49
   0  -3  -4    3.25    0.40
   0  -3  -4    2.12    0.56
   0   3   4    3.95    0.57
   0   3   4    5.55    0.68
   0   3   4    3.08    0.62
   0   3   4    3.95    0.57
   0   3   4    4.13    0.37
  -1  -3  -4   30.44    1.24
  -1  -3  -4   28.22    1.46
   1   3   4   30.11    1.45
   1   3   4   30.28    1.24
   1   3   4   29.85    1.44
  -2  -3  -4   15.09    0.97
   2   3   4   17.12    1.05
   2   3   4   17.27    1.02
  -3  -3  -4    2.92    0.55
   3   3   4    3.63    0.57
   3   3   4    4.68    0.74
  -4  -3  -4   15.59    1.12
   4   3   4   16.90    1.02
   4   3   4   16.23    1.19
  -5  -3  -4    2.83    0.61
   5   3   4    2.73    0.70
   5   3   4    3.24    0.54
  -6  -3  -4    2.39    0.63
   6   3   4    2.99    0.52
  -7  -3  -4    4.49    0.71
   7   3   4    5.00    0.93
   7   3   4    5.13    0.82
  -8  -3  -4    1.62    0.72
   8   3   4    1.54    0.51
   8   3   4    0.92    1.00
  -9  -3  -4   -1.23    0.74
   9   3   4   -1.07    1.03
 -10  -3  -4   -1.03    0.81
  10   3   4   -0.61    1.02
  13  -4  -4   -0.13    0.78
 -13   4   4    0.18    1.00
  12  -4  -4    0.00    0.73
 -12   4   4    0.92    0.65
 -12   4   4   -0.53    0.89
  11  -4  -4    0.20    0.63
 -11   4   4   -0.23    0.71
 -11   4   4   -0.28    0.83
  10  -4  -4    3.59    0.66
 -10   4   4    3.17    0.57
 -10   4   4    3.71    0.85
   9  -4  -4    4.00    0.64
  -9   4   4    5.65    0.83
  -9   4   4    4.27    0.77
   8  -4  -4    1.05    0.49
  -8   4   4    0.28    0.46
  -8   4   4    0.99    0.66
   7  -4  -4    4.17    0.55
  -7   4   4    4.09    0.68
  -7   4   4    4.80    0.76
   6  -4  -4   -0.05    0.43
  -6   4   4    0.23    0.50
  -6   4   4    0.17    0.21
  -6   4   4    0.06    0.45
   5  -4  -4   13.33    0.88
  -5   4   4   13.76    0.97
  -5   4   4   13.00    0.69
  -5   4   4   13.42    0.86
   4  -4  -4   31.28    1.38
   4  -4  -4   27.45    1.36
  -4   4   4   26.84    1.35
  -4   4   4   28.99    1.29
  -4   4   4   26.91    1.37
   3  -4  -4    5.95    0.68
   3  -4  -4    5.85    0.69
   3  -4  -4    4.98    0.68
  -3   4   4    6.14    0.66
  -3   4   4    5.58    0.69
  -3   4   4    6.39    0.63
   2  -4  -4    0.98    0.44
   2  -4  -4    0.63    0.34
  -2   4   4    1.68    0.44
  -2   4   4    0.95    0.34
  -2   4   4    1.23    0.41
  -2   4   4    2.21    0.44
   1  -4  -4   36.76    1.55
   1  -4  -4   32.76    1.66
  -1   4   4   40.44    1.74
  -1   4   4   32.74    1.63
  -1   4   4   33.83    1.64
   0  -4  -4    5.42    0.73
   0  -4  -4    6.33    0.44
   0   4   4    6.09    0.76
   0   4   4    6.63    0.46
   0   4   4    6.07    0.71
  -1  -4  -4    1.64    0.51
   1   4   4    2.60    0.51
   1   4   4    2.04    0.48
   1   4   4    1.96    0.23
  -2  -4  -4   29.47    1.57
   2   4   4   31.24    1.57
   2   4   4   30.90    1.52
  -3  -4  -4    9.32    0.97
   3   4   4    9.41    0.89
   3   4   4    8.97    0.99
  -4  -4  -4   16.05    1.14
   4   4   4   18.65    1.11
   4   4   4   16.49    1.17
   5   4   4    3.64    0.58
   5   4   4    3.73    1.23
  -6  -4  -4    6.33    0.83
   6   4   4    7.58    1.28
   6   4   4    5.63    0.87
  -7  -4  -4    2.63    0.75
   7   4   4    2.46    0.56
   7   4   4    2.86    0.93
  -8  -4  -4    0.36    0.77
   8   4   4   -0.67    0.92
  -9  -4  -4    0.75    0.82
   9   4   4    0.43    1.16
  12  -5  -4   -0.51    0.75
 -12   5   4   -0.80    0.96
 -12   5   4    0.56    0.70
  11  -5  -4   -0.81    0.65
 -11   5   4   -0.08    0.63
 -11   5   4    0.07    0.90
  10  -5  -4    0.95    0.68
 -10   5   4    0.77    0.60
 -10   5   4    0.59    0.78
   9  -5  -4    0.39    0.60
  -9   5   4    0.26    0.75
   8  -5  -4    1.09    0.58
  -8   5   4    1.09    0.56
   7  -5  -4    4.02    0.58
  -7   5   4    3.54    0.67
  -7   5   4    3.92    0.60
  -6   5   4    0.90    0.59
   5  -5  -4    0.26    0.43
  -5   5   4   -0.21    0.48
  -5   5   4    0.59    0.52
  -5   5   4   -0.23    0.28
   4  -5  -4    1.65    0.48
  -4   5   4    1.55    0.49
  -4   5   4    1.76    0.36
  -4   5   4    1.83    0.49
   3  -5  -4   18.32    1.06
   3  -5  -4   20.97    1.10
  -3   5   4   17.44    1.12
  -3   5   4   19.93    1.05
  -3   5   4   18.43    1.04
   2  -5  -4   10.99    0.76
   2  -5  -4   12.48    0.90
  -2   5   4   11.24    0.86
  -2   5   4   11.98    0.93
  -2   5   4   11.77    0.78
   1  -5  -4    4.51    0.59
   1  -5  -4    3.21    0.48
  -1   5   4    2.99    0.53
  -1   5   4    2.82    0.49
  -1   5   4    3.18    0.52
   0  -5  -4   17.43    1.17
   0  -5  -4   20.86    0.86
   0   5   4   17.47    1.13
   0   5   4   17.53    0.87
   0   5   4   18.19    1.20
  -1  -5  -4    0.19    0.58
   1   5   4   -0.16    0.11
   1   5   4   -0.02    0.54
   1   5   4    0.17    0.49
   1   5   4    0.15    0.13
  -2  -5  -4    5.78    0.92
   2   5   4    5.81    0.85
   2   5   4    5.67    0.71
  -3  -5  -4   27.26    1.56
   3   5   4   29.03    1.49
   3   5   4   27.68    1.58
  -4  -5  -4   -0.08    1.05
   4   5   4    0.87    0.54
   4   5   4    0.93    1.12
  -5  -5  -4   10.47    1.14
   5   5   4   11.68    1.02
   5   5   4   10.10    1.17
  -6  -5  -4    2.65    0.78
   6   5   4    2.26    0.90
   6   5   4    1.90    0.59
  -7  -5  -4   -0.26    0.76
   7   5   4   -0.84    0.97
   7   5   4    0.09    0.60
  -8  -5  -4    0.75    0.81
   8   5   4    1.06    1.09
  12  -6  -4    0.49    0.86
 -12   6   4   -1.19    1.15
 -12   6   4    0.12    0.78
  11  -6  -4    0.79    0.79
 -11   6   4    0.77    0.96
 -11   6   4    0.37    0.73
  10  -6  -4    1.25    0.74
 -10   6   4    1.10    0.67
 -10   6   4    0.24    0.82
   9  -6  -4    0.86    0.68
  -9   6   4    0.33    0.82
  -9   6   4    0.05    0.62
   8  -6  -4    1.40    0.65
  -8   6   4    1.37    0.63
  -8   6   4    1.28    0.74
  -7   6   4    0.27    0.68
   6  -6  -4    6.46    0.92
  -6   6   4    4.54    0.67
  -6   6   4    4.25    0.63
   5  -6  -4    0.16    0.54
  -5   6   4   -0.14    0.54
  -5   6   4    0.36    0.52
   4  -6  -4    1.00    0.53
  -4   6   4    0.47    0.50
  -4   6   4    1.48    0.49
  -4   6   4    1.04    0.39
  -3   6   4    2.76    0.47
  -3   6   4    2.61    0.57
  -3   6   4    2.74    0.56
   2  -6  -4    0.60    0.36
   2  -6  -4    1.80    0.56
  -2   6   4    0.12    0.51
  -2   6   4    0.41    0.52
  -2   6   4    0.13    0.37
   1  -6  -4    0.45    0.55
   1  -6  -4    0.70    0.29
  -1   6   4   -0.01    0.55
  -1   6   4   -0.02    0.47
  -1   6   4   -0.17    0.31
   0  -6  -4    0.58    0.58
   0   6   4   -0.18    0.26
   0   6   4    0.28    0.26
   0   6   4    0.27    0.53
   0   6   4   -0.04    0.58
  -1  -6  -4   13.31    1.15
   1   6   4   12.70    1.08
   1   6   4   12.86    1.07
  -2  -6  -4    5.70    0.79
   2   6   4    5.57    0.83
   2   6   4    5.48    0.70
  -3  -6  -4    0.40    0.69
   3   6   4    0.71    0.58
   3   6   4    0.21    0.72
  -4  -6  -4    4.38    0.77
   4   6   4    5.26    0.67
   4   6   4    4.81    0.87
  -5  -6  -4    1.83    0.83
   5   6   4    1.51    0.82
   5   6   4    2.62    0.63
  -6  -6  -4    0.43    0.79
   6   6   4    0.81    0.91
   6   6   4    0.98    0.63
  -7  -6  -4    0.85    0.85
   7   6   4    1.15    1.02
  11  -7  -4    0.90    0.85
 -11   7   4    0.19    0.95
 -11   7   4    0.62    0.81
  10  -7  -4    3.23    0.84
 -10   7   4    2.81    0.82
 -10   7   4    2.83    1.00
   9  -7  -4    0.60    0.78
  -9   7   4   -0.55    0.82
  -9   7   4   -0.04    0.73
   8  -7  -4    0.42    0.70
  -8   7   4    0.26    0.72
  -8   7   4   -0.72    0.62
   7  -7  -4    1.75    0.63
  -7   7   4    0.25    0.72
  -7   7   4    1.02    0.61
   6  -7  -4    0.77    0.61
   6  -7  -4    0.32    0.47
  -6   7   4    0.56    0.64
  -6   7   4    0.50    0.64
   5  -7  -4    2.70    0.81
  -5   7   4    2.86    0.63
  -5   7   4    2.87    0.66
  -3   7   4   -0.10    0.60
  -3   7   4   -0.40    0.59
  -3   7   4    0.17    0.45
  -2   7   4    0.32    0.57
  -2   7   4    0.11    0.40
  -2   7   4    0.13    0.61
   1  -7  -4    2.89    0.71
  -1   7   4    0.75    0.61
  -1   7   4    0.92    0.84
  -1   7   4    1.51    0.36
   0  -7  -4    1.08    0.72
   0   7   4   -0.70    0.76
   0   7   4   -0.30    0.60
   0   7   4    0.36    0.27
  -1  -7  -4    3.68    0.87
   1   7   4    3.03    0.78
   1   7   4    2.18    0.63
  -2  -7  -4    5.15    0.83
   2   7   4    3.30    0.70
   2   7   4    4.26    0.83
  -3  -7  -4    2.65    0.81
   3   7   4    3.19    0.69
   3   7   4    3.47    0.88
  -4  -7  -4    3.47    0.86
   4   7   4    3.14    0.85
   4   7   4    3.04    0.70
  -5  -7  -4    1.92    0.84
   5   7   4    2.41    0.84
   5   7   4    1.47    0.97
  -6  -7  -4    0.13    0.94
   6   7   4    0.12    1.03
  10  -8  -4    0.81    0.80
 -10   8   4   -0.46    0.98
 -10   8   4   -0.29    0.77
   9  -8  -4    0.61    0.82
  -9   8   4    0.10    0.91
  -9   8   4   -0.57    0.74
   8  -8  -4    0.98    0.77
  -8   8   4    0.49    0.78
  -8   8   4    0.15    0.84
   7  -8  -4    1.63    0.77
  -7   8   4    0.80    0.73
  -7   8   4    0.76    0.81
   6  -8  -4    0.43    0.74
  -6   8   4    0.31    0.69
  -6   8   4   -0.01    0.72
   5  -8  -4    0.50    0.70
   5  -8  -4   -0.05    0.56
  -5   8   4   -0.32    0.68
  -5   8   4    0.44    0.63
   4  -8  -4    0.75    0.63
  -4   8   4    0.01    0.66
  -4   8   4   -0.10    0.66
  -4   8   4   -0.56    0.54
  -3   8   4   -0.33    0.64
  -3   8   4    0.23    0.68
  -3   8   4   -0.14    0.49
  -2   8   4    0.18    0.63
  -2   8   4    0.64    0.45
  -2   8   4    0.11    0.68
  -1   8   4    0.59    0.73
  -1   8   4    0.60    0.38
  -1   8   4    0.59    0.67
   0  -8  -4    3.99    0.92
   0   8   4    2.33    0.77
   0   8   4    2.34    0.72
  -1  -8  -4    2.08    0.91
   1   8   4    0.78    0.71
   1   8   4    1.53    0.81
  -2  -8  -4    2.26    0.92
   2   8   4    0.72    0.74
   2   8   4    1.25    0.90
  -3  -8  -4    2.70    0.91
   3   8   4    3.04    0.94
   3   8   4    2.60    0.76
  -4  -8  -4    0.81    0.93
   4   8   4    0.76    0.98
   4   8   4    0.63    0.78
  -5  -8  -4    0.10    0.97
   5   8   4    2.03    1.07
   9  -9  -4    1.42    0.91
  -9   9   4    0.28    0.85
  -9   9   4    0.67    0.95
   8  -9  -4    1.19    0.90
  -8   9   4   -0.32    0.86
  -8   9   4   -0.08    0.86
   7  -9  -4    1.09    0.85
  -7   9   4   -0.71    0.82
  -7   9   4    0.16    0.84
   6  -9  -4    1.42    0.84
  -6   9   4    0.23    0.76
  -6   9   4   -0.24    0.77
  -5   9   4    1.68    0.79
  -5   9   4    1.12    0.78
  -5   9   4    1.09    0.70
   4  -9  -4    2.34    0.70
  -4   9   4    2.60    0.83
  -4   9   4    1.73    0.74
  -4   9   4    2.37    0.65
   3  -9  -4    1.05    0.80
  -3   9   4    0.53    0.79
  -3   9   4   -0.04    0.55
  -3   9   4    0.53    0.78
   2  -9  -4    0.59    0.95
  -2   9   4   -0.05    0.77
  -2   9   4   -0.49    0.69
   1  -9  -4    1.53    0.93
  -1   9   4   -0.02    0.82
  -1   9   4   -0.38    0.70
   0  -9  -4    4.05    1.02
   0   9   4    2.47    0.82
   0   9   4    1.93    0.85
  -1  -9  -4    0.80    0.97
   1   9   4    0.90    0.93
   1   9   4    1.15    0.80
  -2  -9  -4    0.65    0.99
   2   9   4    2.44    0.84
   2   9   4    1.17    1.01
  -3  -9  -4    0.68    1.01
   3   9   4    2.61    0.87
   3   9   4    1.82    1.08
   7 -10  -4    1.21    0.93
  -7  10   4   -1.16    0.92
  -7  10   4   -0.82    0.88
  -6  10   4   -0.10    0.88
  -6  10   4   -0.17    0.81
  -6  10   4   -0.35    0.82
  -5  10   4    0.96    0.79
  -5  10   4    0.82    0.77
  -5  10   4    1.84    0.87
  -4  10   4    1.68    0.90
  -4  10   4    0.81    0.82
  -3  10   4    0.46    0.87
  -3  10   4    1.10    0.89
   2 -10  -4    1.28    0.98
  -2  10   4   -0.48    0.79
  -2  10   4    1.26    0.87
   1 -10  -4    1.72    1.05
  -1  10   4    0.87    0.87
  -1  10   4    0.00    0.84
   0 -10  -4    0.36    1.13
   0  10   4    0.52    0.85
   0  10   4    0.54    0.92
  -1 -10  -4    1.46    1.18
   1  10   4    2.09    1.02
   1  10   4    2.14    0.90
   3  13  -5    0.44    0.88
   3  13  -5   -0.57    1.25
   2  13  -5    1.28    0.87
   2  13  -5    1.22    0.79
   2  13  -5    0.28    0.86
   1  13  -5    0.68    0.79
   1  13  -5    0.34    0.85
   1  13  -5    0.62    0.81
   1  13  -5    0.70    0.64
   0  13  -5    1.57    0.85
   0  13  -5    0.81    0.77
   0  13  -5    0.24    0.64
   0  13  -5    0.78    0.79
  -1  13  -5   -0.18    0.65
  -1  13  -5    0.22    0.70
  -1  13  -5   -0.94    0.80
  -1  13  -5    0.17    0.80
  -2  13  -5    0.18    0.80
  -2  13  -5   -0.64    0.78
  -2  13  -5   -0.65    0.68
  -2  13  -5   -0.26    0.84
  -3  13  -5   -0.99    0.77
  -3  13  -5    0.67    0.75
  -3  13  -5    0.57    0.87
  -4  13  -5   -1.14    0.77
  -4  13  -5    0.85    0.90
  -5  13  -5   -0.23    0.85
  -5  13  -5    0.55    0.96
   5 -13   5    2.61    1.03
   5  12  -5   -1.68    1.51
   5  12  -5   -0.44    0.96
   4  12  -5   -0.18    0.90
   4  12  -5   -0.28    0.77
   3  12  -5    0.00    0.79
   2  12  -5    0.41    0.71
   2  12  -5   -0.16    0.75
   2  12  -5    0.47    0.52
   1  12  -5    0.03    0.53
   1  12  -5   -0.32    0.69
   1  12  -5    0.26    0.71
   1  12  -5   -0.50    0.66
   0  12  -5    0.31    0.72
   0  12  -5    0.87    0.66
   0  12  -5    0.78    0.69
  -1  12  -5    0.38    0.61
  -1  12  -5    0.10    0.66
  -1  12  -5    0.47    0.58
  -1  12  -5    0.16    0.70
  -2  12  -5   -0.95    0.61
  -2  12  -5    0.97    0.75
  -2  12  -5    0.10    0.59
  -3  12  -5    6.16    0.91
  -3  12  -5    8.50    1.28
  -3  12  -5    4.90    0.77
  -4  12  -5   -0.32    0.83
   4 -12   5    2.04    0.84
   4 -12   5    3.16    0.76
   5 -12   5    3.16    0.80
   5 -12   5    3.99    0.96
  -6  12  -5    1.13    0.94
   6 -12   5    3.31    0.85
  -7  12  -5    2.21    1.07
   7 -12   5    4.31    0.92
   7  11  -5   -1.42    1.06
   6  11  -5   -0.74    0.96
   6  11  -5   -0.15    0.83
   5  11  -5   -0.52    0.72
   5  11  -5    0.25    0.91
  -5 -11   5    0.56    0.87
   4  11  -5    0.21    0.83
   4  11  -5    0.62    0.66
  -4 -11   5    0.79    0.56
   3  11  -5    0.68    0.43
   3  11  -5    0.10    0.61
   3  11  -5    0.27    0.69
  -3 -11   5    1.31    0.57
   2  11  -5    1.26    0.65
   2  11  -5    1.31    0.45
   2  11  -5    1.39    0.60
  -2 -11   5    2.27    0.56
   1  11  -5    0.38    0.59
   1  11  -5    0.16    0.45
   1  11  -5   -0.06    0.60
   0  11  -5   -0.05    0.57
   0  11  -5    0.07    0.63
   0  11  -5    0.49    0.57
   0  11  -5   -0.59    0.47
  -1  11  -5    6.87    0.90
  -1  11  -5    5.47    0.88
  -1  11  -5    7.34    0.91
  -2  11  -5   -0.16    0.62
  -2  11  -5   -0.07    0.50
   2 -11   5    1.53    0.57
  -3  11  -5   -0.06    0.72
  -3  11  -5    0.36    0.47
   3 -11   5    2.30    0.65
   3 -11   5    1.90    0.60
  -4  11  -5    4.90    0.80
  -4  11  -5    4.28    0.81
   5 -11   5    2.41    0.68
  -6  11  -5    1.09    0.82
   6 -11   5    2.08    0.75
  -8  11  -5    1.20    1.00
   8 -11   5    4.49    1.37
   8 -11   5    1.17    0.84
   8  10  -5   -1.85    1.26
   8  10  -5   -0.39    0.91
   7  10  -5   -0.02    1.43
   7  10  -5   -0.65    0.93
   6  10  -5   -0.91    0.86
   6  10  -5   -0.28    0.70
  -6 -10   5    0.25    0.53
   5  10  -5    1.60    0.64
   5  10  -5    1.37    0.75
  -5 -10   5    2.09    0.55
   4  10  -5    0.68    0.56
   4  10  -5    0.96    0.36
   4  10  -5    0.38    0.68
  -4 -10   5    1.68    0.51
   3  10  -5   -0.29    0.72
   3  10  -5   -0.16    0.34
   3  10  -5    0.19    0.51
  -3 -10   5    0.89    0.49
   2  10  -5    1.20    0.39
   2  10  -5    1.18    0.51
   2  10  -5    1.71    0.61
  -2 -10   5    1.96    0.50
   1  10  -5    9.08    0.82
   1  10  -5   12.28    0.95
   1  10  -5   10.62    0.98
  -1 -10   5   11.55    0.96
   0  10  -5    0.96    0.50
   0  10  -5    0.11    0.47
   0 -10   5    1.38    0.45
   0 -10   5    1.76    0.52
  -1  10  -5    0.21    0.46
  -1  10  -5   -0.62    0.56
   1 -10   5    1.45    0.46
  -2  10  -5   10.99    1.11
  -2  10  -5   12.18    0.92
   2 -10   5   13.87    0.99
   2 -10   5   13.32    0.96
  -3  10  -5    1.63    0.45
  -3  10  -5    1.56    0.99
   3 -10   5    2.87    0.57
   3 -10   5    2.79    0.54
  -4  10  -5    7.76    0.79
  -4  10  -5    6.49    0.99
   4 -10   5    8.72    0.97
  -5  10  -5    2.78    0.47
  -5  10  -5    2.36    0.73
   5 -10   5    2.75    0.63
  -7  10  -5    3.04    0.86
   7 -10   5    3.38    0.77
  -8  10  -5   -0.44    0.85
   8 -10   5    1.22    1.18
   8 -10   5    0.87    0.77
  -9  10  -5   -0.48    0.90
   9 -10   5   -1.89    1.26
   9 -10   5    1.07    0.81
   9   9  -5   -0.50    0.90
   9   9  -5    0.30    0.97
   8   9  -5   -0.24    1.61
   8   9  -5    0.00    0.93
   7   9  -5    1.45    0.72
   7   9  -5    1.06    0.76
  -7  -9   5    2.32    0.63
   6   9  -5   -0.02    0.71
   6   9  -5   -0.01    0.59
  -6  -9   5    1.03    0.55
   5   9  -5   -0.04    0.69
   5   9  -5    0.40    0.53
  -5  -9   5    1.29    0.53
   4   9  -5    0.45    0.29
   4   9  -5    0.65    0.48
   4   9  -5   -0.07    0.70
  -4  -9   5    1.73    0.50
   3   9  -5    9.15    0.64
   3   9  -5    8.32    0.98
   3   9  -5    9.04    0.84
   3   9  -5    9.97    0.66
  -3  -9   5   11.56    0.90
   2   9  -5   -0.03    0.33
   2   9  -5    0.10    0.56
   2   9  -5   -0.10    0.41
   2   9  -5    0.05    0.48
  -2  -9   5    0.57    0.45
   1   9  -5    0.26    0.40
   1   9  -5    0.21    0.32
   1   9  -5    0.17    0.49
  -1  -9   5    0.71    0.35
  -1  -9   5    0.79    0.45
   0   9  -5    7.81    0.83
   0   9  -5    7.87    0.74
   0  -9   5    9.26    0.72
   0  -9   5    8.07    0.81
  -1   9  -5    0.42    0.42
   1  -9   5    1.38    0.49
   1  -9   5    1.31    0.42
   1  -9   5    0.60    0.39
  -2   9  -5   14.86    1.11
  -2   9  -5   14.56    0.94
   2  -9   5   16.08    0.99
   2  -9   5   16.51    0.98
  -3   9  -5   28.60    1.40
  -3   9  -5   28.56    1.53
   3  -9   5   31.57    1.47
   3  -9   5   29.01    1.47
  -4   9  -5   -0.01    0.61
  -4   9  -5    0.80    0.41
  -4   9  -5   -0.53    0.39
   4  -9   5    1.12    0.52
  -5   9  -5    3.89    0.67
  -5   9  -5    3.37    0.75
   5  -9   5    3.61    0.83
  -6   9  -5    0.66    0.73
  -6   9  -5    0.56    0.41
   6  -9   5    1.12    0.55
  -7   9  -5    0.28    0.70
   7  -9   5    0.83    0.61
   7  -9   5    2.16    0.92
  -8   9  -5    4.38    0.90
   8  -9   5    4.61    0.74
   8  -9   5    7.11    1.13
  -9   9  -5    0.20    0.86
   9  -9   5   -0.27    0.72
   9  -9   5    0.38    1.03
 -10   9  -5   -0.64    0.83
  10  -9   5   -0.10    0.81
  10  -9   5   -1.10    1.13
  10   8  -5   -0.46    0.84
  10   8  -5    0.44    0.96
   9   8  -5   -0.60    0.83
   9   8  -5   -0.57    0.82
   8   8  -5   -0.10    0.68
   8   8  -5   -0.38    0.83
   6   8  -5   -0.16    0.66
   6   8  -5    0.62    0.52
   5   8  -5    7.67    0.83
   5   8  -5    6.91    0.38
   5   8  -5    5.72    0.95
   5   8  -5    6.43    0.46
   4   8  -5    4.04    0.68
   4   8  -5    3.04    0.61
   4   8  -5    4.64    0.71
   4   8  -5    3.03    0.41
   4   8  -5    3.44    0.39
   3   8  -5   -0.01    0.37
   3   8  -5   -0.20    0.29
   3   8  -5    0.41    0.28
   3   8  -5    0.06    0.49
   3   8  -5    0.05    0.26
  -3  -8   5    0.99    0.43
   2   8  -5   26.28    1.20
   2   8  -5   26.28    1.26
   2   8  -5   25.98    1.35
   2   8  -5   27.10    1.21
  -2  -8   5   26.42    1.32
  -2  -8   5   25.94    1.20
   1   8  -5    3.95    0.47
   1   8  -5    5.01    0.74
   1   8  -5    3.73    0.58
   1   8  -5    4.61    0.54
  -1  -8   5    5.29    0.56
  -1  -8   5    5.66    0.69
   0   8  -5   54.24    2.19
   0   8  -5   52.79    2.27
   0  -8   5   52.19    2.23
   0  -8   5   48.73    2.25
  -1   8  -5   27.11    1.30
  -1   8  -5   27.33    1.22
   1  -8   5   26.20    1.25
   1  -8   5   27.08    1.29
   1  -8   5   24.72    1.30
  -2   8  -5    0.78    0.37
  -2   8  -5    0.22    0.38
  -2   8  -5    0.29    0.47
  -2   8  -5    0.65    0.33
   2  -8   5    1.60    0.45
   2  -8   5    1.19    0.36
  -3   8  -5   20.52    1.05
  -3   8  -5   21.57    1.12
  -3   8  -5   21.83    1.28
   3  -8   5   24.01    1.18
   3  -8   5   22.77    1.21
  -4   8  -5    0.28    0.55
  -4   8  -5    0.81    0.39
   4  -8   5    1.18    0.50
  -5   8  -5   -0.48    0.57
  -5   8  -5   -0.15    0.37
   5  -8   5    0.23    0.47
  -6   8  -5    8.12    0.66
  -7   8  -5   -0.30    0.62
   7  -8   5    1.47    1.12
   7  -8   5    0.77    0.58
  -8   8  -5   -0.13    0.69
   8  -8   5   -0.31    0.77
   8  -8   5    0.21    0.61
  -9   8  -5    1.30    0.79
   9  -8   5   -0.28    0.84
   9  -8   5    0.91    0.69
 -10   8  -5   -0.30    0.78
  10  -8   5   -1.40    0.99
  10  -8   5    0.94    0.72
  11   7  -5    0.62    0.86
  11   7  -5    1.12    0.87
  10   7  -5   -0.06    0.88
  10   7  -5    0.40    0.75
   9   7  -5   -0.10    0.64
   9   7  -5   -0.20    0.81
   7   7  -5   -0.12    0.52
   7   7  -5   -0.71    0.78
   6   7  -5   -0.22    0.54
   6   7  -5    0.35    0.45
   5   7  -5    5.85    0.86
   5   7  -5    6.22    0.70
   5   7  -5    5.06    0.61
   4   7  -5   14.06    0.67
   4   7  -5   13.94    0.85
   4   7  -5   14.36    0.70
   4   7  -5   14.32    1.00
   4   7  -5   14.85    0.79
  -4  -7   5   15.07    0.96
   3   7  -5   -0.25    0.24
   3   7  -5    0.17    0.35
   3   7  -5   -0.40    0.44
   3   7  -5    0.16    0.25
  -3  -7   5    0.01    0.28
  -3  -7   5    0.26    0.42
   2   7  -5    2.12    0.45
   2   7  -5    1.85    0.37
   2   7  -5    2.51    0.31
   2   7  -5    1.89    0.27
  -2  -7   5    3.87    0.65
  -2  -7   5    2.84    0.43
   1   7  -5   47.21    2.03
   1   7  -5   48.89    2.03
   1   7  -5   47.80    1.99
   1   7  -5   48.84    2.10
  -1  -7   5   48.14    2.03
  -1  -7   5   46.99    2.10
   0   7  -5   16.37    0.86
   0   7  -5   16.52    0.92
   0   7  -5   16.64    0.80
   0  -7   5   17.72    0.90
   0  -7   5   16.06    0.92
  -1   7  -5   46.45    2.03
  -1   7  -5   51.07    2.01
  -1   7  -5   48.99    2.07
   1  -7   5   45.68    2.08
   1  -7   5   47.03    2.01
   1  -7   5   47.25    2.05
  -2   7  -5   16.64    0.92
  -2   7  -5   15.37    0.85
  -2   7  -5   17.75    0.86
   2  -7   5   18.41    0.93
   2  -7   5   17.23    0.95
   2  -7   5   16.37    0.96
  -3   7  -5    3.40    0.52
  -3   7  -5    3.90    0.58
  -3   7  -5    2.79    0.53
   3  -7   5    2.87    0.44
  -4   7  -5   25.59    1.27
  -4   7  -5   25.89    1.41
   4  -7   5   27.27    1.20
   4  -7   5   24.67    1.34
   4  -7   5   29.71    1.36
  -5   7  -5    1.27    0.39
  -5   7  -5    1.00    0.50
   5  -7   5    0.81    0.48
   5  -7   5    2.45    0.49
   5  -7   5    1.74    0.28
  -6   7  -5    1.30    0.60
  -6   7  -5    1.08    0.38
   6  -7   5    1.16    0.51
   6  -7   5    1.51    0.41
   6  -7   5    1.27    0.51
  -7   7  -5    1.63    0.36
   7  -7   5    1.77    0.69
   7  -7   5    0.19    0.57
  -8   7  -5   -0.22    0.60
   8  -7   5    0.21    0.60
  -9   7  -5    0.15    0.65
   9  -7   5    0.31    0.65
 -10   7  -5   -0.02    0.70
  10  -7   5    0.29    0.73
 -11   7  -5   -0.38    0.77
  11  -7   5    0.81    0.77
  11  -7   5   -1.39    0.89
  11   6  -5    0.28    0.76
  11   6  -5   -0.46    0.79
  10   6  -5    0.12    0.80
  10   6  -5   -0.19    0.79
 -10  -6   5    0.05    0.80
   9   6  -5    0.94    0.73
   9   6  -5    0.76    0.58
  -9  -6   5    2.72    0.72
  -8  -6   5    7.09    1.10
   7   6  -5    1.67    0.58
   7   6  -5    2.10    0.45
   6   6  -5    0.40    0.39
   6   6  -5   -0.43    0.53
  -6  -6   5    1.26    0.47
  -6  -6   5    0.09    0.40
   5   6  -5    0.60    0.50
   5   6  -5    1.17    0.35
  -5  -6   5    1.96    0.45
  -5  -6   5    1.81    0.33
   4   6  -5    5.57    0.40
   4   6  -5    5.17    0.73
   4   6  -5    5.17    0.48
   4   6  -5    5.87    0.53
  -4  -6   5    6.78    0.71
  -4  -6   5    5.35    0.35
   3   6  -5   35.11    1.53
   3   6  -5   35.63    1.51
   3   6  -5   36.24    1.52
   3   6  -5   36.13    1.64
  -3  -6   5   35.06    1.64
  -3  -6   5   36.53    1.51
   2   6  -5    2.44    0.31
   2   6  -5    3.71    0.60
   2   6  -5    3.88    0.41
   2   6  -5    3.51    0.37
  -2  -6   5    3.63    0.53
   1   6  -5   55.54    2.33
   1   6  -5   61.57    2.45
   1   6  -5   57.53    2.35
   1   6  -5   56.04    2.40
   1   6  -5   56.62    2.31
  -1  -6   5   55.17    2.36
  -1  -6   5   53.55    2.41
   0   6  -5   41.20    1.80
   0   6  -5   42.54    1.72
   0   6  -5   42.67    1.78
   0  -6   5   41.37    1.78
   0  -6   5   41.89    1.77
   0  -6   5   39.53    1.80
   0  -6   5   40.17    1.72
  -1   6  -5    0.69    0.34
  -1   6  -5    0.80    0.34
  -1   6  -5    0.80    0.23
   1  -6   5    1.03    0.28
   1  -6   5    0.81    0.31
   1  -6   5    0.82    0.38
   1  -6   5    1.03    0.24
  -2   6  -5   93.79    3.67
  -2   6  -5   89.57    3.69
   2  -6   5   87.40    3.72
   2  -6   5   84.87    3.69
   2  -6   5   90.86    3.68
   2  -6   5   90.73    3.67
  -3   6  -5    1.59    0.32
  -3   6  -5    0.35    0.43
  -3   6  -5    1.52    0.36
   3  -6   5    1.71    0.36
   3  -6   5    0.76    0.28
   3  -6   5    1.56    0.41
  -4   6  -5    3.40    0.44
  -4   6  -5    2.90    0.50
   4  -6   5    3.28    0.45
   4  -6   5    4.13    0.59
   4  -6   5    3.09    0.47
  -5   6  -5   13.01    0.86
  -5   6  -5   14.75    0.93
   5  -6   5   13.98    0.94
   5  -6   5   13.76    0.77
   5  -6   5   14.89    0.92
  -6   6  -5   -0.10    0.35
  -6   6  -5    0.36    0.50
   6  -6   5    0.05    0.46
   6  -6   5   -0.44    0.46
   6  -6   5   -0.58    0.32
  -7   6  -5    6.11    0.88
  -7   6  -5    6.06    0.61
   7  -6   5    3.73    0.67
   7  -6   5    5.35    0.82
  -8   6  -5    2.00    0.39
   8  -6   5    0.41    0.69
   8  -6   5    1.75    0.55
  -9   6  -5   -0.48    0.57
   9  -6   5    0.35    0.61
   9  -6   5   -1.30    0.76
 -10   6  -5   -0.46    0.66
  10  -6   5   -1.48    0.77
  10  -6   5   -0.19    0.67
 -11   6  -5   -0.55    0.74
  11  -6   5    0.00    0.73
  11  -6   5   -0.84    0.87
  12   5  -5    0.31    0.85
  12   5  -5   -0.90    0.78
  11   5  -5    0.05    0.70
  11   5  -5    1.27    0.78
 -11  -5   5    2.30    0.98
  10   5  -5    1.21    0.61
  10   5  -5    1.18    0.69
   9   5  -5    5.53    0.90
   9   5  -5    4.15    0.89
   8   5  -5    0.25    0.45
   8   5  -5   -0.30    0.55
  -8  -5   5   -0.93    0.66
   7   5  -5    1.43    0.50
   7   5  -5    2.33    0.41
  -7  -5   5    1.55    0.69
  -7  -5   5    1.75    0.61
   6   5  -5   -0.43    0.47
   6   5  -5    0.45    0.33
  -6  -5   5    0.02    0.52
  -6  -5   5   -0.30    0.39
   5   5  -5   29.05    1.43
  -5  -5   5   29.85    1.33
  -5  -5   5   28.92    1.46
   4   5  -5    4.05    0.42
   4   5  -5    3.81    0.56
   4   5  -5    3.44    0.47
  -4  -5   5    3.48    0.37
  -4  -5   5    2.91    0.46
  -4  -5   5    3.63    0.31
   3   5  -5    6.94    0.40
   3   5  -5    6.17    0.44
   3   5  -5    5.79    0.57
   3   5  -5    6.07    0.58
  -3  -5   5    6.34    0.65
  -3  -5   5    6.59    0.42
   2   5  -5   46.30    1.88
   2   5  -5   45.83    1.94
   2   5  -5   44.15    1.91
   2   5  -5   45.14    1.84
   2   5  -5   44.83    1.83
   2   5  -5   44.21    1.93
  -2  -5   5   45.33    1.88
  -2  -5   5   43.90    1.95
   1   5  -5    0.73    0.14
   1   5  -5    0.59    0.13
   1   5  -5    0.82    0.25
   1   5  -5    0.72    0.30
   1   5  -5    0.88    0.32
  -1  -5   5    0.63    0.26
  -1  -5   5    0.57    0.30
  -1  -5   5    0.77    0.24
   0   5  -5  213.01    8.67
   0   5  -5  219.98    8.72
   0   5  -5  221.29    8.70
   0   5  -5  215.96    8.71
   0  -5   5  209.99    8.72
   0  -5   5  204.12    8.66
   0  -5   5  229.16    8.70
   0  -5   5  210.06    8.69
  -1   5  -5    2.77    0.47
  -1   5  -5    1.86    0.34
  -1   5  -5    2.00    0.31
  -1   5  -5    2.66    0.32
   1  -5   5    2.07    0.37
   1  -5   5    1.89    0.32
   1  -5   5    2.15    0.30
  -2   5  -5    4.38    0.42
  -2   5  -5    4.37    0.53
   2  -5   5    3.78    0.57
   2  -5   5    3.18    0.44
   2  -5   5    3.96    0.52
  -3   5  -5   73.81    3.20
  -3   5  -5   80.96    3.19
   3  -5   5   79.09    3.20
   3  -5   5   71.19    3.20
   3  -5   5   81.27    3.19
   3  -5   5   76.27    3.23
  -4   5  -5    0.37    0.34
  -4   5  -5    0.05    0.38
  -4   5  -5    0.24    0.40
   4  -5   5    0.07    0.38
   4  -5   5    0.09    0.37
  -5   5  -5   17.40    1.01
  -5   5  -5   19.79    1.08
   5  -5   5   17.87    1.02
   5  -5   5   19.27    1.04
   5  -5   5   18.46    1.08
  -6   5  -5    1.87    0.40
  -6   5  -5    1.45    0.49
   6  -5   5    1.66    0.47
   6  -5   5    0.54    0.54
  -7   5  -5   -0.04    0.48
  -7   5  -5    0.27    0.37
   7  -5   5   -1.07    0.58
   7  -5   5    0.14    0.48
  -8   5  -5    1.99    0.55
  -8   5  -5    2.35    0.43
   8  -5   5    1.90    0.64
  -9   5  -5    0.39    0.45
  -9   5  -5   -0.15    0.65
   9  -5   5   -0.41    0.74
   9  -5   5    0.83    0.57
 -10   5  -5    1.09    0.65
  10  -5   5    1.51    0.67
  10  -5   5    0.70    0.85
 -11   5  -5   -0.38    0.69
  11  -5   5   -1.66    0.86
  11  -5   5   -0.77    0.70
  12   4  -5    0.29    0.74
  12   4  -5    0.58    0.75
 -12  -4   5    0.02    1.10
  11   4  -5    0.29    0.68
  11   4  -5    0.12    0.64
 -11  -4   5   -1.31    0.90
  10   4  -5    0.40    0.55
  10   4  -5    0.59    0.72
   9   4  -5    0.15    0.47
   9   4  -5    0.25    0.54
   8   4  -5    1.05    0.53
   8   4  -5    1.04    0.43
  -8  -4   5   -0.48    0.67
   7   4  -5    2.32    0.49
   7   4  -5    2.91    0.41
  -7  -4   5    2.21    0.56
  -7  -4   5    2.21    0.69
   6   4  -5    4.91    0.56
   6   4  -5    5.02    0.70
  -6  -4   5    4.99    0.69
  -6  -4   5    5.05    0.53
   5   4  -5   13.01    0.84
   5   4  -5   13.21    0.57
   5   4  -5   13.19    0.69
  -5  -4   5   12.17    0.77
  -5  -4   5   12.79    0.99
  -5  -4   5   14.25    0.58
   4   4  -5    1.65    0.38
   4   4  -5    1.61    0.38
   4   4  -5    1.79    0.31
   4   4  -5    2.04    0.32
  -4  -4   5    1.45    0.23
  -4  -4   5    0.91    0.39
   3   4  -5    0.44    0.32
   3   4  -5    0.47    0.33
   3   4  -5    0.43    0.11
   3   4  -5    0.50    0.22
  -3  -4   5    0.85    0.18
  -3  -4   5   -0.12    0.36
   2   4  -5  197.54    7.76
   2   4  -5  182.95    7.74
   2   4  -5  192.62    7.71
  -2  -4   5  189.87    7.71
  -2  -4   5  199.11    7.74
  -2  -4   5  185.47    7.76
   1   4  -5    0.16    0.26
   1   4  -5    0.35    0.22
   1   4  -5   -0.05    0.26
  -1  -4   5    0.21    0.25
  -1  -4   5    0.12    0.28
   0   4  -5    5.35    0.31
   0   4  -5    4.90    0.48
   0   4  -5    4.84    0.50
   0   4  -5    4.82    0.43
   0  -4   5    4.78    0.44
   0  -4   5    4.94    0.45
   0  -4   5    4.30    0.46
   0  -4   5    4.84    0.29
  -1   4  -5  221.40    8.45
  -1   4  -5  209.94    8.41
  -1   4  -5  198.18    8.44
  -1   4  -5  212.09    8.44
   1  -4   5  204.62    8.45
   1  -4   5  207.88    8.41
   1  -4   5  213.75    8.44
   1  -4   5  203.10    8.44
  -2   4  -5   24.34    1.12
  -2   4  -5   23.36    1.17
  -2   4  -5   24.97    1.14
  -2   4  -5   26.00    1.11
   2  -4   5   24.39    1.16
   2  -4   5   26.73    1.16
   2  -4   5   25.10    1.11
   2  -4   5   22.41    1.13
  -3   4  -5   55.16    2.27
  -3   4  -5   51.14    2.31
  -3   4  -5   53.95    2.26
   3  -4   5   51.43    2.29
   3  -4   5   54.81    2.29
   3  -4   5   51.71    2.28
   3  -4   5   57.42    2.31
  -4   4  -5   24.59    1.18
  -4   4  -5   24.80    1.19
  -4   4  -5   24.26    1.23
   4  -4   5   23.32    1.24
   4  -4   5   25.17    1.22
   4  -4   5   27.49    1.27
  -5   4  -5    2.10    0.43
  -5   4  -5    2.04    0.40
   5  -4   5    1.27    0.50
   5  -4   5    1.47    0.51
   5  -4   5    2.25    0.43
  -6   4  -5   65.03    2.76
  -6   4  -5   63.15    2.73
   6  -4   5   69.53    2.88
   6  -4   5   61.74    2.74
   6  -4   5   62.32    2.82
  -7   4  -5    0.78    0.46
  -7   4  -5    0.66    0.40
   7  -4   5    0.56    0.47
   7  -4   5   -0.43    0.55
  -8   4  -5    0.30    0.43
  -8   4  -5    0.01    0.46
   8  -4   5    0.34    0.48
  -9   4  -5    1.82    0.56
  -9   4  -5    1.72    0.48
   9  -4   5    2.10    0.57
   9  -4   5   -0.12    0.75
 -10   4  -5    1.75    0.63
  10  -4   5    0.96    0.82
  10  -4   5    2.11    0.64
 -11   4  -5    0.15    0.67
  11  -4   5    0.01    0.87
  11  -4   5    0.12    0.70
  13   3  -5    0.42    0.77
  12   3  -5   -0.36    0.65
  12   3  -5    0.05    0.70
 -12  -3   5    1.32    0.91
  11   3  -5    1.38    0.61
 -11  -3   5   -1.07    0.78
  10   3  -5    0.73    0.54
  10   3  -5    0.55    0.54
   9   3  -5    0.79    0.51
   9   3  -5    0.21    0.45
  -9  -3   5   -1.48    0.71
   8   3  -5   13.90    0.91
   8   3  -5   13.12    0.85
  -8  -3   5   10.06    1.20
   7   3  -5    5.49    0.61
   7   3  -5    6.57    0.70
  -7  -3   5    4.20    0.57
  -7  -3   5    4.37    0.68
   6   3  -5    2.26    0.31
   6   3  -5    3.77    0.63
  -6  -3   5    2.78    0.22
  -6  -3   5    1.32    0.54
  -6  -3   5    1.52    0.43
   5   3  -5   24.44    1.15
   5   3  -5   22.67    0.98
   5   3  -5   22.70    1.02
   5   3  -5   23.27    1.13
  -5  -3   5   22.68    1.10
  -5  -3   5   23.91    1.01
  -5  -3   5   21.34    1.26
   4   3  -5  103.05    4.30
   4   3  -5  105.32    4.37
   4   3  -5  106.81    4.40
   4   3  -5  105.01    4.35
   4   3  -5  110.88    4.32
  -4  -3   5  109.46    4.36
  -4  -3   5  110.04    4.34
  -4  -3   5  103.05    4.41
   3   3  -5    1.89    0.37
   3   3  -5    1.12    0.13
   3   3  -5    1.62    0.31
  -3  -3   5    1.89    0.28
  -3  -3   5    1.00    0.16
  -3  -3   5    1.54    0.25
  -3  -3   5    1.23    0.36
   2   3  -5    6.03    0.50
   2   3  -5    6.85    0.55
   2   3  -5    6.80    0.47
  -2  -3   5    6.52    0.47
  -2  -3   5    6.75    0.48
  -2  -3   5    5.26    0.56
   1   3  -5  209.52    8.65
   1   3  -5  202.56    8.66
   1   3  -5  224.56    8.67
  -1  -3   5  210.25    8.67
  -1  -3   5  225.40    8.66
   0   3  -5   12.48    0.71
   0   3  -5   13.94    0.71
   0   3  -5   14.01    0.61
   0   3  -5   14.00    0.71
   0  -3   5   13.15    0.73
   0  -3   5   14.59    0.61
   0  -3   5   14.38    0.73
   0  -3   5   12.79    0.72
  -1   3  -5  115.08    4.64
  -1   3  -5  118.22    4.67
  -1   3  -5  104.37    4.67
  -1   3  -5  119.05    4.68
   1  -3   5  110.97    4.66
   1  -3   5  122.80    4.69
   1  -3   5  111.44    4.68
   1  -3   5  114.86    4.65
  -2   3  -5  170.17    6.80
  -2   3  -5  171.45    6.77
  -2   3  -5  170.94    6.78
  -2   3  -5  155.53    6.81
   2  -3   5  160.86    6.78
   2  -3   5  162.99    6.80
   2  -3   5  161.18    6.80
   2  -3   5  186.73    6.83
  -3   3  -5    0.22    0.30
  -3   3  -5   -0.49    0.37
  -3   3  -5    0.00    0.26
   3  -3   5   -0.08    0.29
   3  -3   5   -0.50    0.33
   3  -3   5   -0.51    0.40
  -4   3  -5   72.01    2.94
  -4   3  -5   70.92    2.97
  -4   3  -5   67.57    2.95
  -4   3  -5   69.12    2.99
   4  -3   5   68.00    3.01
   4  -3   5   80.08    3.05
   4  -3   5   67.27    2.97
  -5   3  -5   12.63    0.89
  -5   3  -5   13.20    0.79
   5  -3   5   12.80    0.84
   5  -3   5   11.98    0.98
  -6   3  -5    1.61    0.41
  -6   3  -5    1.27    0.42
   6  -3   5    0.56    0.54
   6  -3   5    1.28    0.44
  -7   3  -5    4.83    0.70
  -7   3  -5    4.45    0.70
   7  -3   5    4.36    0.71
   7  -3   5    3.81    0.67
  -8   3  -5    0.22    0.46
  -8   3  -5   -0.11    0.46
   8  -3   5    0.29    0.49
  -9   3  -5   -0.16    0.50
  -9   3  -5   -0.11    0.48
   9  -3   5   -0.35    0.69
 -10   3  -5    0.16    0.60
 -10   3  -5    0.22    0.55
  10  -3   5   -0.99    0.75
  10  -3   5    0.33    0.61
  11  -3   5    0.02    0.69
  11  -3   5   -1.30    0.91
  13   2  -5    0.33    0.75
 -13  -2   5    1.89    0.94
  12   2  -5   -0.49    0.60
  12   2  -5    0.90    0.69
 -12  -2   5   -0.93    0.82
  11   2  -5    0.13    0.54
  11   2  -5   -0.06    0.71
 -11  -2   5   -1.10    0.69
  10   2  -5    0.95    0.51
  10   2  -5    0.30    0.49
 -10  -2   5   -0.83    0.65
   9   2  -5    0.18    0.44
   9   2  -5    0.49    0.43
   8   2  -5   -0.13    0.37
   8   2  -5    0.04    0.40
  -8  -2   5    0.04    0.17
  -8  -2   5   -1.15    0.62
   7   2  -5    2.67    0.37
   7   2  -5    3.61    0.59
  -7  -2   5    3.71    0.62
  -7  -2   5    2.11    0.64
  -7  -2   5    1.47    0.40
  -7  -2   5    2.47    0.28
   6   2  -5   29.00    1.29
   6   2  -5   28.38    1.33
   6   2  -5   27.88    1.26
  -6  -2   5   30.65    1.32
  -6  -2   5   28.05    1.33
  -6  -2   5   26.97    1.45
   5   2  -5   13.21    0.72
   5   2  -5   12.57    0.65
   5   2  -5   13.52    0.75
   5   2  -5   13.18    0.62
  -5  -2   5   11.91    0.94
  -5  -2   5   11.21    0.79
  -5  -2   5   14.90    0.71
   4   2  -5    2.61    0.33
   4   2  -5    3.23    0.53
   4   2  -5    2.05    0.31
   4   2  -5    1.81    0.25
  -4  -2   5    1.58    0.37
  -4  -2   5    2.09    0.44
  -4  -2   5    2.74    0.38
   3   2  -5  220.74    8.62
   3   2  -5  210.93    8.55
   3   2  -5  220.25    8.58
   3   2  -5  194.45    8.58
  -3  -2   5  205.70    8.62
  -3  -2   5  212.69    8.58
  -3  -2   5  221.10    8.61
  -3  -2   5  215.13    8.54
   2   2  -5   68.43    2.67
   2   2  -5   62.90    2.68
   2   2  -5   66.91    2.69
  -2  -2   5   61.61    2.69
  -2  -2   5   60.64    2.68
  -2  -2   5   64.72    2.59
  -2  -2   5   65.09    2.66
  -2  -2   5   64.89    2.60
   1   2  -5  239.66   10.00
   1   2  -5  251.78   10.00
   1   2  -5  242.04   10.00
  -1  -2   5  256.40    9.98
  -1  -2   5  244.34   10.00
  -1  -2   5  249.90    9.97
  -1  -2   5  238.31   10.02
  -1  -2   5  261.14   10.01
   0   2  -5  127.84    5.12
   0   2  -5  121.02    5.15
   0   2  -5  130.12    5.14
   0   2  -5  124.20    5.14
   0  -2   5  123.39    5.14
   0  -2   5  130.21    5.12
   0  -2   5  131.64    5.16
   0  -2   5  123.31    5.15
  -1   2  -5   10.35    0.53
  -1   2  -5   11.19    0.66
  -1   2  -5    9.47    0.71
  -1   2  -5   10.45    0.56
   1  -2   5    9.16    0.66
   1  -2   5   11.22    0.69
   1  -2   5    9.44    0.62
   1  -2   5    9.72    0.58
  -2   2  -5  208.89    8.41
  -2   2  -5  206.26    8.43
  -2   2  -5  195.80    8.45
  -2   2  -5  209.97    8.42
   2  -2   5  208.07    8.41
   2  -2   5  231.63    8.48
   2  -2   5  198.28    8.44
  -3   2  -5   10.31    0.78
  -3   2  -5    9.37    0.62
  -3   2  -5    8.09    0.77
  -3   2  -5    8.35    0.54
   3  -2   5    8.23    0.77
   3  -2   5    7.96    0.67
   3  -2   5    8.64    0.59
   3  -2   5   11.08    0.80
  -4   2  -5   11.31    0.65
  -4   2  -5   10.73    0.84
  -4   2  -5   11.78    0.62
   4  -2   5   10.73    0.74
   4  -2   5   11.20    0.87
  -5   2  -5   33.50    1.61
  -5   2  -5   32.63    1.51
  -5   2  -5   35.92    1.48
   5  -2   5   33.43    1.57
   5  -2   5   33.20    1.63
  -6   2  -5    0.29    0.45
  -6   2  -5    0.49    0.35
   6  -2   5    0.27    0.43
   6  -2   5   -0.11    0.55
  -7   2  -5    1.78    0.42
  -7   2  -5    1.50    0.48
   7  -2   5    0.89    0.66
   7  -2   5    1.93    0.48
  -8   2  -5    0.98    0.50
  -8   2  -5    1.18    0.46
   8  -2   5    0.36    0.67
   8  -2   5    0.75    0.49
  -9   2  -5    0.17    0.53
  -9   2  -5   -0.15    0.49
   9  -2   5    0.13    0.78
   9  -2   5    0.26    0.54
  10  -2   5    0.14    0.60
  10  -2   5   -0.79    0.87
  11  -2   5   -1.08    0.88
  11  -2   5   -0.05    0.69
  13   1  -5    0.91    0.75
 -13  -1   5   -0.10    0.87
  12   1  -5    1.10    0.67
 -12  -1   5    0.08    0.82
  11   1  -5   -0.45    0.49
  11   1  -5    0.05    0.90
 -11  -1   5   -0.72    0.69
  10   1  -5   -0.05    0.44
  10   1  -5   -0.13    0.49
 -10  -1   5   -0.97    0.71
   9   1  -5    2.12    0.47
   9   1  -5    1.67    0.43
  -9  -1   5    1.03    0.67
   8   1  -5    7.22    0.68
   8   1  -5    7.39    0.67
  -8  -1   5    5.98    0.90
  -8  -1   5    7.64    0.48
   7   1  -5    4.84    0.57
   7   1  -5    5.55    0.52
   7   1  -5    5.84    0.60
  -7  -1   5    5.32    0.70
  -7  -1   5    5.18    0.41
   6   1  -5    2.48    0.36
   6   1  -5    2.40    0.32
   6   1  -5    2.36    0.30
   6   1  -5    3.02    0.34
  -6  -1   5    2.49    0.57
   5   1  -5   74.02    3.11
   5   1  -5   73.23    3.15
   5   1  -5   75.62    3.11
  -5  -1   5   71.65    3.21
  -5  -1   5   79.66    3.14
  -5  -1   5   82.53    3.13
   4   1  -5   34.47    1.49
   4   1  -5   36.47    1.52
   4   1  -5   36.74    1.61
   4   1  -5   35.27    1.55
  -4  -1   5   35.45    1.53
  -4  -1   5   37.76    1.50
  -4  -1   5   33.74    1.63
   3   1  -5   32.10    1.51
   3   1  -5   37.02    1.57
   3   1  -5   34.80    1.44
   3   1  -5   37.47    1.50
  -3  -1   5   34.26    1.44
  -3  -1   5   33.43    1.56
  -3  -1   5   34.52    1.49
   2   1  -5  103.83    4.45
   2   1  -5  115.05    4.45
   2   1  -5  114.93    4.47
  -2  -1   5  108.11    4.44
  -2  -1   5  107.54    4.40
  -2  -1   5  110.99    4.48
  -2  -1   5  102.50    4.40
  -2  -1   5  109.24    4.46
   1   1  -5    6.04    0.47
   1   1  -5    5.91    0.49
   1   1  -5    4.68    0.48
  -1  -1   5    3.66    0.45
  -1  -1   5    4.96    0.33
  -1  -1   5    5.11    0.51
  -1  -1   5    4.73    0.60
  -1  -1   5    5.08    0.37
   0   1  -5  470.57   19.63
   0   1  -5  508.23   19.68
   0   1  -5  495.15   19.62
   0   1  -5  493.05   19.60
   0  -1   5  454.01   19.64
   0  -1   5  524.09   19.64
   0  -1   5  478.99   19.61
   0  -1   5  479.11   19.63
  -1   1  -5   77.77    3.10
  -1   1  -5   70.96    3.16
  -1   1  -5   72.63    3.13
  -1   1  -5   78.32    3.10
   1  -1   5   74.95    3.09
   1  -1   5   73.91    3.13
   1  -1   5   75.93    3.17
   1  -1   5   80.24    3.18
  -2   1  -5    8.90    0.64
  -2   1  -5    7.73    0.54
  -2   1  -5    8.14    0.48
  -2   1  -5    7.15    0.72
   2  -1   5    7.39    0.70
   2  -1   5    7.67    0.50
   2  -1   5    8.11    0.66
   2  -1   5    9.07    0.71
  -3   1  -5  108.12    4.52
  -3   1  -5  106.46    4.57
  -3   1  -5  109.04    4.47
   3  -1   5  106.82    4.54
   3  -1   5  123.62    4.66
   3  -1   5  106.99    4.56
  -4   1  -5    6.58    0.75
  -4   1  -5    5.69    0.55
  -4   1  -5    6.32    0.44
   4  -1   5    6.25    0.86
   4  -1   5    5.68    0.67
  -5   1  -5   13.55    0.76
  -5   1  -5   14.08    0.70
  -5   1  -5   12.56    0.95
   5  -1   5   13.52    0.91
   5  -1   5   14.29    1.11
  -6   1  -5   19.15    1.11
  -6   1  -5   18.62    0.97
  -6   1  -5   19.43    0.91
   6  -1   5   18.18    1.26
   6  -1   5   18.35    1.07
  -7   1  -5   -0.27    0.36
  -7   1  -5   -0.26    0.50
   7  -1   5    0.13    0.46
   7  -1   5   -0.06    0.65
  -8   1  -5   -0.61    0.52
  -8   1  -5   -0.22    0.41
   8  -1   5   -0.15    0.67
   8  -1   5    0.07    0.48
  -9   1  -5    0.16    1.10
   9  -1   5   -0.50    0.78
   9  -1   5   -0.03    0.52
 -10   1  -5    0.09    0.62
  10  -1   5    0.12    0.58
  10  -1   5   -0.66    0.89
 -11   1  -5   -0.18    0.70
  11  -1   5   -1.00    1.01
  13   0  -5   -0.05    0.72
 -13   0   5   -0.85    0.85
  12   0  -5   -0.26    0.63
 -12   0   5   -0.20    0.83
  11   0  -5   -0.42    0.44
 -11   0   5   -0.80    0.72
  10   0  -5   -0.72    0.40
  10   0  -5   -0.09    0.48
 -10   0   5   -0.11    0.39
 -10   0   5   -1.62    1.11
   9   0  -5    1.96    0.57
   9   0  -5    1.46    0.43
   9   0  -5    1.50    0.39
  -9   0   5    1.03    0.65
  -9   0   5    1.15    0.30
  -9   0   5    1.31    0.39
   8   0  -5    1.37    0.36
   8   0  -5    1.02    0.38
   8   0  -5    1.58    0.31
  -8   0   5    1.74    0.37
  -8   0   5    1.29    0.28
  -8   0   5    0.60    0.60
   7   0  -5    4.50    0.48
   7   0  -5    5.50    0.57
   7   0  -5    4.72    0.57
  -7   0   5    4.95    0.45
  -7   0   5    4.55    0.59
  -7   0   5    4.75    0.66
   6   0  -5   27.09    1.26
   6   0  -5   25.99    1.24
   6   0  -5   27.24    1.21
  -6   0   5   30.01    1.27
  -6   0   5   29.96    1.23
  -6   0   5   24.69    1.42
  -6   0   5   26.67    1.28
   5   0  -5   30.77    1.31
   5   0  -5   29.35    1.31
   5   0  -5   28.43    1.34
  -5   0   5   31.34    1.31
  -5   0   5   29.35    1.37
  -5   0   5   31.96    1.32
  -5   0   5   28.54    1.43
   4   0  -5   55.71    2.45
   4   0  -5   58.10    2.41
   4   0  -5   62.77    2.53
   4   0  -5   60.30    2.43
  -4   0   5   58.38    2.42
  -4   0   5   57.79    2.47
  -4   0   5   55.35    2.49
  -4   0   5   59.68    2.41
   3   0  -5    1.53    0.32
   3   0  -5    2.03    0.24
   3   0  -5    2.90    0.49
   3   0  -5    1.85    0.28
  -3   0   5    1.68    0.35
  -3   0   5    1.93    0.38
  -3   0   5    2.04    0.29
  -3   0   5    2.31    0.38
   2   0  -5  578.12   21.59
   2   0  -5  547.85   21.59
   2   0  -5  504.39   21.58
  -2   0   5  545.73   21.58
  -2   0   5  541.50   21.59
  -2   0   5  512.50   21.62
  -2   0   5  532.02   21.65
  -2   0   5  532.96   21.59
   1   0  -5   15.13    0.94
   1   0  -5   18.34    0.84
   1   0  -5   18.38    0.89
  -1   0   5   18.07    0.89
  -1   0   5   16.19    0.78
  -1   0   5   16.73    0.94
  -1   0   5   15.16    0.81
   0   0  -5    1.61    0.24
   0   0  -5    2.45    0.37
   0   0  -5    1.28    0.42
   0   0   5    1.43    0.24
   0   0   5    1.78    0.34
   0   0   5    1.58    0.37
   0   0   5    1.96    0.38
  -1   0  -5  204.31    8.21
  -1   0  -5  195.58    8.26
  -1   0  -5  195.99    8.24
  -1   0  -5  206.06    8.19
   1   0   5  198.52    8.23
   1   0   5  221.89    8.28
   1   0   5  201.79    8.25
   1   0   5  200.99    8.19
  -2   0  -5   11.69    0.58
  -2   0  -5   11.93    0.77
  -2   0  -5   10.00    0.86
  -2   0  -5   10.90    0.67
   2   0   5   10.43    0.58
   2   0   5   10.83    0.81
   2   0   5   13.41    1.27
   2   0   5    9.97    0.77
  -3   0  -5   89.97    3.56
  -3   0  -5   81.18    3.67
   3   0   5   89.33    3.67
   3   0   5   89.14    3.69
  -4   0  -5   38.64    1.90
  -4   0  -5   40.98    1.73
  -4   0  -5   43.40    1.72
   4   0   5   40.75    1.96
   4   0   5   41.47    1.87
  -5   0  -5   -0.44    0.50
  -5   0  -5   -0.09    0.25
  -5   0  -5    0.21    0.21
   5   0   5   -0.37    0.43
   5   0   5    0.29    0.59
  -6   0  -5    0.04    0.50
  -6   0  -5    0.07    0.23
   6   0   5   -0.40    0.68
   6   0   5   -0.25    0.45
  -7   0  -5   -0.51    0.33
  -7   0  -5    0.30    0.56
   7   0   5   -0.02    0.48
   7   0   5   -0.40    1.18
  -8   0  -5    0.45    0.96
   8   0   5    0.63    0.51
   8   0   5    0.23    0.80
  -9   0  -5   -0.18    0.61
   9   0   5   -0.24    0.53
   9   0   5   -1.02    0.80
 -10   0  -5   -0.08    0.67
  10   0   5   -0.13    1.02
  10   0   5    0.33    0.60
  13  -1  -5    0.29    0.73
 -13   1   5   -0.48    0.89
  12  -1  -5   -0.25    0.63
 -12   1   5   -0.70    0.82
  11  -1  -5    0.68    0.57
 -11   1   5    0.54    0.48
 -11   1   5   -0.21    0.72
  10  -1  -5    0.17    0.49
  10  -1  -5    0.00    0.37
 -10   1   5   -0.19    0.44
 -10   1   5   -0.46    0.68
   9  -1  -5    0.66    0.45
   9  -1  -5    0.33    0.34
  -9   1   5    0.49    0.64
  -9   1   5    0.73    0.42
   8  -1  -5    3.13    0.32
   8  -1  -5    2.68    0.42
   8  -1  -5    3.13    0.38
  -8   1   5    3.78    0.45
  -8   1   5    3.00    0.63
   7  -1  -5   -0.34    0.25
   7  -1  -5   -0.35    0.35
   7  -1  -5   -0.15    0.32
  -7   1   5    0.23    0.52
  -7   1   5   -0.19    0.36
   6  -1  -5   27.64    1.28
   6  -1  -5   26.12    1.27
   6  -1  -5   27.08    1.23
  -6   1   5   25.56    1.43
  -6   1   5   28.98    1.27
  -6   1   5   26.66    1.30
  -6   1   5   29.72    1.22
   5  -1  -5   18.53    1.04
   5  -1  -5   20.28    1.00
   5  -1  -5   21.57    0.98
  -5   1   5   20.40    1.05
  -5   1   5   22.10    0.98
  -5   1   5   21.55    0.96
  -5   1   5   20.13    1.10
   4  -1  -5   39.72    1.70
   4  -1  -5   35.97    1.56
   4  -1  -5   37.97    1.58
   4  -1  -5   34.40    1.64
  -4   1   5   35.08    1.62
  -4   1   5   34.28    1.65
  -4   1   5   36.90    1.56
  -4   1   5   36.23    1.55
   3  -1  -5   91.05    3.52
   3  -1  -5   83.15    3.44
   3  -1  -5   80.36    3.50
   3  -1  -5   87.34    3.46
  -3   1   5   82.92    3.43
  -3   1   5   80.29    3.48
  -3   1   5   84.72    3.45
  -3   1   5   80.57    3.48
   2  -1  -5    0.73    0.40
   2  -1  -5    1.99    0.36
   2  -1  -5    1.67    0.34
  -2   1   5    1.49    0.32
  -2   1   5    1.59    0.27
  -2   1   5    2.64    0.38
  -2   1   5    1.55    0.40
  -2   1   5    1.31    0.25
   1  -1  -5  246.61   10.00
   1  -1  -5  236.95   10.01
   1  -1  -5  267.82   10.00
  -1   1   5  234.94   10.00
  -1   1   5  245.71    9.96
  -1   1   5  231.85    9.96
  -1   1   5  265.17   10.01
   0  -1  -5    7.47    0.77
   0  -1  -5    9.03    0.69
   0   1   5    8.93    0.72
   0   1   5    8.15    0.74
   0   1   5    7.54    0.49
   0   1   5    8.21    0.62
   0   1   5    8.46    0.56
  -1  -1  -5   27.53    1.08
  -1  -1  -5   22.05    1.26
  -1  -1  -5   24.01    1.11
  -1  -1  -5   23.99    1.20
   1   1   5   22.82    1.03
   1   1   5   22.92    1.17
   1   1   5   21.97    1.18
  -2  -1  -5  115.29    4.94
  -2  -1  -5  126.40    4.82
   2   1   5  117.97    4.81
   2   1   5  118.59    4.92
   2   1   5  116.60    4.91
  -3  -1  -5   -0.51    0.43
  -3  -1  -5    0.28    0.16
   3   1   5    0.10    0.51
   3   1   5   -0.09    0.48
  -4  -1  -5    2.69    0.31
  -4  -1  -5    2.16    0.54
   4   1   5    4.39    0.66
   4   1   5    2.46    0.54
  -5  -1  -5   -0.27    0.49
  -5  -1  -5   -0.02    0.21
   5   1   5    0.11    0.47
   5   1   5   -0.12    0.58
  -6  -1  -5   -0.51    0.26
  -6  -1  -5   -0.25    0.53
   6   1   5   -0.62    0.67
   6   1   5   -0.32    0.48
  -7  -1  -5   -0.29    0.67
   7   1   5    0.02    0.49
   7   1   5   -0.86    0.80
  -8  -1  -5    1.15    0.66
   8   1   5    0.13    0.90
   8   1   5    0.79    0.53
  -9  -1  -5    0.37    0.67
   9   1   5    0.19    0.97
   9   1   5    0.36    0.56
 -10  -1  -5    0.72    0.73
  10   1   5   -0.30    0.98
  13  -2  -5    0.58    0.74
 -13   2   5   -0.34    0.93
  12  -2  -5    0.30    0.66
 -12   2   5   -0.70    0.85
  11  -2  -5   -0.04    0.59
 -11   2   5   -0.95    0.73
 -11   2   5   -0.61    0.52
  10  -2  -5    1.30    0.56
 -10   2   5    0.90    0.49
 -10   2   5    1.02    0.75
   9  -2  -5    0.39    0.48
  -9   2   5    0.55    0.47
  -9   2   5    0.01    0.75
   8  -2  -5   -0.10    0.42
   8  -2  -5   -0.08    0.24
  -8   2   5   -0.02    0.41
  -8   2   5   -0.13    0.55
   7  -2  -5   -0.01    0.38
  -7   2   5    0.40    0.40
  -7   2   5    0.47    0.57
  -7   2   5    0.49    0.25
   6  -2  -5    9.82    0.73
  -6   2   5    9.68    0.85
  -6   2   5   10.59    0.59
  -6   2   5    9.85    0.79
   5  -2  -5    2.47    0.37
  -5   2   5    2.61    0.50
  -5   2   5    2.77    0.42
  -5   2   5    2.64    0.44
  -5   2   5    2.74    0.41
   4  -2  -5    3.21    0.52
  -4   2   5    3.46    0.48
  -4   2   5    3.27    0.47
  -4   2   5    2.73    0.42
  -4   2   5    3.50    0.46
   3  -2  -5   87.69    3.36
   3  -2  -5   76.76    3.26
   3  -2  -5   76.93    3.33
  -3   2   5   79.36    3.25
  -3   2   5   74.73    3.28
  -3   2   5   75.51    3.29
  -3   2   5   80.11    3.27
   2  -2  -5    5.65    0.61
   2  -2  -5    5.85    0.70
  -2   2   5    6.31    0.69
  -2   2   5    5.88    0.59
  -2   2   5    5.70    0.52
  -2   2   5    5.48    0.56
  -2   2   5    6.49    0.63
   1  -2  -5   29.86    1.55
   1  -2  -5   34.65    1.50
  -1   2   5   31.11    1.42
  -1   2   5   30.66    1.51
  -1   2   5   29.66    1.44
  -1   2   5   33.94    1.51
   0  -2  -5  110.78    4.91
   0  -2  -5  129.98    4.87
   0   2   5  116.85    4.80
   0   2   5  115.02    4.87
   0   2   5  122.13    4.86
   0   2   5  115.69    4.90
  -1  -2  -5    4.21    0.42
  -1  -2  -5    5.16    0.62
   1   2   5    4.81    0.69
   1   2   5    4.78    0.36
   1   2   5    5.62    0.74
  -2  -2  -5   35.16    1.72
  -2  -2  -5   32.90    1.51
   2   2   5   35.93    1.70
   2   2   5   37.29    1.71
   2   2   5   37.18    1.47
  -3  -2  -5   15.14    1.09
   3   2   5   15.90    1.04
   3   2   5   15.98    1.11
  -4  -2  -5    1.61    0.52
   4   2   5    2.67    0.64
   4   2   5    2.61    0.56
  -5  -2  -5   15.17    1.15
   5   2   5   14.97    1.06
   5   2   5   15.49    1.18
  -6  -2  -5   -0.25    0.99
   6   2   5    0.23    1.08
   6   2   5   -0.01    0.52
  -7  -2  -5    0.78    0.64
   7   2   5   -0.06    0.84
   7   2   5    1.75    0.54
  -8  -2  -5    0.14    0.69
   8   2   5   -1.50    0.91
   8   2   5   -0.09    0.54
  -9  -2  -5    0.71    0.76
   9   2   5   -0.19    1.06
  13  -3  -5    0.06    0.78
 -13   3   5   -1.33    0.97
  12  -3  -5    0.49    0.73
 -12   3   5   -0.59    0.92
 -12   3   5    0.20    0.75
  11  -3  -5    0.02    0.64
 -11   3   5    0.06    0.58
 -11   3   5   -0.40    0.84
  10  -3  -5    0.39    0.55
 -10   3   5    0.27    0.52
 -10   3   5   -0.65    0.73
   9  -3  -5   -0.39    0.49
  -9   3   5   -0.32    0.49
  -9   3   5    0.05    0.64
   8  -3  -5    2.97    0.51
  -8   3   5    3.85    0.55
  -8   3   5    3.02    0.70
   7  -3  -5    0.29    0.41
  -7   3   5   -0.43    0.53
  -7   3   5    0.15    0.46
  -7   3   5    0.53    0.24
   6  -3  -5    5.79    0.70
  -6   3   5    5.31    0.88
  -6   3   5    6.29    0.47
  -6   3   5    5.56    0.76
   5  -3  -5   46.17    1.96
  -5   3   5   43.01    2.02
  -5   3   5   43.12    1.98
  -5   3   5   44.60    1.88
   4  -3  -5   16.75    0.93
   4  -3  -5   12.83    1.07
  -4   3   5   17.07    0.99
  -4   3   5   16.64    0.95
  -4   3   5   17.28    0.87
   3  -3  -5   39.23    1.77
   3  -3  -5   37.90    1.89
   3  -3  -5   42.92    1.89
  -3   3   5   39.20    1.78
  -3   3   5   42.53    1.78
  -3   3   5   37.72    1.79
   2  -3  -5   97.72    4.11
   2  -3  -5  105.21    4.11
  -2   3   5   94.89    4.07
  -2   3   5   96.57    4.05
  -2   3   5   97.98    4.07
  -2   3   5   94.05    4.02
   1  -3  -5   -0.75    0.35
   1  -3  -5   -0.48    0.46
  -1   3   5   -0.50    0.41
  -1   3   5    0.36    0.46
  -1   3   5   -0.28    0.36
   0  -3  -5   63.04    2.45
   0  -3  -5   56.00    2.57
   0   3   5   58.04    2.40
   0   3   5   56.52    2.54
   0   3   5   56.82    2.52
  -1  -3  -5   53.49    2.41
   1   3   5   54.37    2.18
   1   3   5   53.13    2.38
   1   3   5   52.79    2.37
  -2  -3  -5    6.19    0.87
   2   3   5    8.05    0.89
   2   3   5    7.96    0.84
  -3  -3  -5   26.66    1.44
   3   3   5   28.89    1.53
   3   3   5   28.40    1.46
  -4  -3  -5    1.57    0.63
   4   3   5    1.80    0.66
   4   3   5    1.75    0.55
   5   3   5    0.41    0.99
   5   3   5    0.25    0.55
  -6  -3  -5    3.01    0.72
   6   3   5    2.90    0.59
   6   3   5    2.91    0.80
  -7  -3  -5   -0.88    0.67
   7   3   5   -1.11    0.80
   7   3   5   -0.46    0.56
  -8  -3  -5    0.25    0.75
   8   3   5   -0.67    1.03
   8   3   5    0.12    0.58
  -9  -3  -5   -1.15    0.78
   9   3   5   -1.55    1.05
  12  -4  -5    0.23    0.77
 -12   4   5    0.18    0.69
 -12   4   5   -0.18    0.97
  11  -4  -5    0.37    0.70
 -11   4   5   -0.35    0.86
 -11   4   5   -0.26    0.62
  10  -4  -5    0.22    0.59
 -10   4   5   -0.50    0.79
  -9   4   5    1.45    0.59
  -9   4   5    0.98    0.75
   8  -4  -5    0.41    0.53
  -8   4   5    0.17    0.81
  -8   4   5    0.21    0.51
   7  -4  -5   11.92    0.95
  -7   4   5   11.69    0.63
  -7   4   5   11.14    0.95
  -7   4   5   10.99    1.03
   6  -4  -5    0.70    0.47
  -6   4   5    0.95    0.57
  -6   4   5    0.70    0.28
  -6   4   5    0.26    0.48
   5  -4  -5   18.35    1.06
  -5   4   5   18.48    1.10
  -5   4   5   17.50    1.12
  -5   4   5   17.62    0.91
   4  -4  -5   23.81    1.26
   4  -4  -5   22.51    1.21
  -4   4   5   22.49    1.11
  -4   4   5   20.34    1.21
  -4   4   5   22.04    1.23
   3  -4  -5    5.54    0.83
  -3   4   5    7.11    0.68
  -3   4   5    5.13    0.80
  -3   4   5    6.06    0.73
  -3   4   5    5.06    0.70
   2  -4  -5   20.67    1.22
   2  -4  -5   20.80    1.13
  -2   4   5   21.20    1.07
  -2   4   5   21.31    1.18
  -2   4   5   20.62    1.15
   1  -4  -5   32.93    1.45
   1  -4  -5   30.21    1.62
  -1   4   5   32.14    1.42
  -1   4   5   31.56    1.59
  -1   4   5   32.13    1.57
   0  -4  -5    0.75    0.26
   0  -4  -5    0.13    0.53
   0   4   5    0.84    0.24
   0   4   5    0.22    0.52
   0   4   5    0.35    0.51
  -1  -4  -5   57.46    2.27
  -1  -4  -5   54.43    2.52
   1   4   5   54.75    2.49
   1   4   5   57.40    2.27
   1   4   5   54.93    2.47
  -2  -4  -5    6.50    0.92
   2   4   5    6.57    0.92
   2   4   5    6.92    0.89
  -3  -4  -5    0.44    0.58
   3   4   5    0.45    0.60
   3   4   5    0.51    0.52
  -4  -4  -5   12.15    1.86
   4   4   5   15.83    1.13
  -5  -4  -5    0.17    0.71
   5   4   5   -0.15    0.57
   5   4   5   -0.36    0.74
  -6  -4  -5   -0.28    0.74
   6   4   5    0.26    0.81
   6   4   5    0.48    0.60
  -7  -4  -5    0.49    0.78
   7   4   5   -0.89    0.90
   7   4   5   -0.42    0.62
  -8  -4  -5    0.40    0.86
   8   4   5   -0.47    1.07
  12  -5  -5    0.96    0.80
 -12   5   5    0.31    0.76
 -12   5   5    0.32    0.92
  11  -5  -5    0.28    0.71
 -11   5   5   -0.64    0.94
 -11   5   5   -0.61    0.69
  10  -5  -5    1.69    0.68
 -10   5   5    0.78    0.69
 -10   5   5    0.48    0.80
   9  -5  -5    4.32    0.71
  -9   5   5    4.11    0.71
  -9   5   5    2.76    0.80
   8  -5  -5    4.13    0.78
  -8   5   5    3.37    0.78
   7  -5  -5    0.77    0.56
  -7   5   5    0.01    0.65
   6  -5  -5   17.62    1.14
  -6   5   5   18.71    0.92
  -6   5   5   17.52    1.17
  -6   5   5   16.83    1.21
   5  -5  -5    6.61    0.86
  -5   5   5    6.27    0.62
  -5   5   5    6.53    0.87
  -5   5   5    6.29    0.88
   4  -5  -5    5.05    0.80
  -4   5   5    5.56    0.78
  -4   5   5    5.53    0.76
   3  -5  -5   11.46    0.94
  -3   5   5    9.05    0.95
  -3   5   5    7.98    0.79
  -3   5   5    8.84    0.91
   2  -5  -5   -0.03    0.38
   2  -5  -5    0.61    0.53
  -2   5   5    0.10    0.37
  -2   5   5    0.20    0.53
  -2   5   5   -0.24    0.49
   1  -5  -5   40.28    1.65
   1  -5  -5   36.02    1.83
  -1   5   5   35.14    1.77
  -1   5   5   37.44    1.63
  -1   5   5   36.87    1.82
   0  -5  -5   16.28    1.21
   0  -5  -5   18.87    0.83
   0   5   5   17.25    0.82
   0   5   5   16.22    1.15
   0   5   5   17.17    1.13
  -1  -5  -5    0.80    0.65
   1   5   5    1.04    0.60
   1   5   5    1.21    0.61
  -2  -5  -5    8.80    1.07
   2   5   5   10.37    1.00
   2   5   5    8.87    0.99
  -3  -5  -5    4.19    0.78
   3   5   5    3.69    0.71
   3   5   5    4.61    0.66
  -4  -5  -5    0.09    0.72
   4   5   5    0.97    0.59
   4   5   5    0.18    0.71
  -5  -5  -5    5.91    0.89
   5   5   5    5.73    0.73
   5   5   5    4.55    0.90
  -6  -5  -5   -0.27    0.80
   6   5   5    0.42    0.92
   6   5   5   -0.19    0.74
  -7  -5  -5   -0.04    0.89
   7   5   5   -0.45    0.99
  11  -6  -5    0.21    0.80
 -11   6   5   -1.27    0.97
 -11   6   5    0.00    0.76
  10  -6  -5    1.64    0.78
 -10   6   5   -0.43    0.91
 -10   6   5    0.28    0.71
   9  -6  -5    0.00    0.69
  -9   6   5   -0.32    0.83
  -9   6   5    0.23    0.66
   8  -6  -5    2.79    0.69
  -8   6   5    2.16    0.70
  -8   6   5    2.26    0.82
   7  -6  -5    1.41    0.61
  -7   6   5    0.46    0.80
  -7   6   5    0.46    0.61
  -6   6   5    3.66    0.70
  -6   6   5    2.81    0.70
   5  -6  -5    6.22    0.91
  -5   6   5    5.44    0.93
  -4   6   5    0.70    0.60
  -4   6   5    1.12    0.57
  -4   6   5    0.17    0.49
  -3   6   5   27.48    1.51
  -3   6   5   26.22    1.36
  -3   6   5   26.57    1.51
  -2   6   5    1.14    0.61
  -2   6   5    0.98    0.40
  -2   6   5    0.52    0.58
   1  -6  -5    7.38    1.10
  -1   6   5    5.98    0.74
  -1   6   5    6.10    0.77
  -1   6   5    6.72    0.62
   0  -6  -5   26.28    1.66
   0   6   5   25.38    1.71
   0   6   5   27.16    1.16
   0   6   5   26.18    1.53
  -1  -6  -5    2.71    0.81
   1   6   5    2.54    0.69
   1   6   5    2.16    0.65
  -2  -6  -5   11.15    1.27
   2   6   5   12.16    1.12
   2   6   5   11.19    1.24
  -3  -6  -5    2.16    0.77
   3   6   5    2.95    0.84
   3   6   5    2.70    0.66
  -4  -6  -5   -0.10    0.84
   4   6   5    0.80    0.77
  -5  -6  -5    0.22    0.81
   5   6   5    0.89    0.71
   5   6   5    1.27    0.93
  -6  -6  -5   -0.40    0.89
   6   6   5   -0.58    0.99
   6   6   5   -0.83    0.95
  10  -7  -5    0.58    0.80
 -10   7   5   -1.29    0.91
 -10   7   5    0.34    0.79
   9  -7  -5    1.59    0.79
  -9   7   5    0.51    0.87
  -9   7   5    1.07    0.75
   8  -7  -5    2.27    0.78
  -8   7   5    1.08    0.85
  -8   7   5    1.67    0.77
   7  -7  -5    3.11    0.74
  -7   7   5    2.77    0.73
  -7   7   5    2.29    0.77
   6  -7  -5    1.06    0.68
  -6   7   5    0.02    0.71
   5  -7  -5    5.17    0.76
  -5   7   5    5.52    0.72
  -5   7   5    4.32    0.77
  -4   7   5    1.26    0.67
  -2   7   5   22.14    1.20
  -2   7   5   24.56    1.52
  -2   7   5   20.49    1.41
  -1   7   5    1.07    0.66
  -1   7   5    0.71    0.68
  -1   7   5    1.03    0.36
   0  -7  -5    3.27    1.04
   0   7   5    2.04    0.72
   0   7   5    1.94    0.73
  -1  -7  -5    8.57    1.49
   1   7   5    7.90    1.30
   1   7   5    6.08    0.82
  -2  -7  -5    1.55    0.91
   2   7   5    0.90    0.80
   2   7   5    1.04    0.72
  -3  -7  -5    4.31    0.98
   3   7   5    3.49    0.96
   3   7   5    4.43    0.79
  -4  -7  -5    1.21    0.98
   4   7   5    0.95    0.75
   4   7   5    0.96    0.91
  -5  -7  -5   -1.04    0.93
   5   7   5    0.57    0.97
   5   7   5   -0.02    0.78
   9  -8  -5   -0.14    0.80
  -9   8   5    0.03    0.93
  -9   8   5   -0.33    0.89
   8  -8  -5    0.00    0.80
  -8   8   5   -1.17    0.80
  -8   8   5   -0.24    0.89
   7  -8  -5    2.98    0.83
  -7   8   5    1.65    0.86
  -7   8   5    1.11    0.84
   6  -8  -5   -0.05    0.70
  -6   8   5   -0.02    0.72
  -6   8   5   -0.62    0.73
  -5   8   5   -0.02    0.82
  -5   8   5    0.12    0.69
  -5   8   5    0.04    0.71
  -4   8   5    4.34    0.67
  -4   8   5    4.77    0.87
  -4   8   5    4.18    0.79
   3  -8  -5    2.46    0.93
  -3   8   5   -0.24    0.75
  -3   8   5   -0.06    0.52
  -3   8   5    0.62    0.73
  -2   8   5    3.58    0.76
  -2   8   5    3.21    0.80
  -1   8   5    8.19    1.23
  -1   8   5    5.67    0.86
   0  -8  -5    3.38    1.03
   0   8   5    0.49    0.79
   0   8   5    1.61    0.87
  -1  -8  -5    6.72    1.17
   1   8   5    5.17    0.91
   1   8   5    6.28    1.03
  -2  -8  -5    0.69    0.99
   2   8   5    1.15    0.78
   2   8   5    0.76    0.91
  -3  -8  -5   -0.87    1.01
   3   8   5    0.28    0.79
   3   8   5    0.35    0.92
  -4  -8  -5   -0.67    1.05
   4   8   5    0.40    1.05
   4   8   5    0.28    0.86
   8  -9  -5    1.32    0.88
  -8   9   5   -0.83    0.94
  -8   9   5   -0.55    0.94
   7  -9  -5    1.03    0.85
  -7   9   5   -0.02    0.83
  -7   9   5    0.32    0.88
  -6   9   5    0.79    0.81
  -6   9   5    1.36    0.81
  -6   9   5    1.02    0.90
  -5   9   5    1.18    0.83
  -5   9   5    1.73    0.92
  -5   9   5    1.34    0.74
  -4   9   5   -0.15    0.65
  -4   9   5   -0.32    0.78
  -4   9   5    0.11    0.77
   3  -9  -5    8.54    1.35
  -3   9   5    6.28    0.98
  -3   9   5    4.34    0.89
   2  -9  -5    1.89    1.09
  -2   9   5    1.22    0.81
  -2   9   5    0.00    0.85
   1  -9  -5    3.23    1.16
  -1   9   5    0.21    0.80
  -1   9   5    1.19    0.84
   0  -9  -5    3.71    1.22
   0   9   5    2.62    0.92
   0   9   5    2.61    0.93
  -1  -9  -5   -0.83    1.14
   1   9   5   -1.05    0.90
   1   9   5    0.17    0.88
  -2  -9  -5   -0.82    1.15
   2   9   5    1.61    0.90
   2   9   5    1.01    1.03
  -5  10   5    0.14    0.93
  -5  10   5   -0.76    1.28
  -4  10   5    0.42    0.94
  -4  10   5    1.47    0.87
  -3  10   5    0.33    0.95
  -3  10   5    1.29    0.91
   2 -10  -5    0.84    1.25
  -2  10   5    0.88    1.06
  -2  10   5    0.69    0.91
   4  13  -6    0.52    0.92
   3  13  -6    0.42    0.80
   3  13  -6    0.87    0.94
   2  13  -6    0.18    0.86
   2  13  -6   -0.09    0.78
   1  13  -6    1.39    0.63
   1  13  -6    2.16    0.85
   1  13  -6    2.00    0.84
   0  13  -6    0.32    0.77
   0  13  -6    0.53    0.63
   0  13  -6    0.45    0.88
   0  13  -6    0.67    0.82
  -1  13  -6   -0.30    0.64
  -1  13  -6    0.68    0.82
  -1  13  -6    0.16    0.73
  -1  13  -6    0.01    0.79
  -2  13  -6    3.60    0.91
  -2  13  -6    1.32    0.74
  -2  13  -6    3.57    0.73
  -2  13  -6    2.57    0.83
  -3  13  -6    2.84    0.94
  -3  13  -6    0.78    0.80
  -4  13  -6    0.83    0.97
   4 -13   6    2.92    0.95
   5 -13   6    3.69    0.87
   5 -13   6    3.37    1.07
   6  12  -6    4.71    1.61
   5  12  -6    0.41    0.89
   4  12  -6    1.48    0.85
  -4 -12   6    1.28    0.70
   3  12  -6    3.89    0.79
   3  12  -6    5.42    0.90
   2  12  -6    0.99    0.51
   2  12  -6    0.74    0.65
   2  12  -6    0.96    0.75
   1  12  -6    0.21    0.52
   1  12  -6    0.14    0.70
   1  12  -6    1.11    0.65
   1  12  -6    0.71    0.71
   0  12  -6    2.03    0.71
   0  12  -6    1.59    0.65
   0  12  -6    1.06    0.71
  -1  12  -6    1.16    0.66
  -1  12  -6    0.91    0.75
  -2  12  -6    0.37    0.73
  -2  12  -6    0.33    0.58
  -2  12  -6   -0.64    0.63
   2 -12   6    2.38    0.68
  -3  12  -6    2.05    0.82
  -3  12  -6    2.21    0.60
   3 -12   6    3.62    0.88
   3 -12   6    3.48    0.71
  -4  12  -6    0.06    0.87
   4 -12   6    1.83    0.72
   4 -12   6    2.66    0.86
   5 -12   6    2.53    0.79
   5 -12   6    3.87    0.96
   7  11  -6    0.31    1.02
   6  11  -6    0.60    0.90
   5  11  -6    1.77    0.91
   5  11  -6    0.91    0.81
  -5 -11   6    2.02    0.76
   4  11  -6    1.05    0.82
   4  11  -6   -0.37    0.58
  -4 -11   6    1.08    0.64
   3  11  -6    0.56    0.57
   3  11  -6    0.65    0.74
   3  11  -6    0.49    0.40
  -3 -11   6    1.38    0.61
   2  11  -6    2.10    0.46
   2  11  -6    2.46    0.57
   2  11  -6    2.77    0.71
  -2 -11   6    3.08    0.63
   1  11  -6    0.17    0.53
   1  11  -6   -0.06    0.47
  -1 -11   6    1.03    0.72
   0  11  -6    3.98    0.60
   0  11  -6    2.89    0.84
   0  11  -6    4.22    0.66
   0 -11   6    6.41    0.90
  -1  11  -6    2.15    0.70
  -1  11  -6    1.53    0.59
  -1  11  -6    2.11    0.56
   1 -11   6    3.30    0.56
  -2  11  -6    0.92    0.70
  -2  11  -6    1.39    0.53
   2 -11   6    2.53    0.62
   2 -11   6    2.06    0.56
  -3  11  -6    0.18    0.71
   3 -11   6    1.84    0.64
   3 -11   6    2.55    0.64
  -4  11  -6   -0.04    0.76
  -4  11  -6    0.30    0.54
   4 -11   6    1.73    0.67
  -8  11  -6   -0.60    0.87
   8 -11   6    2.30    1.49
   8 -11   6    0.96    0.84
   8  10  -6    0.05    1.00
   7  10  -6   -0.68    0.85
  -7 -10   6    1.77    0.73
   6  10  -6    0.87    0.87
   6  10  -6    0.05    0.63
  -6 -10   6    1.38    0.67
   5  10  -6    0.02    0.55
   5  10  -6    0.42    0.74
  -5 -10   6    1.82    0.58
   4  10  -6    3.30    0.55
   4  10  -6    3.54    0.56
   4  10  -6    4.13    0.78
  -4 -10   6    4.39    0.62
   3  10  -6   -0.19    0.45
   3  10  -6    0.21    0.66
   3  10  -6   -0.13    0.35
  -3 -10   6    1.44    0.56
   2  10  -6    2.96    0.61
   2  10  -6    2.70    0.49
   1  10  -6    5.26    0.76
   1  10  -6    5.10    0.69
  -1 -10   6    6.08    0.75
  -1 -10   6    6.06    0.87
   0  10  -6    1.99    0.47
   0  10  -6    1.73    0.55
   0 -10   6    2.79    0.48
   0 -10   6    2.42    0.59
  -1  10  -6   11.75    0.96
   1 -10   6   11.60    0.93
   1 -10   6   12.86    1.07
   1 -10   6   13.12    0.94
  -2  10  -6    0.10    0.47
  -2  10  -6    0.11    0.98
   2 -10   6    1.33    0.47
   2 -10   6    1.51    0.53
  -3  10  -6    0.20    0.48
  -3  10  -6    0.02    0.65
   3 -10   6    1.90    1.02
  -4  10  -6    0.41    0.50
  -4  10  -6    0.18    0.64
   4 -10   6    1.09    0.54
   4 -10   6    2.49    0.66
   5 -10   6    1.01    0.59
  -6  10  -6    0.43    0.81
   6 -10   6    0.63    0.69
   6 -10   6    4.41    1.05
  -7  10  -6   -0.60    0.84
   7 -10   6    1.14    0.73
   7 -10   6    4.20    1.17
  -8  10  -6    0.38    0.84
   8 -10   6    0.57    0.79
   8 -10   6    0.74    1.28
  -9  10  -6   -0.10    0.89
   9 -10   6    0.72    0.77
   9   9  -6    0.96    0.96
   8   9  -6    0.26    1.08
   8   9  -6    1.21    0.92
  -8  -9   6    2.89    0.79
   7   9  -6   -0.58    0.61
   7   9  -6   -0.23    0.76
  -7  -9   6    1.59    0.67
   6   9  -6    0.39    0.75
   5   9  -6    0.56    0.69
   5   9  -6    0.28    0.47
  -5  -9   6    1.67    0.57
   4   9  -6    5.26    1.13
   4   9  -6    4.67    0.73
   4   9  -6    4.49    0.48
  -4  -9   6    6.98    0.89
   3   9  -6    3.54    0.58
   3   9  -6    3.68    0.46
   3   9  -6    3.74    0.61
   2   9  -6    2.35    0.33
   2   9  -6    2.41    0.55
   2   9  -6    2.26    0.40
  -2  -9   6    3.33    0.54
  -2  -9   6    3.03    0.38
   1   9  -6   28.96    1.50
   1   9  -6   28.41    1.38
   1   9  -6   30.85    1.34
  -1  -9   6   30.06    1.53
  -1  -9   6   30.53    1.40
   0   9  -6    1.99    0.39
   0   9  -6    2.26    0.34
   0   9  -6    2.65    0.52
   0  -9   6    2.38    0.50
  -1   9  -6    0.50    0.32
  -1   9  -6   -0.15    0.44
   1  -9   6    0.60    0.52
   1  -9   6    0.42    0.35
   1  -9   6    1.38    0.47
  -2   9  -6    1.76    0.46
  -2   9  -6    1.34    0.55
   2  -9   6    2.75    0.49
  -3   9  -6    2.43    0.50
  -3   9  -6    2.37    0.62
   3  -9   6    3.71    0.59
  -4   9  -6    4.79    0.78
   4  -9   6    6.58    0.94
  -5   9  -6    0.52    0.46
  -5   9  -6    0.03    0.64
   5  -9   6    1.16    0.61
   6  -9   6    1.52    0.66
  -7   9  -6   -0.11    0.76
   7  -9   6    1.27    0.68
   7  -9   6    2.97    0.94
  -8   9  -6    0.59    0.78
   8  -9   6   -0.46    1.05
   8  -9   6    0.38    0.70
  -9   9  -6   -0.58    0.84
   9  -9   6    1.05    0.72
  10   8  -6    0.53    0.90
   9   8  -6   -0.07    0.67
   9   8  -6    0.30    0.82
   8   8  -6   -0.14    0.80
   8   8  -6   -0.34    0.55
   7   8  -6    0.08    0.50
   7   8  -6    0.16    0.72
   6   8  -6    4.34    0.53
   6   8  -6    4.58    0.74
   5   8  -6   13.08    0.89
   5   8  -6   13.02    0.64
   5   8  -6   13.64    1.13
  -5  -8   6   16.82    1.08
   4   8  -6    0.41    0.28
   4   8  -6    0.49    0.51
   4   8  -6    0.51    0.28
   4   8  -6    0.85    0.35
  -4  -8   6    1.64    0.52
   3   8  -6   26.58    1.40
   3   8  -6   25.29    1.16
   3   8  -6   25.43    1.23
   3   8  -6   26.95    1.20
  -3  -8   6   26.93    1.39
  -3  -8   6   26.16    1.18
   2   8  -6    0.94    0.50
   2   8  -6    1.65    0.35
  -2  -8   6    2.01    0.49
  -2  -8   6    1.68    0.34
   1   8  -6    2.53    0.29
   1   8  -6    2.21    0.47
  -1  -8   6    3.08    0.52
   0   8  -6   74.49    3.11
   0   8  -6   74.55    3.02
   0  -8   6   70.46    3.13
   0  -8   6   73.71    3.08
  -1   8  -6    8.09    0.56
  -1   8  -6    7.03    0.76
   1  -8   6    7.70    0.84
   1  -8   6    8.64    0.76
   1  -8   6    7.61    0.60
  -2   8  -6    5.42    0.56
  -2   8  -6    5.43    0.73
   2  -8   6    5.87    0.68
   2  -8   6    6.33    0.74
   2  -8   6    7.01    0.66
  -3   8  -6   10.33    0.90
  -3   8  -6   11.27    0.85
   3  -8   6   11.70    0.91
  -4   8  -6   10.51    1.03
  -4   8  -6   11.66    0.89
   4  -8   6   13.03    0.97
  -5   8  -6    5.95    0.98
  -5   8  -6    5.78    0.77
   5  -8   6    6.73    0.79
  -6   8  -6    0.32    0.42
  -6   8  -6    0.15    0.63
   6  -8   6    0.73    0.59
  -7   8  -6    1.12    0.68
  -7   8  -6    1.32    0.61
   7  -8   6    1.38    1.29
   7  -8   6    1.29    0.60
  -8   8  -6    0.11    0.71
   8  -8   6    0.27    0.65
  -9   8  -6   -0.01    0.76
   9  -8   6    0.21    0.68
 -10   8  -6   -1.25    0.79
  10  -8   6    1.04    0.81
  11   7  -6    1.10    0.92
  10   7  -6    0.58    0.86
  10   7  -6    0.42    0.68
 -10  -7   6    1.50    0.89
   9   7  -6   -0.08    0.57
   9   7  -6    0.45    0.73
   8   7  -6    1.65    0.74
   8   7  -6    0.96    0.48
   7   7  -6    6.39    0.76
   7   7  -6    4.78    0.76
   6   7  -6    1.33    0.39
   6   7  -6    1.89    0.64
  -6  -7   6    2.87    0.57
   5   7  -6   15.87    0.82
   5   7  -6   14.97    0.68
   5   7  -6   14.72    0.87
   5   7  -6   15.41    1.09
  -5  -7   6   17.22    1.07
   4   7  -6    2.28    0.40
   4   7  -6    2.86    0.46
   4   7  -6    3.03    0.42
   4   7  -6    2.25    0.51
  -4  -7   6    3.23    0.36
  -4  -7   6    3.23    0.53
   3   7  -6    5.60    0.43
   3   7  -6    6.90    0.54
   3   7  -6    7.35    0.82
   3   7  -6    6.49    0.49
  -3  -7   6    7.04    0.78
  -3  -7   6    7.46    0.54
   2   7  -6   60.36    2.48
   2   7  -6   61.00    2.60
   2   7  -6   59.79    2.51
   2   7  -6   60.03    2.46
  -2  -7   6   58.80    2.60
  -2  -7   6   60.59    2.51
   1   7  -6    1.25    0.34
   1   7  -6    0.99    0.24
   1   7  -6    1.17    0.21
   1   7  -6    1.24    0.44
  -1  -7   6    0.91    0.42
  -1  -7   6    1.94    0.36
   0   7  -6    9.25    0.53
   0   7  -6    9.42    0.75
   0  -7   6   10.30    0.72
   0  -7   6    8.75    0.54
   0  -7   6    9.02    0.80
  -1   7  -6   24.30    1.22
  -1   7  -6   24.44    1.10
   1  -7   6   23.97    1.27
   1  -7   6   25.16    1.23
  -2   7  -6   15.34    0.81
  -2   7  -6   14.91    0.96
   2  -7   6   14.92    0.96
   2  -7   6   16.88    0.88
   2  -7   6   14.33    0.99
  -3   7  -6   19.70    1.08
  -3   7  -6   18.67    0.98
   3  -7   6   18.28    1.04
   3  -7   6   18.85    1.13
  -4   7  -6    1.06    0.44
  -4   7  -6    1.05    0.52
   4  -7   6    1.00    0.44
   4  -7   6    0.87    0.53
  -5   7  -6    2.93    0.49
  -5   7  -6    3.15    0.59
   5  -7   6    2.71    0.47
   5  -7   6    3.37    0.56
   5  -7   6    4.96    0.74
  -6   7  -6    5.20    0.72
  -6   7  -6    5.26    0.83
   6  -7   6    3.85    0.96
   6  -7   6    4.37    0.62
  -7   7  -6    0.73    0.41
  -7   7  -6    1.22    0.64
   7  -7   6    0.71    0.55
   7  -7   6   -0.61    0.63
  -8   7  -6   -0.23    0.61
   8  -7   6    0.42    0.65
  -9   7  -6    0.29    0.66
   9  -7   6    0.16    0.65
 -10   7  -6    0.18    0.75
  10  -7   6    0.41    0.75
  11   6  -6    1.06    0.83
  11   6  -6   -0.27    0.68
  10   6  -6    0.82    0.76
  10   6  -6    0.67    0.59
   9   6  -6    3.19    0.55
   9   6  -6    4.20    0.79
  -9  -6   6    1.73    0.80
   8   6  -6    0.13    0.43
  -8  -6   6    1.05    0.68
   7   6  -6   18.98    1.07
   7   6  -6   20.17    1.29
  -7  -6   6   21.79    1.37
   6   6  -6    0.06    0.30
   6   6  -6    0.14    0.54
  -6  -6   6    0.67    0.53
  -6  -6   6    0.42    0.33
   5   6  -6    0.66    0.51
   5   6  -6    0.50    0.26
  -5  -6   6    0.41    0.14
  -5  -6   6    0.89    0.48
   4   6  -6   91.87    3.67
   4   6  -6   89.75    3.69
   4   6  -6   92.65    3.80
   4   6  -6   88.34    3.67
  -4  -6   6   86.31    3.80
  -4  -6   6   93.27    3.67
   3   6  -6    4.05    0.68
   3   6  -6    4.34    0.33
   3   6  -6    3.99    0.45
  -3  -6   6    4.45    0.71
   2   6  -6   40.34    1.65
   2   6  -6   40.17    1.66
   2   6  -6   40.06    1.74
   2   6  -6   40.99    1.82
  -2  -6   6   39.17    1.84
  -2  -6   6   42.35    1.74
   1   6  -6   58.75    2.40
   1   6  -6   59.38    2.47
   1   6  -6   58.40    2.51
   1   6  -6   59.27    2.39
  -1  -6   6   57.95    2.54
  -1  -6   6   59.66    2.47
   0   6  -6   36.45    1.47
   0   6  -6   35.97    1.60
   0   6  -6   36.53    1.56
   0  -6   6   34.90    1.57
   0  -6   6   33.54    1.59
   0  -6   6   33.78    1.47
  -1   6  -6   55.40    2.24
  -1   6  -6   53.30    2.33
   1  -6   6   53.45    2.34
   1  -6   6   55.65    2.25
   1  -6   6   52.58    2.31
  -2   6  -6    1.46    0.40
  -2   6  -6    1.40    0.29
   2  -6   6    1.25    0.35
   2  -6   6    1.81    0.42
   2  -6   6    1.36    0.43
  -3   6  -6    6.17    0.58
  -3   6  -6    5.67    0.72
   3  -6   6    6.27    0.75
   3  -6   6    5.29    0.58
   3  -6   6    5.88    0.63
  -4   6  -6   18.09    1.09
  -4   6  -6   17.82    1.09
   4  -6   6   20.76    1.07
   4  -6   6   17.73    1.08
   4  -6   6   19.13    1.08
  -5   6  -6    4.34    0.50
  -5   6  -6    4.75    0.59
   5  -6   6    4.61    0.75
   5  -6   6    3.93    0.55
  -6   6  -6    0.15    0.42
  -6   6  -6    0.90    0.53
   6  -6   6    0.56    0.49
  -7   6  -6    2.57    0.59
  -7   6  -6    2.52    0.46
   7  -6   6    2.73    0.59
  -8   6  -6    0.34    0.60
  -8   6  -6    0.68    0.44
   8  -6   6    0.35    0.56
  -9   6  -6   -0.07    0.62
   9  -6   6    0.10    0.62
 -10   6  -6   -0.46    0.65
  10  -6   6    0.14    0.73
  10  -6   6   -1.73    0.86
  12   5  -6    0.17    0.82
  12   5  -6    0.25    1.03
  11   5  -6    0.39    1.14
  11   5  -6    0.75    0.73
  10   5  -6    0.12    0.52
  10   5  -6    1.04    0.69
   9   5  -6    1.14    0.46
   8   5  -6   -0.14    0.37
   8   5  -6    0.01    0.57
  -8  -5   6   -0.12    0.75
   7   5  -6    0.37    0.54
   7   5  -6    0.08    0.33
  -7  -5   6   -0.41    0.47
  -7  -5   6   -0.66    0.62
   6   5  -6   34.71    1.71
  -6  -5   6   34.12    1.81
  -6  -5   6   38.13    1.61
   5   5  -6    0.36    0.22
   5   5  -6    0.71    0.20
   5   5  -6    0.54    0.46
  -5  -5   6    0.28    0.53
  -5  -5   6    0.53    0.24
   4   5  -6   34.99    1.50
   4   5  -6   33.65    1.43
   4   5  -6   35.12    1.43
   4   5  -6   35.12    1.62
  -4  -5   6   37.13    1.48
  -4  -5   6   32.24    1.67
   3   5  -6   28.61    1.25
   3   5  -6   28.78    1.35
  -3  -5   6   26.73    1.38
   2   5  -6   20.03    1.03
   2   5  -6   19.52    0.94
  -2  -5   6   19.74    0.94
  -2  -5   6   18.82    1.06
   1   5  -6   98.67    3.93
   1   5  -6   96.51    3.96
  -1  -5   6   95.72    3.93
  -1  -5   6   92.11    3.96
   0   5  -6    4.28    0.51
   0   5  -6    4.24    0.33
   0   5  -6    5.04    0.60
   0  -5   6    4.56    0.53
   0  -5   6    4.19    0.51
   0  -5   6    4.07    0.61
   0  -5   6    4.17    0.31
  -1   5  -6    5.49    0.61
  -1   5  -6    5.38    0.42
   1  -5   6    5.14    0.57
   1  -5   6    4.61    0.59
   1  -5   6    4.98    0.54
  -2   5  -6   62.55    2.52
  -2   5  -6   57.72    2.58
   2  -5   6   58.87    2.58
   2  -5   6   61.53    2.59
   2  -5   6   62.58    2.57
  -3   5  -6    2.91    0.49
  -3   5  -6    3.02    0.51
   3  -5   6    3.10    0.46
   3  -5   6    2.64    0.44
   3  -5   6    2.31    0.44
   3  -5   6    2.45    0.37
  -4   5  -6    0.88    0.45
  -4   5  -6    0.44    0.42
   4  -5   6    0.26    0.39
   4  -5   6   -0.11    0.42
  -5   5  -6    6.47    0.72
  -5   5  -6    6.28    0.74
   5  -5   6    5.10    0.62
   5  -5   6    6.36    0.74
  -6   5  -6    5.54    0.79
  -6   5  -6    5.99    0.77
   6  -5   6    4.29    0.72
   6  -5   6    6.80    0.79
  -7   5  -6    2.42    0.48
  -7   5  -6    2.68    0.54
   7  -5   6    1.04    0.69
   7  -5   6    2.73    0.58
  -8   5  -6    3.30    0.51
  -8   5  -6    2.34    0.55
   8  -5   6    2.18    0.80
   8  -5   6    3.23    0.60
  -9   5  -6    0.25    0.57
  -9   5  -6    0.61    0.52
   9  -5   6    0.28    0.61
   9  -5   6   -0.69    0.81
 -10   5  -6   -0.52    0.62
  10  -5   6    0.00    0.67
  10  -5   6   -1.21    0.82
  11  -5   6   -0.97    0.96
  12   4  -6    0.89    0.77
  12   4  -6    0.27    0.66
 -12  -4   6    1.98    1.14
  11   4  -6    0.76    0.60
  11   4  -6    0.30    0.68
 -11  -4   6   -1.19    0.92
  10   4  -6    0.70    0.51
   9   4  -6    0.00    0.54
   9   4  -6    0.08    0.43
   8   4  -6   26.97    1.38
   8   4  -6   24.67    1.25
  -8  -4   6   24.22    1.62
   7   4  -6    4.01    0.56
   7   4  -6    4.06    0.54
  -7  -4   6    3.65    0.58
  -7  -4   6    3.49    0.74
   6   4  -6    9.37    0.79
   6   4  -6    9.02    0.64
  -6  -4   6    8.38    0.75
  -6  -4   6    7.34    1.01
   5   4  -6   51.04    2.26
   5   4  -6   49.80    2.14
   5   4  -6   52.05    2.14
  -5  -4   6   55.97    2.15
  -5  -4   6   50.13    2.35
  -5  -4   6   53.22    2.18
   4   4  -6   15.93    0.93
   4   4  -6   15.69    0.69
   4   4  -6   17.37    0.82
  -4  -4   6   18.51    0.79
  -4  -4   6   14.27    1.01
  -4  -4   6   15.92    0.70
   3   4  -6  157.49    6.11
   3   4  -6  148.69    6.13
  -3  -4   6  145.31    6.15
   2   4  -6   23.76    1.15
   2   4  -6   23.89    1.10
   2   4  -6   25.24    1.18
  -2  -4   6   23.35    1.10
  -2  -4   6   22.48    1.15
  -2  -4   6   23.45    1.10
   1   4  -6    0.42    0.35
   1   4  -6    0.17    0.30
   1   4  -6    0.13    0.29
  -1  -4   6   -0.34    0.29
  -1  -4   6   -0.24    0.34
  -1  -4   6   -0.22    0.30
   0   4  -6  108.56    4.31
   0   4  -6  108.35    4.38
   0   4  -6   98.68    4.38
   0   4  -6  104.97    4.37
   0  -4   6  105.01    4.38
   0  -4   6  110.36    4.30
   0  -4   6  111.57    4.38
   0  -4   6  106.18    4.39
  -1   4  -6    2.71    0.34
  -1   4  -6    2.60    0.39
  -1   4  -6    1.95    0.33
  -1   4  -6    2.50    0.41
   1  -4   6    1.87    0.35
   1  -4   6    1.78    0.37
   1  -4   6    2.53    0.41
  -2   4  -6    1.66    0.43
  -2   4  -6    2.61    0.42
   2  -4   6    1.85    0.45
   2  -4   6    0.92    0.36
   2  -4   6    1.91    0.36
  -3   4  -6    4.60    0.54
  -3   4  -6    3.84    0.52
   3  -4   6    2.59    0.43
   3  -4   6    3.43    0.59
   3  -4   6    4.27    0.64
  -4   4  -6    5.50    0.64
  -4   4  -6    5.10    0.70
   4  -4   6    4.91    0.58
   4  -4   6    5.40    0.69
  -5   4  -6    6.22    0.77
  -5   4  -6    7.18    0.69
   5  -4   6    6.51    0.74
   5  -4   6    5.00    0.84
  -6   4  -6   -0.42    0.44
  -6   4  -6    0.34    0.41
   6  -4   6   -0.03    0.43
  -7   4  -6    1.33    0.47
  -7   4  -6    1.01    0.47
   7  -4   6    0.31    0.64
   7  -4   6    0.99    0.51
  -8   4  -6    0.79    0.48
  -8   4  -6    0.64    0.50
   8  -4   6    1.47    0.58
   8  -4   6   -0.71    0.67
  -9   4  -6    0.18    0.52
  -9   4  -6   -0.24    0.54
   9  -4   6   -1.07    0.76
   9  -4   6    0.20    0.61
 -10   4  -6    2.00    0.66
  10  -4   6   -0.03    0.89
  10  -4   6    2.34    0.72
  11  -4   6   -1.17    0.97
  12   3  -6    0.54    0.64
  12   3  -6    0.11    0.67
 -12  -3   6   -0.50    0.87
  11   3  -6   -0.53    0.78
  11   3  -6    0.19    0.55
 -11  -3   6   -1.62    0.78
  10   3  -6    0.57    0.57
  10   3  -6    0.71    0.47
 -10  -3   6   -0.79    0.87
   9   3  -6    1.67    0.54
   9   3  -6    2.11    0.43
  -9  -3   6    0.00    0.75
   8   3  -6    0.16    0.45
   8   3  -6    0.07    0.34
  -8  -3   6   -0.90    0.64
   7   3  -6   21.65    1.02
   7   3  -6   21.47    1.14
  -7  -3   6   21.58    0.91
  -7  -3   6   19.54    1.29
   6   3  -6    0.69    0.29
   6   3  -6    1.05    0.20
   6   3  -6    0.91    0.42
  -6  -3   6    0.32    0.54
   5   3  -6   22.99    0.96
   5   3  -6   22.29    0.93
   5   3  -6   22.57    1.10
  -5  -3   6   18.85    1.06
  -5  -3   6   19.73    1.03
  -5  -3   6   22.01    1.20
   4   3  -6   24.19    1.16
   4   3  -6   25.74    1.08
   4   3  -6   22.64    0.98
  -4  -3   6   22.18    1.15
  -4  -3   6   24.04    1.03
  -4  -3   6   22.94    1.21
   3   3  -6   11.35    0.73
   3   3  -6   12.60    0.65
   3   3  -6   12.26    0.74
  -3  -3   6    9.40    0.71
  -3  -3   6   10.80    0.66
  -3  -3   6    9.85    0.73
   2   3  -6  137.34    5.49
   2   3  -6  133.85    5.51
   2   3  -6  134.76    5.51
  -2  -3   6  132.89    5.52
  -2  -3   6  132.77    5.49
  -2  -3   6  137.71    5.51
   1   3  -6    0.46    0.33
   1   3  -6    0.54    0.32
   1   3  -6    0.58    0.30
  -1  -3   6    0.32    0.09
  -1  -3   6    0.03    0.33
  -1  -3   6    0.04    0.32
  -1  -3   6   -0.28    0.34
   0   3  -6   48.20    2.10
   0   3  -6   48.89    2.06
   0   3  -6   49.17    2.02
   0   3  -6   49.42    2.08
   0  -3   6   52.75    2.11
   0  -3   6   48.23    2.08
   0  -3   6   46.23    2.02
   0  -3   6   46.81    2.10
  -1   3  -6   10.54    0.71
  -1   3  -6   10.61    0.63
  -1   3  -6   10.44    0.78
  -1   3  -6   10.83    0.55
   1  -3   6   10.43    0.68
   1  -3   6   10.80    0.78
   1  -3   6    8.92    0.68
  -2   3  -6    0.44    0.43
  -2   3  -6    0.71    0.28
  -2   3  -6    0.52    0.27
   2  -3   6    0.97    0.34
   2  -3   6    0.27    0.39
   2  -3   6   -0.48    0.36
   2  -3   6    0.36    0.48
  -3   3  -6   14.86    0.76
  -3   3  -6   13.27    0.93
  -3   3  -6   15.32    0.81
   3  -3   6   13.16    0.90
   3  -3   6   14.09    0.81
   3  -3   6   12.59    0.89
  -4   3  -6    3.44    0.55
  -4   3  -6    4.47    0.57
   4  -3   6    3.51    0.56
   4  -3   6    4.20    0.52
  -5   3  -6    0.23    0.48
  -5   3  -6    0.20    0.35
   5  -3   6   -0.71    0.52
   5  -3   6    0.30    0.46
  -6   3  -6    5.01    0.79
  -6   3  -6    4.45    0.66
   6  -3   6    3.40    0.64
   6  -3   6    4.54    0.74
  -7   3  -6    1.11    0.44
  -7   3  -6    1.29    0.50
   7  -3   6    0.53    0.48
   7  -3   6    0.43    0.64
  -8   3  -6   -0.15    0.45
  -8   3  -6   -0.16    0.50
   8  -3   6   -1.13    0.71
   8  -3   6   -0.16    0.88
  -9   3  -6    1.74    0.56
  -9   3  -6    2.22    0.60
   9  -3   6    1.28    0.85
   9  -3   6    2.84    0.63
 -10   3  -6    0.27    0.63
  10  -3   6    0.74    0.67
  10  -3   6   -0.66    0.83
  13   2  -6   -0.59    0.70
 -13  -2   6    0.73    0.94
  12   2  -6    0.08    0.63
  12   2  -6    0.21    0.66
 -12  -2   6   -1.41    0.78
  11   2  -6    0.58    0.54
  11   2  -6    0.02    0.55
 -11  -2   6   -1.47    0.74
  10   2  -6    0.37    0.47
  10   2  -6    0.71    0.52
 -10  -2   6   -0.85    0.68
   9   2  -6    0.14    0.41
   9   2  -6    0.03    0.46
  -9  -2   6   -1.42    0.64
   8   2  -6   -0.44    0.33
   8   2  -6   -0.35    0.41
  -8  -2   6   -1.09    0.61
  -8  -2   6   -0.36    0.20
   7   2  -6   12.49    0.84
   7   2  -6   11.71    0.70
  -7  -2   6   12.55    0.60
  -7  -2   6   10.30    1.06
  -7  -2   6    9.07    0.94
   6   2  -6    4.87    0.62
   6   2  -6    4.28    0.49
   6   2  -6    5.18    0.41
  -6  -2   6    3.56    0.60
   5   2  -6    4.35    0.37
   5   2  -6    4.44    0.42
   5   2  -6    4.55    0.58
  -5  -2   6    3.74    0.57
  -5  -2   6    4.77    0.58
  -5  -2   6    3.94    0.59
   4   2  -6  140.01    5.72
   4   2  -6  152.68    5.77
   4   2  -6  134.00    5.79
  -4  -2   6  148.00    5.73
  -4  -2   6  137.35    5.77
  -4  -2   6  144.03    5.82
  -4  -2   6  138.17    5.84
   3   2  -6   14.74    0.84
   3   2  -6   15.23    0.79
   3   2  -6   14.30    0.85
  -3  -2   6   16.35    0.64
  -3  -2   6   13.04    0.89
  -3  -2   6   14.52    0.77
  -3  -2   6   14.01    0.90
  -3  -2   6   14.23    0.64
   2   2  -6   63.96    2.54
   2   2  -6   57.87    2.55
   2   2  -6   61.33    2.55
  -2  -2   6   61.98    2.46
  -2  -2   6   57.49    2.55
  -2  -2   6   60.33    2.53
  -2  -2   6   61.92    2.59
  -2  -2   6   58.87    2.45
   1   2  -6  155.23    6.02
   1   2  -6  140.38    6.02
   1   2  -6  150.86    6.02
  -1  -2   6  150.51    5.97
  -1  -2   6  144.70    6.04
  -1  -2   6  139.57    5.96
  -1  -2   6  156.76    6.03
  -1  -2   6  144.29    6.01
   0   2  -6    6.28    0.68
   0   2  -6    6.17    0.59
   0   2  -6    7.08    0.52
   0   2  -6    7.19    0.41
   0  -2   6    5.76    0.69
   0  -2   6    6.04    0.51
   0  -2   6    5.58    0.53
   0  -2   6    7.19    0.67
  -1   2  -6   26.61    1.42
  -1   2  -6   31.34    1.29
  -1   2  -6   31.15    1.44
  -1   2  -6   29.86    1.31
   1  -2   6   32.00    1.44
   1  -2   6   28.02    1.41
   1  -2   6   28.58    1.32
   1  -2   6   29.05    1.35
  -2   2  -6    1.02    0.49
  -2   2  -6    1.83    0.30
  -2   2  -6    1.95    0.29
   2  -2   6    1.61    0.44
   2  -2   6    1.29    0.44
   2  -2   6    1.80    0.33
  -3   2  -6    3.58    0.42
  -3   2  -6    3.53    0.53
  -3   2  -6    2.59    0.49
   3  -2   6    3.34    0.48
   3  -2   6    3.34    0.53
   3  -2   6    3.72    0.52
  -4   2  -6    3.16    0.50
  -4   2  -6    3.69    0.44
  -4   2  -6    2.75    0.55
   4  -2   6    2.80    0.56
   4  -2   6    2.84    0.50
  -5   2  -6   10.33    0.91
  -5   2  -6   11.49    0.68
  -5   2  -6   11.24    0.72
   5  -2   6   11.21    1.00
   5  -2   6   11.35    0.86
  -6   2  -6    2.98    0.53
  -6   2  -6    3.66    0.59
   6  -2   6    2.96    0.65
   6  -2   6    3.20    0.55
  -7   2  -6    0.98    0.41
  -7   2  -6    0.87    0.53
   7  -2   6    0.77    0.53
   7  -2   6    0.11    0.66
  -8   2  -6    1.47    0.58
  -8   2  -6    1.29    0.47
   8  -2   6    0.72    0.74
  -9   2  -6    0.11    0.60
   9  -2   6    0.12    0.59
   9  -2   6   -0.90    0.82
 -10   2  -6    0.11    0.66
  10  -2   6    0.68    0.66
  10  -2   6   -1.52    0.91
  13   1  -6   -0.54    0.68
 -13  -1   6    0.44    0.82
  12   1  -6   -0.36    0.62
 -12  -1   6   -0.42    0.84
  11   1  -6   -1.07    0.51
  11   1  -6   -0.69    0.53
 -11  -1   6   -0.30    0.76
  10   1  -6   -0.84    0.46
  10   1  -6   -0.24    0.46
 -10  -1   6   -0.55    0.43
 -10  -1   6   -0.74    0.72
   9   1  -6    1.93    0.46
   9   1  -6    1.52    0.42
  -9  -1   6    1.42    0.45
  -9  -1   6    0.75    0.66
   8   1  -6    3.58    0.58
   8   1  -6    3.34    0.45
  -8  -1   6    3.17    0.42
  -8  -1   6    3.01    0.68
  -8  -1   6    3.60    0.48
   7   1  -6    0.43    0.30
   7   1  -6    1.53    0.40
  -7  -1   6    0.69    0.42
  -7  -1   6    0.50    0.54
  -7  -1   6    0.68    0.26
   6   1  -6   43.95    1.91
   6   1  -6   44.53    1.92
   6   1  -6   44.32    1.97
  -6  -1   6   44.32    2.01
  -6  -1   6   46.64    1.95
  -6  -1   6   50.67    1.94
  -6  -1   6   42.41    2.10
   5   1  -6   16.09    0.78
   5   1  -6   14.40    0.79
   5   1  -6   15.51    0.88
  -5  -1   6   16.00    0.80
  -5  -1   6   15.74    0.97
  -5  -1   6   14.23    0.96
   4   1  -6   52.79    2.17
   4   1  -6   50.90    2.25
   4   1  -6   54.87    2.22
  -4  -1   6   54.50    2.17
  -4  -1   6   52.96    2.29
  -4  -1   6   50.35    2.31
  -4  -1   6   52.01    2.22
   3   1  -6   77.02    3.00
   3   1  -6   71.76    3.04
   3   1  -6   69.83    3.01
  -3  -1   6   71.09    2.93
  -3  -1   6   71.94    2.98
  -3  -1   6   70.27    3.03
  -3  -1   6   71.29    3.04
   2   1  -6   21.91    1.02
   2   1  -6   19.37    1.06
  -2  -1   6   19.61    1.09
  -2  -1   6   19.90    1.02
  -2  -1   6   20.24    0.91
  -2  -1   6   21.04    1.01
  -2  -1   6   19.60    0.88
   1   1  -6   57.21    2.33
   1   1  -6   55.83    2.35
   1   1  -6   53.91    2.39
  -1  -1   6   52.02    2.32
  -1  -1   6   54.80    2.29
  -1  -1   6   53.36    2.37
  -1  -1   6   55.95    2.27
  -1  -1   6   58.04    2.37
   0   1  -6   22.24    0.97
   0   1  -6   22.92    1.02
   0   1  -6   19.48    1.15
   0   1  -6   21.56    1.09
   0  -1   6   22.93    1.14
   0  -1   6   21.60    1.03
   0  -1   6   19.75    1.01
   0  -1   6   20.17    1.13
  -1   1  -6    0.61    0.26
  -1   1  -6   -0.18    0.25
  -1   1  -6   -0.21    0.43
   1  -1   6   -0.19    0.46
   1  -1   6    0.25    0.36
   1  -1   6   -0.06    0.26
  -2   1  -6   26.33    1.19
  -2   1  -6   27.17    1.16
  -2   1  -6   22.54    1.29
   2  -1   6   24.77    1.34
   2  -1   6   25.74    1.17
   2  -1   6   26.51    1.30
  -3   1  -6   29.09    1.53
  -3   1  -6   32.42    1.33
   3  -1   6   30.31    1.34
   3  -1   6   30.49    1.54
   3  -1   6   29.35    1.46
  -4   1  -6   34.27    1.56
  -4   1  -6   33.43    1.73
  -4   1  -6   38.20    1.55
   4  -1   6   37.45    1.73
   4  -1   6   37.36    1.81
  -5   1  -6    5.13    0.85
  -5   1  -6    6.26    0.50
  -5   1  -6    6.21    0.55
   5  -1   6    5.88    0.75
   5  -1   6    5.34    0.81
  -6   1  -6    3.54    0.58
  -6   1  -6    3.50    0.56
   6  -1   6    3.31    0.54
   6  -1   6    3.69    0.73
  -7   1  -6    1.68    0.60
  -7   1  -6    1.15    0.40
   7  -1   6    1.56    0.78
   7  -1   6    1.20    0.55
  -8   1  -6    1.86    0.71
   8  -1   6    1.12    0.77
  -9   1  -6    0.97    0.65
   9  -1   6    1.40    0.96
   9  -1   6    1.97    0.61
 -10   1  -6    2.04    0.73
  10  -1   6    0.67    1.03
  10  -1   6    1.65    0.69
  13   0  -6    0.65    0.72
 -13   0   6   -0.70    0.89
  12   0  -6    0.01    0.62
 -12   0   6   -1.29    0.83
  11   0  -6    0.11    0.56
 -11   0   6   -0.21    0.79
  10   0  -6   -0.57    0.43
  10   0  -6    0.06    0.47
 -10   0   6   -0.83    0.71
 -10   0   6   -0.54    0.44
   9   0  -6   -0.52    0.39
   9   0  -6    0.12    0.41
  -9   0   6    0.35    0.62
  -9   0   6   -0.60    0.42
   8   0  -6   12.76    0.82
   8   0  -6   12.63    0.84
  -8   0   6   12.17    1.04
  -8   0   6   12.62    0.88
   7   0  -6    0.59    0.36
   7   0  -6    0.62    0.33
  -7   0   6    0.18    0.30
  -7   0   6    0.24    0.58
  -7   0   6    0.55    0.41
   6   0  -6    3.28    0.49
   6   0  -6    3.32    0.47
   6   0  -6    3.18    0.42
  -6   0   6    3.60    0.46
  -6   0   6    3.00    0.47
  -6   0   6    2.93    0.55
   5   0  -6   88.16    3.58
   5   0  -6   89.37    3.59
   5   0  -6   84.66    3.62
  -5   0   6   82.48    3.66
  -5   0   6   88.39    3.59
  -5   0   6   90.54    3.58
  -5   0   6   87.12    3.64
   4   0  -6    2.84    0.44
   4   0  -6    2.25    0.34
   4   0  -6    2.54    0.30
  -4   0   6    2.01    0.48
  -4   0   6    2.75    0.38
  -4   0   6    2.41    0.34
  -4   0   6    2.44    0.45
   3   0  -6   52.50    2.39
   3   0  -6   59.20    2.41
  -3   0   6   54.40    2.38
  -3   0   6   53.33    2.28
  -3   0   6   56.94    2.34
  -3   0   6   55.37    2.41
   2   0  -6  118.89    5.17
   2   0  -6  130.06    5.16
   2   0  -6  132.51    5.16
  -2   0   6  119.40    5.16
  -2   0   6  125.16    5.09
  -2   0   6  120.87    5.13
  -2   0   6  131.78    5.15
   1   0  -6   29.35    1.52
   1   0  -6   35.01    1.47
   1   0  -6   35.16    1.58
  -1   0   6   30.92    1.43
  -1   0   6   31.06    1.51
  -1   0   6   30.80    1.43
  -1   0   6   32.67    1.40
  -1   0   6   33.74    1.51
   0   0  -6   52.73    2.49
   0   0  -6   61.04    2.42
   0   0  -6   59.16    2.41
   0   0   6   58.42    2.44
   0   0   6   57.14    2.51
   0   0   6   57.01    2.39
  -1   0  -6   -0.09    0.45
  -1   0  -6    0.61    0.29
   1   0   6    0.89    0.40
   1   0   6    0.55    0.43
  -2   0  -6   30.96    1.67
  -2   0  -6   38.54    1.53
   2   0   6   36.49    1.68
   2   0   6   34.50    1.52
   2   0   6   35.77    1.71
  -3   0  -6    1.99    0.58
   3   0   6    2.62    0.29
   3   0   6    3.14    0.58
   3   0   6    2.24    0.56
  -4   0  -6   11.20    0.59
  -4   0  -6    9.58    0.57
  -4   0  -6    8.65    0.91
   4   0   6    8.51    0.93
   4   0   6    9.88    1.00
  -5   0  -6    0.57    0.25
  -5   0  -6    0.06    0.56
  -5   0  -6   -0.04    0.30
   5   0   6   -0.17    0.61
   5   0   6   -0.22    0.52
  -6   0  -6   -0.07    0.55
   6   0   6    0.08    0.53
   6   0   6   -0.34    0.70
  -7   0  -6    1.11    0.79
   7   0   6    1.98    0.58
   7   0   6    1.47    0.80
  -8   0  -6    1.70    0.67
   8   0   6    1.04    0.84
  -9   0  -6    0.16    0.69
   9   0   6   -0.90    0.94
   9   0   6    0.35    0.61
 -10   0  -6   -0.37    0.74
  10   0   6   -0.92    1.00
  13  -1  -6    0.20    0.71
 -13   1   6   -0.29    0.87
  12  -1  -6    0.19    0.62
 -12   1   6   -0.48    0.89
  11  -1  -6    0.80    0.57
 -11   1   6    0.25    0.54
 -11   1   6    0.13    0.78
  10  -1  -6    5.55    0.87
  10  -1  -6    4.87    0.54
 -10   1   6    3.98    0.80
 -10   1   6    5.01    0.60
   9  -1  -6    0.91    0.45
   9  -1  -6    0.40    0.43
  -9   1   6    0.80    0.49
   8  -1  -6    0.57    0.40
   8  -1  -6    0.81    0.42
   8  -1  -6    0.65    0.32
  -8   1   6    1.13    0.45
  -8   1   6    0.70    0.64
   7  -1  -6   25.31    1.22
   7  -1  -6   22.24    1.21
  -7   1   6   24.05    1.41
  -7   1   6   26.32    1.14
  -7   1   6   24.68    1.29
   6  -1  -6    2.11    0.36
   6  -1  -6    2.51    0.45
  -6   1   6    1.83    0.45
  -6   1   6    2.61    0.33
  -6   1   6    1.84    0.53
   5  -1  -6   36.87    1.60
   5  -1  -6   34.57    1.69
  -5   1   6   38.18    1.59
  -5   1   6   35.97    1.68
  -5   1   6   34.43    1.69
  -5   1   6   36.93    1.58
   4  -1  -6   36.22    1.58
   4  -1  -6   32.84    1.69
  -4   1   6   35.09    1.66
  -4   1   6   35.07    1.64
  -4   1   6   37.33    1.58
  -4   1   6   37.72    1.56
   3  -1  -6    1.07    0.49
   3  -1  -6    2.81    0.50
  -3   1   6    2.38    0.42
  -3   1   6    1.80    0.43
  -3   1   6    1.60    0.46
  -3   1   6    2.04    0.30
  -3   1   6    1.96    0.33
   2  -1  -6   70.37    2.72
   2  -1  -6   59.11    2.74
  -2   1   6   59.45    2.66
  -2   1   6   60.29    2.64
  -2   1   6   63.79    2.63
  -2   1   6   61.65    2.73
  -2   1   6   67.24    2.70
   1  -1  -6   14.67    1.03
  -1   1   6   15.19    0.84
  -1   1   6   15.62    0.89
  -1   1   6   16.69    0.83
  -1   1   6   16.39    1.04
   0  -1  -6    0.36    0.51
   0   1   6    1.19    0.47
   0   1   6    1.35    0.40
   0   1   6    1.32    0.34
  -1  -1  -6   21.53    1.30
   1   1   6   22.86    1.19
   1   1   6   23.29    1.29
   1   1   6   23.65    1.03
  -2  -1  -6    2.89    0.62
   2   1   6    3.40    0.57
   2   1   6    2.18    0.37
   2   1   6    3.25    0.51
  -3  -1  -6   -0.27    0.54
   3   1   6    0.38    0.55
   3   1   6    0.34    0.54
  -4  -1  -6    0.96    0.57
  -4  -1  -6    1.37    0.21
   4   1   6    1.06    0.59
   4   1   6    1.13    0.57
  -5  -1  -6    5.98    0.41
  -5  -1  -6    4.24    0.65
   5   1   6    5.53    0.78
   5   1   6    5.69    0.89
  -6  -1  -6    0.70    0.85
   6   1   6    0.61    0.58
   6   1   6    1.24    0.73
  -7  -1  -6    2.74    0.73
   7   1   6    2.56    0.61
   7   1   6    2.71    0.92
  -8  -1  -6    0.77    0.70
   8   1   6   -0.53    0.96
   8   1   6   -0.44    0.61
  -9  -1  -6   -0.08    0.77
   9   1   6   -1.29    1.00
   9   1   6   -0.27    0.64
  13  -2  -6   -0.08    0.73
 -13   2   6   -0.64    1.00
  12  -2  -6    0.86    0.70
 -12   2   6   -0.25    0.90
  11  -2  -6    0.88    0.63
 -11   2   6    0.30    0.87
 -11   2   6    1.39    0.61
  10  -2  -6   -0.02    0.63
 -10   2   6   -0.19    0.54
 -10   2   6   -0.43    0.77
   9  -2  -6    4.77    0.59
   9  -2  -6    6.08    0.83
  -9   2   6    5.85    0.87
  -9   2   6    4.68    0.81
   8  -2  -6    2.75    0.48
   8  -2  -6    1.09    0.52
  -8   2   6    2.75    0.72
  -8   2   6    2.38    0.52
   7  -2  -6   20.52    1.10
  -7   2   6   19.35    1.17
  -7   2   6   21.31    0.97
  -7   2   6   18.25    1.30
   6  -2  -6   39.73    1.97
   6  -2  -6   46.02    1.92
  -6   2   6   43.20    1.97
  -6   2   6   44.32    1.85
  -6   2   6   41.92    2.03
   5  -2  -6   -0.22    0.36
  -5   2   6   -0.38    0.50
  -5   2   6   -0.10    0.47
  -5   2   6   -0.10    0.31
   4  -2  -6   96.90    4.09
   4  -2  -6  100.24    4.02
  -4   2   6   95.23    4.05
  -4   2   6   96.70    4.07
  -4   2   6   96.88    4.01
   3  -2  -6   -0.24    0.61
  -3   2   6   -0.15    0.41
  -3   2   6    0.35    0.45
  -3   2   6   -0.05    0.48
  -3   2   6    0.49    0.49
  -3   2   6    0.16    0.34
   2  -2  -6   -0.80    0.52
   2  -2  -6    0.10    0.49
  -2   2   6    0.19    0.46
  -2   2   6   -0.28    0.34
  -2   2   6   -0.18    0.34
   1  -2  -6   79.55    3.06
   1  -2  -6   68.28    3.09
  -1   2   6   68.01    2.95
  -1   2   6   70.81    3.07
  -1   2   6   68.70    3.01
   0  -2  -6   -0.68    0.48
   0   2   6    0.98    0.44
   0   2   6    1.02    0.49
   1   2   6    0.10    0.53
   1   2   6   -0.21    0.21
   1   2   6    0.52    0.46
  -2  -2  -6   -0.71    0.55
   2   2   6   -0.08    0.18
   2   2   6    0.63    0.51
   2   2   6   -0.10    0.54
  -3  -2  -6    6.37    0.93
   3   2   6    8.09    0.97
   3   2   6    9.06    0.92
  -4  -2  -6    1.07    0.56
   4   2   6    2.54    0.61
   4   2   6    1.74    0.67
  -5  -2  -6    0.42    0.72
   5   2   6    0.30    0.59
  -6  -2  -6    5.28    0.80
   6   2   6    4.99    0.90
   6   2   6    5.14    0.70
  -7  -2  -6    1.71    0.77
   7   2   6    0.99    0.88
  -8  -2  -6    0.17    0.78
   8   2   6    1.69    0.65
   8   2   6   -0.35    1.01
  -9  -2  -6    1.49    0.80
   9   2   6    2.66    1.14
  12  -3  -6    0.03    0.72
 -12   3   6    0.66    0.76
 -12   3   6    0.08    0.96
  11  -3  -6    0.28    0.67
 -11   3   6    0.47    0.88
 -11   3   6    0.05    0.74
  10  -3  -6    0.59    0.59
 -10   3   6   -0.98    0.76
 -10   3   6   -0.39    0.60
   9  -3  -6    2.10    0.57
  -9   3   6    1.79    0.61
  -9   3   6    1.55    0.79
   8  -3  -6   20.12    1.16
  -8   3   6   17.01    1.22
   7  -3  -6    0.15    0.47
  -7   3   6    0.26    0.52
  -7   3   6    0.03    0.29
  -7   3   6    0.16    0.62
   6  -3  -6    6.96    0.78
  -6   3   6    5.91    0.83
  -6   3   6    6.14    0.56
  -6   3   6    6.58    0.91
   5  -3  -6   -0.14    0.40
  -5   3   6    0.06    0.48
  -5   3   6    0.09    0.50
  -5   3   6    0.03    0.33
   4  -3  -6    0.92    0.41
  -4   3   6    1.12    0.48
  -4   3   6    0.83    0.52
   3  -3  -6   42.29    2.11
  -3   3   6   46.64    1.99
  -3   3   6   44.00    2.06
  -3   3   6   45.13    1.99
   2  -3  -6    1.28    0.57
   2  -3  -6    1.42    0.61
  -2   3   6    2.35    0.40
  -2   3   6    3.01    0.57
  -2   3   6    2.60    0.48
   1  -3  -6    5.10    0.70
   1  -3  -6    4.47    0.55
  -1   3   6    6.24    0.79
  -1   3   6    5.55    0.54
  -1   3   6    6.04    0.79
   0  -3  -6    1.41    0.38
   0  -3  -6    1.09    0.58
   0   3   6    1.86    0.49
   0   3   6    1.80    0.30
   0   3   6    1.45    0.54
  -1  -3  -6    2.86    0.43
  -1  -3  -6    3.24    0.65
   1   3   6    4.36    0.58
   1   3   6    3.44    0.35
   1   3   6    4.42    0.64
  -2  -3  -6   -0.52    0.59
   2   3   6   -0.07    0.52
   2   3   6    0.24    0.54
  -3  -3  -6    0.36    0.56
   3   3   6    1.17    0.56
   3   3   6    1.08    0.57
  -4  -3  -6    3.30    0.76
   4   3   6    4.00    0.68
  -5  -3  -6    4.90    0.80
   5   3   6    4.65    0.79
   5   3   6    4.81    0.71
  -6  -3  -6    1.34    0.73
   6   3   6    1.77    0.83
   6   3   6    1.47    0.96
  -7  -3  -6   -0.63    0.78
   7   3   6    0.02    0.66
   7   3   6   -0.33    0.96
  -8  -3  -6    1.81    0.88
   8   3   6    1.04    1.01
   8   3   6    0.55    0.99
  12  -4  -6    0.48    0.81
 -12   4   6    0.35    0.79
 -12   4   6   -1.07    0.94
  11  -4  -6    0.87    0.70
 -11   4   6   -1.12    0.94
 -11   4   6    0.23    0.72
  10  -4  -6    2.19    0.67
 -10   4   6    1.77    0.71
 -10   4   6    0.64    0.89
   9  -4  -6    1.11    0.62
  -9   4   6    1.47    0.79
  -9   4   6    1.06    0.70
   8  -4  -6    2.55    0.58
  -8   4   6    2.42    0.65
  -8   4   6    2.57    0.78
   7  -4  -6    2.17    0.55
  -7   4   6    2.55    0.70
  -7   4   6    2.47    0.63
   6  -4  -6   -0.22    0.47
   6  -4  -6    1.42    0.54
  -6   4   6   -0.59    0.55
  -6   4   6    0.09    0.59
  -6   4   6   -0.24    0.33
   5  -4  -6   23.07    1.26
   5  -4  -6   23.24    1.35
  -5   4   6   21.91    1.33
  -5   4   6   22.05    1.31
   4  -4  -6   -0.91    0.54
  -4   4   6    0.54    0.47
  -4   4   6    0.17    0.55
   3  -4  -6    9.80    1.05
  -3   4   6   11.84    1.00
  -3   4   6   12.27    0.86
  -3   4   6   12.40    0.94
   2  -4  -6   13.18    0.98
   2  -4  -6   11.60    1.08
  -2   4   6   13.98    1.07
  -2   4   6   13.77    0.84
  -2   4   6   14.24    1.00
   1  -4  -6   -0.68    0.37
   1  -4  -6   -1.04    0.54
  -1   4   6    0.14    0.56
  -1   4   6    0.24    0.53
  -1   4   6   -0.32    0.29
   0  -4  -6    0.54    0.30
   0  -4  -6    0.46    0.59
   0   4   6    0.85    0.57
   0   4   6    0.25    0.57
   0   4   6    1.05    0.25
  -1  -4  -6   -0.85    0.59
   1   4   6    0.25    0.54
   1   4   6    0.55    0.59
  -2  -4  -6   -0.65    0.62
   2   4   6    0.37    0.55
   2   4   6    0.46    0.61
  -3  -4  -6    1.09    0.69
   3   4   6    2.18    0.62
   3   4   6    1.53    0.69
  -4  -4  -6   -0.30    0.67
   4   4   6    0.53    0.61
   4   4   6    0.40    0.71
  -5  -4  -6    1.09    0.79
   5   4   6    1.29    0.76
  -6  -4  -6    3.90    0.92
   6   4   6    4.39    0.73
   6   4   6    3.41    0.89
  -7  -4  -6    1.37    0.85
   7   4   6    1.34    0.72
   7   4   6    0.33    1.00
  11  -5  -6    1.14    0.79
 -11   5   6    0.70    0.82
 -11   5   6   -0.33    0.98
  10  -5  -6    0.73    0.75
 -10   5   6   -1.17    0.74
 -10   5   6    0.61    0.92
   9  -5  -6    3.93    0.73
  -9   5   6    2.75    0.79
  -9   5   6    2.97    0.90
   8  -5  -6    0.64    0.63
  -8   5   6   -0.25    0.65
  -8   5   6   -0.46    0.76
   6  -5  -6    2.70    0.59
  -6   5   6    3.25    0.68
  -6   5   6    2.16    0.96
   5  -5  -6    2.78    0.57
  -5   5   6    2.80    0.71
  -5   5   6    3.22    0.59
  -4   5   6    9.91    0.96
  -4   5   6    7.94    0.87
  -4   5   6    8.26    0.93
   3  -5  -6    4.63    0.71
  -3   5   6    3.18    0.66
  -3   5   6    3.43    0.51
  -3   5   6    2.90    0.60
   2  -5  -6   11.35    1.11
  -2   5   6   12.18    0.83
  -2   5   6   11.68    0.98
  -2   5   6   11.58    1.02
   1  -5  -6   -0.83    0.59
  -1   5   6   -0.50    0.62
  -1   5   6    0.15    0.31
  -1   5   6   -0.20    0.59
   0  -5  -6    2.88    0.70
   0   5   6    3.62    0.69
   0   5   6    4.70    0.43
   0   5   6    4.87    0.73
  -1  -5  -6    0.06    1.35
   1   5   6    0.13    0.60
  -2  -5  -6    4.18    0.83
   2   5   6    4.70    0.79
   2   5   6    5.81    0.88
  -3  -5  -6   -0.35    0.78
   3   5   6   -0.10    0.72
   3   5   6    0.50    0.77
  -4  -5  -6    6.86    0.96
   4   5   6    9.13    1.11
   4   5   6    6.73    0.96
  -5  -5  -6    0.02    0.84
   5   5   6    1.26    0.72
   5   5   6    0.52    0.90
  -6  -5  -6    2.05    0.90
   6   5   6    0.91    0.75
   6   5   6    1.38    1.00
  11  -6  -6    0.95    0.86
 -11   6   6    0.61    0.88
 -11   6   6    0.81    1.06
  10  -6  -6    0.66    0.75
 -10   6   6    1.05    0.86
 -10   6   6    0.69    0.97
   9  -6  -6    0.90    0.75
  -9   6   6   -0.81    0.77
  -9   6   6    0.28    0.84
   8  -6  -6    0.47    0.71
  -8   6   6    0.35    0.76
  -8   6   6    0.23    0.80
   7  -6  -6    1.28    0.70
  -7   6   6    0.88    0.71
  -7   6   6    0.99    0.73
   6  -6  -6    0.47    0.63
  -6   6   6    0.22    0.73
  -6   6   6    0.50    0.71
  -5   6   6    0.83    0.61
  -5   6   6    0.83    0.70
  -5   6   6    0.96    0.60
  -4   6   6    6.16    0.78
  -4   6   6    5.96    0.91
  -4   6   6    7.05    1.04
  -3   6   6    2.62    0.51
  -3   6   6    2.95    0.72
  -3   6   6    2.09    0.62
   2  -6  -6    1.80    0.77
  -2   6   6    0.69    0.66
  -2   6   6    0.14    0.40
  -2   6   6    0.48    0.65
   1  -6  -6    3.27    0.85
  -1   6   6    2.30    0.70
  -1   6   6    2.66    0.73
  -1   6   6    2.73    0.37
   0  -6  -6   -0.79    0.80
   0   6   6   -0.02    0.72
   0   6   6    0.49    0.70
  -1  -6  -6   -0.95    0.81
   1   6   6   -0.21    0.69
   1   6   6   -0.36    0.71
  -2  -6  -6   -0.96    0.84
   2   6   6   -0.01    0.70
   2   6   6    0.09    0.81
  -3  -6  -6    1.89    0.89
   3   6   6    2.44    0.85
   3   6   6    3.82    0.81
  -4  -6  -6    0.07    0.94
   4   6   6    1.53    0.76
   4   6   6    0.23    0.82
  -5  -6  -6   -0.17    0.86
   5   6   6    0.08    0.91
   5   6   6    0.92    0.81
  10  -7  -6   -0.38    0.82
 -10   7   6   -0.67    1.02
 -10   7   6   -1.60    0.85
   9  -7  -6   -0.27    0.81
  -9   7   6   -1.42    0.86
  -9   7   6   -0.96    0.88
   8  -7  -6    0.71    0.79
  -8   7   6    0.15    0.82
  -8   7   6   -0.04    0.85
   7  -7  -6    0.41    0.74
  -7   7   6   -0.11    0.77
  -7   7   6   -0.37    0.80
   6  -7  -6    1.98    0.75
  -6   7   6    1.20    0.71
  -6   7   6    0.64    0.76
  -5   7   6    1.82    0.72
  -5   7   6    1.06    0.65
  -5   7   6    0.52    0.75
  -4   7   6    0.71    0.58
  -4   7   6   -0.18    0.69
  -4   7   6   -0.23    0.71
   2  -7  -6    6.57    1.85
  -2   7   6    2.38    0.81
  -2   7   6    2.95    0.51
  -2   7   6    2.90    0.80
   1  -7  -6    0.89    0.99
  -1   7   6    0.81    0.72
  -1   7   6    0.65    0.77
   0  -7  -6   -0.31    0.98
   0   7   6   -0.14    0.79
   0   7   6    0.30    0.80
  -1  -7  -6    0.38    1.02
   1   7   6    0.98    0.87
   1   7   6    0.79    0.80
  -2  -7  -6    0.94    1.04
   2   7   6    1.56    0.81
   2   7   6    0.72    0.92
  -3  -7  -6   -0.19    1.01
   3   7   6   -0.25    0.81
   3   7   6   -0.12    0.87
  -4  -7  -6   -0.03    1.06
   4   7   6    0.76    0.83
   4   7   6   -0.91    0.93
   8  -8  -6    1.23    0.87
  -8   8   6   -0.74    0.91
  -8   8   6    0.47    0.92
   7  -8  -6    2.56    0.82
  -7   8   6    1.88    0.93
  -7   8   6    1.90    0.88
  -6   8   6   -0.10    0.76
  -6   8   6   -0.48    0.87
  -6   8   6    1.13    0.78
  -5   8   6    0.57    0.86
  -5   8   6    1.38    0.71
  -5   8   6    1.36    0.80
   4  -8  -6    4.18    1.14
  -4   8   6    1.96    0.84
  -4   8   6    1.67    0.66
  -4   8   6    1.25    0.77
   3  -8  -6    3.35    1.19
  -3   8   6    0.46    0.86
  -3   8   6    0.19    0.78
   2  -8  -6    3.55    1.20
  -2   8   6    1.06    0.86
  -2   8   6    0.66    0.81
   1  -8  -6    0.71    1.18
  -1   8   6   -0.30    0.80
  -1   8   6   -0.02    0.88
   0  -8  -6    2.09    1.17
   0   8   6   -0.09    0.92
   0   8   6    0.54    0.87
  -1  -8  -6   -0.13    1.15
   1   8   6    0.72    0.98
   1   8   6    1.01    0.86
  -2  -8  -6   -0.55    1.09
   2   8   6   -0.15    1.02
   2   8   6    0.65    0.84
  -6   9   6   -0.20    0.81
  -6   9   6   -0.75    0.84
  -6   9   6    0.75    1.10
  -5   9   6    0.64    0.93
  -5   9   6   -0.34    0.83
  -4   9   6    0.39    0.89
  -4   9   6    0.64    0.84
   3  -9  -6    2.73    1.40
  -3   9   6    1.40    0.90
  -3   9   6    1.60    0.89
   2  -9  -6    0.66    1.41
  -2   9   6   -0.54    0.92
  -2   9   6    0.02    0.86
   1  -9  -6   -0.39    1.38
  -1   9   6   -0.19    0.90
  -1   9   6    0.04    0.98
   4  13  -7    0.19    1.01
   3  13  -7    0.97    0.95
   2  13  -7    0.76    0.79
   2  13  -7    0.37    0.87
   1  13  -7    0.40    0.62
   1  13  -7    0.90    0.84
   1  13  -7    1.01    0.82
   0  13  -7    0.70    0.79
   0  13  -7    0.56    0.81
   0  13  -7   -0.47    0.63
  -1  13  -7    0.30    0.73
  -1  13  -7    0.06    0.88
  -1  13  -7   -0.60    0.68
  -2  13  -7   -0.17    0.88
  -2  13  -7    0.46    0.70
  -3  13  -7    0.64    0.94
   3 -13   7    2.21    0.81
  -4  13  -7    0.25    0.95
   4 -13   7    3.64    0.87
  -5  13  -7    0.68    1.00
   5 -13   7    3.73    1.40
   5 -13   7    1.53    0.83
   6  12  -7    1.69    1.12
   5  12  -7    1.21    0.97
  -5 -12   7    0.33    0.77
   4  12  -7    0.97    0.83
  -4 -12   7    1.71    0.74
   3  12  -7    0.22    0.81
  -3 -12   7    0.49    0.71
   2  12  -7    0.50    0.79
   2  12  -7    0.35    0.51
  -2 -12   7    1.37    0.71
   1  12  -7    0.24    0.56
   1  12  -7    1.30    0.76
  -1 -12   7    2.34    0.75
   0  12  -7   -0.84    0.74
   0  12  -7    0.23    0.58
   0  12  -7    0.95    0.71
   0 -12   7    1.35    0.71
  -1  12  -7    1.03    0.63
  -1  12  -7    0.21    0.65
  -1  12  -7    0.70    0.79
   1 -12   7    2.76    0.66
  -2  12  -7    1.48    0.65
  -2  12  -7    1.08    0.83
   2 -12   7    3.18    0.71
  -3  12  -7    0.57    0.65
  -3  12  -7   -0.02    0.79
   3 -12   7    1.42    0.69
   3 -12   7    1.87    0.69
  -4  12  -7   -0.01    0.86
   4 -12   7    1.55    0.78
   4 -12   7    2.49    0.97
  -5  12  -7    1.32    0.91
   5 -12   7    1.50    0.76
   7  11  -7    1.48    0.90
   6  11  -7    1.42    0.95
  -6 -11   7    1.47    0.72
   5  11  -7    1.03    0.89
  -5 -11   7    1.39    0.68
   4  11  -7    1.47    0.79
  -4 -11   7    2.40    0.71
   3  11  -7    2.67    0.45
   3  11  -7    2.23    0.74
   2  11  -7    0.41    0.72
   2  11  -7   -0.17    0.47
  -2 -11   7    1.45    0.66
   1  11  -7    0.57    0.64
   1  11  -7    0.36    0.46
  -1 -11   7    0.97    0.65
  -1 -11   7    1.55    0.50
   0  11  -7    0.70    0.63
   0  11  -7    0.28    0.48
   0 -11   7    0.87    0.61
  -1  11  -7    7.38    1.00
  -1  11  -7    6.68    0.90
  -1  11  -7    7.01    1.14
   1 -11   7   10.92    1.30
  -2  11  -7    1.24    0.71
  -2  11  -7    2.05    0.58
   2 -11   7    3.27    0.64
   2 -11   7    1.72    0.54
  -3  11  -7    0.85    0.71
  -3  11  -7    1.59    0.61
   3 -11   7    2.61    0.62
  -4  11  -7    1.64    0.64
  -4  11  -7    1.42    0.77
   4 -11   7    2.99    0.71
  -5  11  -7    0.59    0.78
   5 -11   7    1.43    0.73
   5 -11   7    5.43    1.68
  -6  11  -7    4.30    0.92
   6 -11   7    4.96    0.85
   7 -11   7    6.09    1.45
   7 -11   7    0.76    0.76
   8  10  -7    0.55    0.93
   7  10  -7    1.01    0.82
  -7 -10   7    2.41    0.79
   6  10  -7    0.32    0.85
  -6 -10   7    1.66    0.74
   5  10  -7    4.04    0.85
  -5 -10   7    5.39    1.30
   4  10  -7    0.21    0.34
   4  10  -7   -0.10    0.43
   4  10  -7    0.85    0.72
  -4 -10   7    1.71    0.62
   3  10  -7    0.24    0.69
   3  10  -7    0.25    0.40
  -3 -10   7    0.33    0.37
  -3 -10   7    1.05    0.57
   2  10  -7   -0.05    0.39
  -2 -10   7    1.02    0.59
  -2 -10   7    0.90    0.41
   1  10  -7    7.78    1.05
   1  10  -7    7.91    0.75
  -1 -10   7    9.98    0.84
  -1 -10   7   10.77    1.06
   0  10  -7    0.79    0.40
   0  10  -7    0.43    0.55
   0 -10   7    1.91    0.48
   0 -10   7    1.13    0.61
  -1  10  -7    0.90    0.54
   1 -10   7    2.90    0.57
   1 -10   7    1.32    0.41
  -2  10  -7    0.19    0.66
  -2  10  -7    0.47    0.53
   2 -10   7    1.36    0.55
   2 -10   7    1.00    0.45
  -3  10  -7    1.85    0.67
  -3  10  -7    3.47    0.60
   3 -10   7    5.66    0.88
   3 -10   7    4.05    0.69
  -4  10  -7    4.91    0.66
  -4  10  -7    5.01    0.82
   4 -10   7    7.16    1.11
  -5  10  -7    0.51    0.58
  -5  10  -7    0.90    0.73
   5 -10   7    2.18    0.72
  -8  10  -7    0.26    0.83
   8 -10   7    0.87    0.75
   8 -10   7    0.24    1.44
   9   9  -7    0.87    1.00
  -9  -9   7    1.69    0.96
   8   9  -7    1.32    0.91
   7   9  -7    2.51    0.89
  -7  -9   7    5.82    1.53
   6   9  -7    0.79    0.71
   6   9  -7   -0.06    0.53
  -6  -9   7    1.77    0.68
   5   9  -7    0.85    0.72
   4   9  -7    0.65    0.35
   4   9  -7    0.68    0.70
  -4  -9   7    2.36    0.61
  -4  -9   7    0.43    0.31
   3   9  -7    5.20    0.71
  -3  -9   7    4.96    0.60
  -3  -9   7    6.61    0.95
   2   9  -7   10.57    1.00
  -2  -9   7   12.02    0.81
  -2  -9   7   10.95    1.04
   1   9  -7   -0.28    0.52
   1   9  -7    0.04    0.32
   1   9  -7    0.29    0.26
  -1  -9   7    0.34    0.51
  -1  -9   7    1.03    0.42
   0   9  -7    5.21    0.49
   0   9  -7    3.13    0.56
   0   9  -7    4.06    0.56
   0  -9   7    6.57    0.89
  -1   9  -7    3.59    0.56
  -1   9  -7    4.23    0.53
   1  -9   7    4.49    0.63
   1  -9   7    4.00    0.58
  -2   9  -7   16.77    1.13
   2  -9   7   17.04    0.97
   2  -9   7   18.55    1.17
   2  -9   7   16.62    1.21
  -3   9  -7   -0.14    0.51
   3  -9   7    1.00    0.57
  -4   9  -7    0.10    0.52
  -4   9  -7   -0.22    0.58
   4  -9   7    1.16    0.63
  -5   9  -7    2.71    0.59
  -5   9  -7    2.69    0.69
   5  -9   7    3.75    0.70
  -7   9  -7    3.42    0.83
   7  -9   7    2.42    0.71
  -8   9  -7   -0.17    0.80
   8  -9   7    0.43    0.77
  -9   9  -7   -0.35    0.80
   9  -9   7    0.61    0.81
  10   8  -7    1.10    0.96
 -10  -8   7    0.28    0.99
  -9  -8   7    9.63    1.41
   8   8  -7    0.06    0.77
  -8  -8   7    3.15    0.91
   7   8  -7    0.09    0.39
   7   8  -7    0.79    0.76
  -7  -8   7    2.42    0.68
   6   8  -7    1.34    0.71
   6   8  -7    0.76    0.35
   5   8  -7    1.53    1.11
  -5  -8   7    1.76    0.62
   4   8  -7    3.80    0.53
   4   8  -7    4.15    0.38
   4   8  -7    4.29    0.64
   4   8  -7    3.78    0.47
  -4  -8   7    4.51    0.48
  -4  -8   7    6.60    0.94
   3   8  -7    1.08    0.35
   3   8  -7    2.16    0.59
   3   8  -7    1.51    0.25
   3   8  -7    1.94    0.31
  -3  -8   7    2.61    0.56
   2   8  -7    0.67    0.23
   2   8  -7    1.18    0.51
   2   8  -7    0.94    0.20
  -2  -8   7    1.19    0.53
  -2  -8   7    1.67    0.36
   1   8  -7    1.03    0.21
   1   8  -7    0.74    0.51
   1   8  -7    0.98    0.25
  -1  -8   7    1.18    0.48
  -1  -8   7    1.95    0.41
   0   8  -7   10.24    0.92
   0   8  -7   10.59    0.61
   0  -8   7   10.93    0.86
   0  -8   7   13.05    0.85
  -1   8  -7    6.64    0.79
  -1   8  -7    6.87    0.52
   1  -8   7    6.10    0.77
   1  -8   7    6.78    0.55
  -2   8  -7    3.11    0.53
  -2   8  -7    3.16    0.52
   2  -8   7    2.90    0.54
   2  -8   7    3.43    0.56
  -3   8  -7    8.06    0.88
   3  -8   7    8.07    0.95
   3  -8   7    9.41    0.92
  -5   8  -7    6.56    1.11
  -5   8  -7    6.71    0.89
   5  -8   7    7.14    0.92
  -6   8  -7    0.28    0.65
  -6   8  -7    0.42    0.48
   6  -8   7    1.96    0.70
   6  -8   7   -0.08    0.60
  -7   8  -7    0.75    0.62
  -7   8  -7   -0.02    0.65
   7  -8   7   -0.20    0.63
  -8   8  -7    4.59    0.80
   8  -8   7    6.20    0.85
  -9   8  -7    0.17    0.77
   9  -8   7    1.26    0.78
  11   7  -7    0.33    0.89
  10   7  -7    1.51    0.83
 -10  -7   7   -1.83    0.91
   9   7  -7    0.52    0.82
  -9  -7   7    0.50    0.84
   8   7  -7    0.53    0.41
   8   7  -7    0.76    0.76
  -8  -7   7    1.04    0.80
   7   7  -7    0.24    0.63
   7   7  -7    0.58    0.35
  -7  -7   7    1.88    0.64
   6   7  -7   12.17    1.11
  -6  -7   7   13.22    1.12
   5   7  -7    5.03    0.43
   5   7  -7    5.22    0.46
   5   7  -7    5.59    0.90
   5   7  -7    4.19    0.41
  -5  -7   7    6.61    0.88
  -5  -7   7    5.18    0.38
   4   7  -7    2.93    0.35
   4   7  -7    2.36    0.40
   4   7  -7    2.82    0.30
   4   7  -7    3.19    0.57
  -4  -7   7    3.39    0.57
  -4  -7   7    4.07    0.48
   3   7  -7   15.60    1.06
   3   7  -7   14.68    0.85
  -3  -7   7   15.87    1.10
  -3  -7   7   17.83    0.88
   2   7  -7   57.89    2.52
   2   7  -7   56.69    2.43
  -2  -7   7   60.39    2.43
  -2  -7   7   54.25    2.50
   1   7  -7   19.24    1.15
   1   7  -7   20.01    0.88
   1   7  -7   20.59    0.89
  -1  -7   7   20.16    1.14
  -1  -7   7   22.77    1.10
   0   7  -7    4.10    0.38
   0   7  -7    4.59    0.76
   0  -7   7    5.76    0.68
   0  -7   7    4.53    0.38
   0  -7   7    4.43    0.58
  -1   7  -7   31.13    1.56
  -1   7  -7   32.45    1.39
   1  -7   7   30.79    1.57
   1  -7   7   31.89    1.39
   1  -7   7   32.73    1.53
  -2   7  -7   14.14    0.78
  -2   7  -7   14.12    0.96
   2  -7   7   14.78    0.96
   2  -7   7   13.20    0.99
  -3   7  -7   25.14    1.35
  -3   7  -7   25.46    1.22
   3  -7   7   25.52    1.37
   3  -7   7   25.37    1.34
  -4   7  -7    0.95    0.53
  -4   7  -7    0.86    0.51
   4  -7   7    1.37    0.52
  -5   7  -7    0.04    0.49
  -5   7  -7    0.06    0.52
   5  -7   7    0.33    0.58
  -6   7  -7   12.88    0.97
   6  -7   7   13.27    1.05
   6  -7   7    9.82    1.11
  -7   7  -7    0.37    0.49
  -7   7  -7    0.58    0.63
   7  -7   7    0.93    0.62
  -8   7  -7   -0.16    0.65
   8  -7   7   -0.31    0.63
  -9   7  -7    1.47    0.69
   9  -7   7    2.09    0.73
   9  -7   7   -0.12    0.90
 -10   7  -7   -0.40    0.76
  10  -7   7    0.82    0.79
  10  -7   7   -1.24    0.99
  11   6  -7   -0.37    0.84
  10   6  -7   -0.55    0.74
   9   6  -7    0.46    0.43
   9   6  -7    0.26    0.74
  -9  -6   7   -1.29    0.87
   8   6  -7    5.98    1.01
   8   6  -7    4.72    0.64
  -8  -6   7    5.52    0.92
   7   6  -7    0.68    0.64
   7   6  -7    0.53    0.30
  -7  -6   7    0.81    0.69
   6   6  -7    1.57    0.56
   6   6  -7    1.28    0.16
   6   6  -7    1.59    0.25
  -6  -6   7    1.23    0.64
  -6  -6   7    1.52    0.28
  -6  -6   7    1.42    0.20
   5   6  -7    5.23    0.45
   5   6  -7    4.77    0.34
   5   6  -7    4.93    0.83
  -5  -6   7    5.35    0.91
   4   6  -7   11.37    0.94
   4   6  -7   11.89    0.72
  -4  -6   7   10.75    0.92
  -4  -6   7   14.37    0.79
   3   6  -7    7.50    0.61
   3   6  -7    6.54    0.71
  -3  -6   7    7.25    0.84
   2   6  -7    1.23    0.34
   2   6  -7    0.67    0.47
  -2  -6   7    0.87    0.48
   1   6  -7   20.26    1.12
  -1  -6   7   19.59    1.11
  -1  -6   7   21.59    1.05
   0   6  -7   28.30    1.37
   0  -6   7   26.73    1.38
   0  -6   7   27.08    1.15
   0  -6   7   28.06    1.32
  -1   6  -7   28.37    1.24
  -1   6  -7   28.58    1.41
   1  -6   7   26.83    1.38
   1  -6   7   27.22    1.42
   1  -6   7   31.62    1.27
  -2   6  -7    9.75    0.64
  -2   6  -7    9.92    0.89
   2  -6   7   10.07    0.81
   2  -6   7   10.72    0.86
  -3   6  -7    1.90    0.36
  -3   6  -7    2.38    0.53
   3  -6   7    1.60    0.47
   3  -6   7    1.70    0.46
  -4   6  -7   37.87    1.85
  -4   6  -7   39.20    1.85
   4  -6   7   42.12    1.82
   4  -6   7   37.87    1.82
  -5   6  -7    4.68    0.79
  -5   6  -7    4.98    0.81
   5  -6   7    5.18    0.80
   5  -6   7    3.15    0.59
  -6   6  -7    5.40    0.85
  -6   6  -7    4.88    0.82
   6  -6   7    5.00    0.73
  -7   6  -7    3.51    0.56
   7  -6   7    2.99    0.60
  -8   6  -7   -0.16    0.57
  -8   6  -7    0.24    0.51
   8  -6   7    0.39    0.60
  -9   6  -7    0.93    0.64
   9  -6   7   -1.39    0.83
   9  -6   7    0.17    0.66
 -10   6  -7    0.38    0.68
  10  -6   7    0.34    0.78
  10  -6   7    0.00    0.91
  12   5  -7   -0.03    0.84
 -12  -5   7    0.63    1.26
  11   5  -7    0.55    0.77
 -11  -5   7   -2.17    1.07
  10   5  -7    0.97    0.73
  10   5  -7    1.55    0.48
 -10  -5   7   -1.15    0.97
   9   5  -7   -0.26    0.72
   9   5  -7    0.02    0.39
  -9  -5   7   -2.46    1.49
   8   5  -7    1.10    0.59
   8   5  -7    0.69    0.34
  -8  -5   7   -0.27    0.76
   7   5  -7    3.66    0.48
   7   5  -7    3.65    0.61
  -7  -5   7    4.57    0.57
  -7  -5   7    2.98    0.72
   6   5  -7    2.95    0.57
   6   5  -7    3.00    0.31
   6   5  -7    3.17    0.36
  -6  -5   7    2.69    0.44
  -6  -5   7    2.39    0.62
   5   5  -7   25.37    1.35
   5   5  -7   26.86    1.15
   5   5  -7   25.82    1.06
  -5  -5   7   23.85    1.42
   4   5  -7   11.16    0.86
   4   5  -7   11.86    0.70
  -4  -5   7   10.98    0.88
   3   5  -7   32.73    1.47
   3   5  -7   31.82    1.54
  -3  -5   7   34.54    1.46
  -3  -5   7   31.79    1.59
   2   5  -7   40.21    1.81
   2   5  -7   41.00    1.74
  -2  -5   7   40.15    1.75
  -2  -5   7   37.82    1.80
   1   5  -7   11.18    0.84
   1   5  -7   10.57    0.71
  -1  -5   7   10.52    0.72
  -1  -5   7   10.24    0.83
   0   5  -7   31.86    1.53
   0   5  -7   33.41    1.36
   0  -5   7   31.05    1.50
   0  -5   7   34.44    1.36
   0  -5   7   32.08    1.52
  -1   5  -7    6.06    0.44
  -1   5  -7    5.95    0.75
   1  -5   7    5.47    0.66
   1  -5   7    5.37    0.71
  -2   5  -7   57.47    2.54
  -2   5  -7   60.13    2.43
   2  -5   7   62.04    2.45
   2  -5   7   53.61    2.49
   2  -5   7   57.59    2.52
  -3   5  -7   15.18    0.83
  -3   5  -7   14.06    1.01
   3  -5   7   14.78    0.94
   3  -5   7   13.62    0.89
   3  -5   7   13.36    0.94
  -4   5  -7    1.48    0.45
  -4   5  -7    1.29    0.51
   4  -5   7    1.57    0.47
  -5   5  -7    6.55    0.82
  -5   5  -7    6.97    0.76
   5  -5   7    4.42    0.68
   5  -5   7    6.31    0.72
  -6   5  -7    0.38    0.50
  -6   5  -7    0.08    0.46
   6  -5   7   -0.26    0.55
  -7   5  -7    0.77    0.50
  -7   5  -7    1.22    0.53
   7  -5   7    1.36    0.59
  -8   5  -7    4.08    0.61
   8  -5   7    1.99    0.83
   8  -5   7    4.06    0.69
  -9   5  -7    0.79    0.60
  -9   5  -7    0.59    0.82
   9  -5   7    0.09    0.68
   9  -5   7   -1.01    0.85
 -10   5  -7   -0.80    0.66
  10  -5   7   -1.16    0.92
  10  -5   7   -0.91    0.71
  12   4  -7   -0.86    0.75
 -12  -4   7    1.00    1.09
  11   4  -7    0.31    0.55
  11   4  -7   -0.26    0.67
 -11  -4   7   -1.48    0.98
  10   4  -7    0.74    0.71
  10   4  -7    0.63    0.46
 -10  -4   7   -1.95    0.89
   9   4  -7    1.17    0.40
   9   4  -7    1.65    0.59
   8   4  -7    1.40    0.54
   8   4  -7    1.77    0.34
  -8  -4   7    0.68    0.77
   7   4  -7    1.07    0.49
   7   4  -7    1.13    0.28
  -7  -4   7   -0.15    0.50
  -7  -4   7    0.13    0.65
   6   4  -7   10.35    0.54
   6   4  -7    9.69    0.85
   6   4  -7   10.49    0.55
  -6  -4   7    9.12    0.96
  -6  -4   7    9.21    0.70
   5   4  -7    1.52    0.16
   5   4  -7    1.68    0.46
   5   4  -7    2.17    0.29
  -5  -4   7    1.53    0.20
  -5  -4   7    0.59    0.51
   4   4  -7   12.20    0.87
   4   4  -7   13.73    0.74
  -4  -4   7   11.52    0.88
  -4  -4   7   11.91    0.79
   3   4  -7    6.57    0.70
   3   4  -7    7.19    0.57
  -3  -4   7    4.77    0.64
  -3  -4   7    5.30    0.66
   2   4  -7   17.63    0.93
   2   4  -7   17.34    0.96
  -2  -4   7   16.90    1.01
  -2  -4   7   17.45    0.96
   1   4  -7   13.40    0.78
   1   4  -7   12.69    0.83
  -1  -4   7   11.59    0.83
  -1  -4   7   12.43    0.85
   0   4  -7   57.00    2.50
   0  -4   7   63.33    2.37
   0  -4   7   54.14    2.48
   0  -4   7   56.44    2.48
  -1   4  -7    4.31    0.71
  -1   4  -7    4.09    0.39
   1  -4   7    3.97    0.56
   1  -4   7    3.93    0.50
   1  -4   7    3.90    0.44
  -2   4  -7    0.11    0.26
  -2   4  -7    0.09    0.53
   2  -4   7   -0.76    0.44
   2  -4   7   -0.12    0.39
  -3   4  -7   55.64    2.50
  -3   4  -7   59.80    2.42
   3  -4   7   57.67    2.46
   3  -4   7   58.05    2.49
   3  -4   7   52.96    2.49
  -4   4  -7    1.85    0.43
  -4   4  -7    1.87    0.51
   4  -4   7    1.84    0.46
   4  -4   7    0.38    0.54
  -5   4  -7   10.80    0.80
  -5   4  -7   10.80    0.94
   5  -4   7   11.22    0.91
   5  -4   7    8.05    0.99
  -6   4  -7    4.31    0.69
  -6   4  -7    4.58    0.60
   6  -4   7    3.29    0.56
   6  -4   7    2.26    0.69
  -7   4  -7    0.23    0.52
  -7   4  -7    0.11    0.45
   7  -4   7   -1.44    1.17
   7  -4   7    0.33    0.53
  -8   4  -7    0.73    0.53
  -8   4  -7    1.31    0.55
   8  -4   7    0.69    0.61
   8  -4   7   -0.76    0.73
   9  -4   7   -0.99    0.82
   9  -4   7   -0.04    0.66
  10  -4   7   -1.75    0.91
  10  -4   7    0.39    0.73
  12   3  -7    0.42    0.62
  12   3  -7    0.02    0.71
 -12  -3   7   -0.46    0.87
  11   3  -7    0.20    0.75
  11   3  -7   -0.04    0.52
  10   3  -7   -0.17    0.44
  10   3  -7    0.43    0.57
 -10  -3   7   -1.20    0.74
   9   3  -7    2.90    0.57
   9   3  -7    2.63    0.42
   8   3  -7    1.04    0.33
   8   3  -7    0.65    0.48
  -8  -3   7   -0.17    0.65
   7   3  -7    0.37    0.47
   7   3  -7    0.64    0.26
   7   3  -7    0.76    0.23
  -7  -3   7   -0.17    0.62
  -7  -3   7    0.20    0.45
   6   3  -7   32.17    1.57
   6   3  -7   32.84    1.38
   6   3  -7   33.44    1.40
  -6  -3   7   31.13    1.70
   5   3  -7    2.22    0.31
   5   3  -7    1.91    0.43
   5   3  -7    1.40    0.19
  -5  -3   7    0.90    0.55
   4   3  -7    4.40    0.54
   4   3  -7    4.11    0.65
  -4  -3   7    3.25    0.53
  -4  -3   7    2.49    0.54
  -4  -3   7    4.15    0.24
   3   3  -7   36.21    1.53
   3   3  -7   33.43    1.57
  -3  -3   7   32.39    1.56
  -3  -3   7   32.26    1.62
   2   3  -7   43.10    1.94
   2   3  -7   45.29    1.91
  -2  -3   7   41.57    1.93
  -2  -3   7   44.25    1.97
   1   3  -7   38.21    1.71
   1   3  -7   38.64    1.69
  -1  -3   7   31.13    1.55
  -1  -3   7   36.57    1.72
  -1  -3   7   37.65    1.67
  -1  -3   7   38.87    1.51
   0   3  -7   18.66    1.05
   0   3  -7   18.80    0.79
   0  -3   7   14.68    0.88
   0  -3   7   16.76    0.98
   0  -3   7   17.56    0.95
  -1   3  -7  148.43    5.76
  -1   3  -7  144.17    5.65
  -1   3  -7  133.53    5.74
   1  -3   7  135.31    5.73
   1  -3   7  137.26    5.74
   1  -3   7  137.27    5.69
  -2   3  -7   18.64    1.15
  -2   3  -7   20.08    0.93
   2  -3   7   18.06    1.08
   2  -3   7   19.62    1.01
   2  -3   7   17.56    1.09
  -3   3  -7    8.11    0.60
  -3   3  -7    6.54    0.85
   3  -3   7    6.96    0.78
   3  -3   7    5.99    0.84
   3  -3   7    7.96    0.69
  -4   3  -7   65.45    2.77
  -4   3  -7   64.08    2.85
   4  -3   7   66.45    2.84
   4  -3   7   66.02    2.88
  -5   3  -7   -0.06    0.35
  -5   3  -7   -0.11    0.52
   5  -3   7   -1.12    0.58
   5  -3   7   -0.18    0.49
  -6   3  -7   11.49    0.83
  -6   3  -7   11.75    0.98
   6  -3   7   11.33    0.97
   6  -3   7    9.43    1.16
  -7   3  -7    6.04    0.92
  -7   3  -7    4.68    0.74
   7  -3   7    5.62    0.89
   7  -3   7    4.28    0.80
  -8   3  -7    0.01    0.48
   8  -3   7    0.13    0.58
   8  -3   7   -0.95    0.80
  -9   3  -7    3.58    0.68
   9  -3   7    2.07    0.91
   9  -3   7    4.51    0.73
  10  -3   7   -0.86    0.92
  10  -3   7   -0.31    0.70
  12   2  -7    0.16    0.61
 -12  -2   7   -1.56    0.86
  11   2  -7   -0.72    0.59
  11   2  -7    0.57    0.53
 -11  -2   7   -1.72    0.79
  10   2  -7    4.22    0.62
  10   2  -7    4.41    0.77
 -10  -2   7    2.86    0.84
   9   2  -7   -0.07    0.37
   9   2  -7   -0.08    0.49
  -9  -2   7   -1.02    0.47
   8   2  -7    7.61    0.62
   8   2  -7    7.77    0.79
  -8  -2   7    7.76    0.53
  -8  -2   7    6.40    0.96
   7   2  -7    9.13    0.78
   7   2  -7    8.78    0.59
   7   2  -7    9.29    0.55
  -7  -2   7    6.61    0.99
  -7  -2   7    6.71    0.82
   6   2  -7    2.78    0.43
   6   2  -7    2.87    0.46
  -6  -2   7    1.83    0.57
  -6  -2   7    1.95    0.51
   5   2  -7   22.15    0.97
   5   2  -7   22.66    1.16
   5   2  -7   22.74    1.05
  -5  -2   7   21.08    1.22
  -5  -2   7   20.49    1.22
   4   2  -7   11.62    0.70
   4   2  -7    9.94    0.78
  -4  -2   7    8.84    0.89
  -4  -2   7    8.32    0.86
   3   2  -7   16.07    0.95
   3   2  -7   17.08    0.91
  -3  -2   7   15.19    0.98
  -3  -2   7   14.98    1.05
  -3  -2   7   16.67    0.74
  -3  -2   7   16.31    0.76
   2   2  -7    7.79    0.65
   2   2  -7    7.56    0.75
  -2  -2   7    8.06    0.41
  -2  -2   7    8.01    0.48
  -2  -2   7    6.32    0.67
  -2  -2   7    7.00    0.80
   1   2  -7   30.12    1.51
   1   2  -7   32.86    1.43
  -1  -2   7   29.25    1.42
  -1  -2   7   30.00    1.53
  -1  -2   7   31.99    1.32
  -1  -2   7   31.67    1.37
   0   2  -7    6.53    0.77
   0   2  -7    8.61    0.62
   0   2  -7    7.88    0.49
   0  -2   7    7.05    0.64
   0  -2   7    7.74    0.61
   0  -2   7    6.08    0.83
  -1   2  -7   44.63    1.88
  -1   2  -7   46.51    1.91
  -1   2  -7   43.25    2.03
   1  -2   7   43.57    1.92
   1  -2   7   42.29    2.03
   1  -2   7   44.00    1.96
  -2   2  -7  135.09    5.43
  -2   2  -7  125.73    5.49
  -2   2  -7  135.47    5.43
   2  -2   7  136.21    5.49
   2  -2   7  135.85    5.43
   2  -2   7  129.70    5.50
  -3   2  -7    7.40    0.90
  -3   2  -7   10.32    0.61
   3  -2   7    7.45    0.89
   3  -2   7    7.48    0.81
   3  -2   7    8.50    0.66
  -4   2  -7    7.60    0.56
  -4   2  -7    6.59    0.59
  -4   2  -7    5.52    0.89
   4  -2   7    5.40    0.96
   4  -2   7    6.44    0.86
  -5   2  -7    5.23    0.87
  -5   2  -7    5.53    0.59
   5  -2   7    4.57    0.62
   5  -2   7    5.46    0.73
  -6   2  -7    1.25    0.39
  -6   2  -7    0.99    0.59
   6  -2   7    0.33    0.68
   6  -2   7    0.85    0.57
  -7   2  -7    6.96    0.86
  -7   2  -7    5.13    0.71
   7  -2   7    5.61    0.91
   7  -2   7    4.23    0.85
  -8   2  -7    0.61    0.65
   8  -2   7   -0.20    0.86
   8  -2   7    0.73    0.61
  -9   2  -7    0.73    0.69
   9  -2   7   -0.29    0.64
   9  -2   7   -0.35    0.90
 -10   2  -7    0.09    0.73
  10  -2   7   -1.67    0.93
  13   1  -7    0.19    0.70
 -13  -1   7   -0.98    0.83
  12   1  -7    0.19    0.60
 -12  -1   7   -0.96    0.83
  11   1  -7   -0.24    0.56
  11   1  -7    0.48    0.52
 -11  -1   7   -0.72    0.77
  10   1  -7    0.80    0.45
  10   1  -7    0.79    0.52
 -10  -1   7    0.47    0.51
 -10  -1   7   -0.20    0.73
   9   1  -7    3.03    0.53
   9   1  -7    3.57    0.45
  -9  -1   7    2.75    0.54
  -9  -1   7    2.24    0.81
   8   1  -7    0.25    0.44
   8   1  -7    0.18    0.35
  -8  -1   7   -0.06    0.63
  -8  -1   7   -0.50    0.48
   7   1  -7    9.04    0.81
   7   1  -7    9.84    0.61
   7   1  -7   10.61    0.67
  -7  -1   7    8.91    0.90
  -7  -1   7    7.80    1.00
   6   1  -7    0.13    0.31
   6   1  -7    0.15    0.27
   6   1  -7    0.71    0.41
  -6  -1   7   -0.38    0.47
  -6  -1   7   -0.70    0.54
   5   1  -7    3.22    0.51
   5   1  -7    3.04    0.48
  -5  -1   7    2.93    0.54
  -5  -1   7    2.26    0.53
   4   1  -7   26.36    1.16
   4   1  -7   29.59    1.34
   4   1  -7   24.63    1.31
  -4  -1   7   27.46    1.15
  -4  -1   7   25.51    1.37
  -4  -1   7   23.98    1.32
   3   1  -7   44.90    2.07
  -3  -1   7   47.20    1.94
  -3  -1   7   46.45    2.06
  -3  -1   7   47.27    1.93
  -3  -1   7   46.38    2.10
   2   1  -7    1.99    0.49
  -2  -1   7    2.43    0.25
  -2  -1   7    2.26    0.30
  -2  -1   7    2.54    0.54
  -2  -1   7    1.92    0.41
   1   1  -7   12.05    0.96
   1   1  -7   14.35    0.80
  -1  -1   7   11.66    0.89
  -1  -1   7   11.48    0.76
  -1  -1   7   12.99    0.67
   0   1  -7  121.63    4.82
   0   1  -7  111.11    4.88
   0   1  -7  122.28    4.79
   0  -1   7  116.16    4.80
   0  -1   7  113.90    4.88
   0  -1   7  119.28    4.82
  -1   1  -7    1.58    0.31
  -1   1  -7    1.17    0.54
   1  -1   7    0.96    0.51
   1  -1   7    1.67    0.44
   1  -1   7    1.61    0.33
  -2   1  -7   16.99    1.18
  -2   1  -7   20.44    0.93
   2  -1   7   18.66    0.95
   2  -1   7   19.05    1.13
   2  -1   7   17.51    1.20
  -3   1  -7    4.62    0.66
   3  -1   7    4.80    0.66
   3  -1   7    4.48    0.53
   3  -1   7    4.94    0.65
  -4   1  -7    0.63    0.29
  -4   1  -7   -0.15    0.52
  -4   1  -7    0.53    0.28
   4  -1   7   -0.15    0.57
   4  -1   7   -0.10    0.56
  -5   1  -7   21.68    1.34
  -5   1  -7   23.30    1.10
   5  -1   7   22.54    1.45
   5  -1   7   23.44    1.35
  -6   1  -7    0.31    0.35
  -6   1  -7    0.89    0.63
   6  -1   7   -0.65    0.77
   6  -1   7    0.11    0.59
  -7   1  -7    1.46    0.64
   7  -1   7    1.60    0.65
   7  -1   7    1.28    0.83
  -8   1  -7    0.75    0.68
   8  -1   7   -0.71    0.82
   8  -1   7    0.44    0.65
  -9   1  -7    0.18    0.71
   9  -1   7   -0.62    0.96
   9  -1   7    0.35    0.66
  13   0  -7    0.22    0.71
 -13   0   7    1.19    0.97
  12   0  -7    0.79    0.62
 -12   0   7   -0.15    0.85
 -11   0   7   -0.30    0.81
  10   0  -7    0.06    0.48
  10   0  -7   -0.15    0.48
 -10   0   7    0.17    0.52
 -10   0   7   -0.10    0.75
   9   0  -7    3.20    0.49
   9   0  -7    3.41    0.51
  -9   0   7    3.59    0.56
  -9   0   7    3.05    0.77
   8   0  -7   -0.14    0.43
   8   0  -7   -0.01    0.37
  -8   0   7   -0.70    0.60
  -8   0   7   -0.34    0.46
   7   0  -7    6.39    0.77
   7   0  -7    7.86    0.63
  -7   0   7    6.43    0.74
  -7   0   7    6.34    0.83
   6   0  -7   12.22    0.74
   6   0  -7   10.09    0.83
  -6   0   7   13.67    0.73
  -6   0   7   10.72    0.91
  -6   0   7   10.55    1.01
   5   0  -7   13.48    0.96
   5   0  -7   14.53    0.80
  -5   0   7   15.57    0.76
  -5   0   7   13.32    0.96
  -5   0   7   14.65    1.02
   4   0  -7   12.07    0.70
   4   0  -7   11.90    0.93
  -4   0   7   13.49    0.69
  -4   0   7   11.48    0.95
  -4   0   7   10.95    0.93
   3   0  -7    1.52    0.52
  -3   0   7    2.24    0.28
  -3   0   7    2.36    0.32
  -3   0   7    3.06    0.56
  -3   0   7    2.40    0.48
   2   0  -7    8.02    0.87
  -2   0   7    8.63    0.73
  -2   0   7    9.16    0.58
  -2   0   7    9.33    0.91
  -2   0   7    9.25    0.66
   1   0  -7    3.13    0.57
  -1   0   7    3.36    0.48
  -1   0   7    3.72    0.54
  -1   0   7    3.00    0.52
  -1   0   7    4.28    0.57
   0   0  -7   85.18    3.78
   0   0  -7   94.39    3.70
   0   0   7   87.79    3.71
   0   0   7   84.76    3.66
   0   0   7   87.60    3.78
   0   0   7   95.27    3.69
  -1   0  -7   14.71    1.11
  -1   0  -7   19.15    0.88
   1   0   7   15.19    0.83
   1   0   7   15.79    1.11
   1   0   7   16.25    1.00
  -2   0  -7    3.41    0.61
   2   0   7    4.09    0.56
   2   0   7    5.08    0.66
   2   0   7    3.61    0.49
  -3   0  -7   49.40    2.38
  -3   0  -7   55.22    2.21
   3   0   7   52.59    2.40
   3   0   7   52.38    2.20
   3   0   7   52.46    2.40
  -4   0  -7    2.77    0.61
   4   0   7    3.17    0.68
   4   0   7    3.03    0.60
  -5   0  -7    8.07    1.02
   5   0   7    7.36    1.10
   5   0   7    8.04    1.00
  -6   0  -7   11.67    1.12
   6   0   7   10.70    1.32
   6   0   7   11.92    1.25
  -7   0  -7   -0.80    0.66
   7   0   7   -1.16    0.83
   7   0   7   -0.30    0.61
  -8   0  -7    1.99    0.75
   8   0   7    2.05    0.69
   8   0   7    1.34    0.89
  -9   0  -7   -0.17    0.75
   9   0   7   -1.18    0.99
   9   0   7    1.06    0.71
  12  -1  -7    0.31    0.67
 -12   1   7   -0.70    0.90
  11  -1  -7    0.29    0.60
 -11   1   7   -0.05    0.62
 -11   1   7    0.18    0.86
  10  -1  -7   -0.82    0.48
  10  -1  -7    0.10    0.52
 -10   1   7    0.82    0.80
 -10   1   7   -0.04    0.57
   9  -1  -7    3.51    0.54
   9  -1  -7    4.44    0.76
  -9   1   7    3.63    0.61
  -9   1   7    3.44    0.81
   8  -1  -7    6.97    0.80
   8  -1  -7    8.84    0.79
  -8   1   7    7.62    1.10
  -8   1   7    7.18    0.91
   7  -1  -7    4.72    0.58
   7  -1  -7    6.04    0.69
  -7   1   7    6.03    0.74
  -7   1   7    5.22    0.62
   6  -1  -7   14.65    1.05
   6  -1  -7   17.44    0.91
  -6   1   7   14.73    1.05
  -6   1   7   15.35    1.04
   5  -1  -7    3.64    0.55
   5  -1  -7    3.02    0.58
  -5   1   7    3.38    0.57
  -5   1   7    3.83    0.58
   4  -1  -7   45.07    2.11
  -4   1   7   46.31    2.07
  -4   1   7   45.81    2.11
  -4   1   7   46.36    1.97
   3  -1  -7   55.14    2.51
  -3   1   7   56.49    2.52
  -3   1   7   58.24    2.38
  -3   1   7   55.94    2.39
  -3   1   7   56.05    2.45
   2  -1  -7   91.62    3.52
   2  -1  -7   81.11    3.54
  -2   1   7   81.98    3.46
  -2   1   7   78.81    3.52
  -2   1   7   82.92    3.43
  -2   1   7   80.67    3.45
   1  -1  -7   20.27    1.27
  -1   1   7   22.47    1.28
  -1   1   7   21.40    1.13
  -1   1   7   20.66    1.04
   0  -1  -7   -0.26    0.56
   0   1   7    0.82    0.29
   0   1   7    0.79    0.42
   0   1   7    0.67    0.53
  -1  -1  -7  111.24    4.86
  -1  -1  -7  131.10    4.76
   1   1   7  108.83    4.83
   1   1   7  115.16    4.71
   1   1   7  112.33    4.81
  -2  -1  -7    2.96    0.60
   2   1   7    3.51    0.44
   2   1   7    4.70    0.62
   2   1   7    3.68    0.56
  -3  -1  -7   11.47    1.06
   3   1   7   13.12    1.09
   3   1   7   12.30    1.06
  -4  -1  -7   28.79    1.63
  -4  -1  -7   30.35    1.27
   4   1   7   29.42    1.66
   4   1   7   30.43    1.61
  -5  -1  -7    4.03    0.77
   5   1   7    4.85    0.71
   5   1   7    3.38    0.82
  -6  -1  -7    4.19    0.75
   6   1   7    4.30    0.91
   6   1   7    4.53    0.74
  -7  -1  -7    4.96    0.87
   7   1   7    3.47    0.98
   7   1   7    4.87    0.74
  -8  -1  -7    0.26    0.75
   8   1   7   -0.47    0.69
   8   1   7   -0.53    0.97
  12  -2  -7    0.68    0.71
 -12   2   7   -0.23    0.91
  11  -2  -7    2.67    0.67
 -11   2   7    2.16    0.89
 -11   2   7    2.29    0.72
 -10   2   7    1.11    0.66
 -10   2   7    1.20    0.80
   9  -2  -7   -0.42    0.56
   9  -2  -7    0.75    0.52
  -9   2   7    0.81    0.60
  -9   2   7    0.30    0.72
   8  -2  -7    0.33    0.46
   8  -2  -7   -0.85    0.52
  -8   2   7   -0.02    0.55
  -8   2   7    0.21    0.70
   7  -2  -7    0.48    0.44
  -7   2   7    0.08    0.61
  -7   2   7    0.30    0.54
   6  -2  -7    8.51    0.75
   6  -2  -7    6.62    0.71
  -6   2   7    8.52    0.96
  -6   2   7    9.36    0.91
   5  -2  -7   19.03    1.31
   5  -2  -7   24.66    1.18
  -5   2   7   23.87    1.30
  -5   2   7   23.72    1.33
  -4   2   7    0.20    0.46
  -4   2   7    0.65    0.55
  -4   2   7    0.86    0.38
   3  -2  -7    8.41    0.98
  -3   2   7   11.24    0.80
  -3   2   7    9.89    0.80
  -3   2   7   10.25    0.97
   2  -2  -7    2.34    0.66
   2  -2  -7   -0.20    0.53
  -2   2   7    0.72    0.38
  -2   2   7    0.80    0.41
  -2   2   7    0.84    0.59
   1  -2  -7   57.51    2.68
   1  -2  -7   66.37    2.65
  -1   2   7   59.40    2.60
  -1   2   7   58.46    2.51
  -1   2   7   57.18    2.64
   0  -2  -7    4.25    0.55
   0  -2  -7    4.47    0.67
   0   2   7    4.73    0.57
   0   2   7    5.58    0.91
   0   2   7    4.65    0.49
  -1  -2  -7    2.52    0.65
   1   2   7    3.08    0.63
   1   2   7    2.81    0.47
   1   2   7    3.45    0.56
  -2  -2  -7   38.31    1.95
   2   2   7   39.32    1.91
   2   2   7   40.35    1.64
   2   2   7   38.73    1.91
  -3  -2  -7    3.78    0.82
   3   2   7    5.35    0.73
   3   2   7    5.40    0.70
  -4  -2  -7   13.31    1.22
   4   2   7   14.89    1.23
  -5  -2  -7    4.03    0.82
   5   2   7    4.92    0.96
   5   2   7    3.97    0.81
  -6  -2  -7    1.56    0.81
   6   2   7    1.25    0.87
   6   2   7    1.51    0.70
  -7  -2  -7    0.96    0.81
   7   2   7    1.38    0.94
   7   2   7    1.74    0.71
  -8  -2  -7   -0.36    0.81
   8   2   7    0.04    0.97
   8   2   7    0.43    0.72
  12  -3  -7    1.20    0.76
 -12   3   7   -0.49    0.95
  11  -3  -7    1.22    0.71
 -11   3   7   -0.36    0.73
 -11   3   7    0.57    0.90
  10  -3  -7    1.30    0.64
 -10   3   7    0.78    0.70
 -10   3   7    0.84    0.86
  -9   3   7   -0.39    0.76
   8  -3  -7    0.35    0.54
  -8   3   7    0.25    0.65
  -8   3   7    0.04    0.62
   7  -3  -7   11.97    0.99
  -7   3   7   11.65    1.08
  -7   3   7   10.91    1.14
   6  -3  -7    0.44    0.47
  -6   3   7    0.17    0.54
  -6   3   7   -0.47    0.57
   5  -3  -7   -0.25    0.45
  -5   3   7    0.11    0.52
  -5   3   7    0.03    0.58
   4  -3  -7    4.78    0.75
  -4   3   7    7.02    0.96
  -4   3   7    7.48    0.80
  -4   3   7    6.54    0.80
   3  -3  -7   12.61    1.16
  -3   3   7   15.99    0.99
  -3   3   7   15.61    0.97
  -3   3   7   16.01    1.16
   2  -3  -7   -0.86    0.54
  -2   3   7    0.57    0.46
  -2   3   7    0.47    0.36
  -2   3   7    0.32    0.60
   1  -3  -7   -0.95    0.55
  -1   3   7    0.08    0.61
  -1   3   7   -0.15    0.31
  -1   3   7    0.14    0.47
   0  -3  -7   31.06    1.69
   0  -3  -7   32.46    1.51
   0   3   7   32.18    1.39
   0   3   7   30.50    1.60
   0   3   7   31.71    1.67
  -1  -3  -7    3.76    0.73
   1   3   7    3.93    0.39
   1   3   7    3.54    0.63
   1   3   7    3.86    0.64
   2   3   7    8.05    1.05
   2   3   7    6.87    1.01
  -3  -3  -7   17.40    1.35
   3   3   7   18.94    1.40
   3   3   7   17.18    1.42
  -4  -3  -7    3.83    0.79
   4   3   7    6.68    0.81
   4   3   7    5.81    0.85
  -5  -3  -7    7.17    0.96
   5   3   7    7.99    1.34
   5   3   7    8.44    1.12
  -6  -3  -7    3.41    0.91
   6   3   7    3.09    0.75
   6   3   7    2.58    0.90
  -7  -3  -7   -0.63    0.82
   7   3   7   -1.84    0.98
   7   3   7   -1.12    0.72
  11  -4  -7    0.74    0.75
 -11   4   7   -0.91    0.79
 -11   4   7    0.66    0.99
  10  -4  -7    0.60    0.70
 -10   4   7   -0.94    0.77
 -10   4   7   -0.67    0.90
   9  -4  -7    0.47    0.62
  -9   4   7   -0.49    0.84
  -9   4   7    0.51    0.74
   8  -4  -7    0.22    0.60
  -8   4   7   -0.21    0.76
  -8   4   7   -0.30    0.66
   7  -4  -7    0.01    0.66
   7  -4  -7   -0.35    0.55
  -7   4   7   -0.49    0.67
  -7   4   7   -0.07    0.75
   6  -4  -7    5.97    0.90
  -6   4   7    5.97    0.75
  -5   4   7    0.52    0.65
  -5   4   7    0.23    0.54
  -4   4   7    1.23    0.62
  -4   4   7    1.57    0.52
  -4   4   7    1.41    0.50
  -3   4   7   -0.49    0.61
  -3   4   7   -0.49    0.42
  -3   4   7    0.29    0.51
   2  -4  -7   10.94    1.18
  -2   4   7   13.28    1.09
  -2   4   7   14.24    1.09
  -2   4   7   14.31    0.87
   1  -4  -7    1.00    0.67
  -1   4   7    2.30    0.57
  -1   4   7    1.82    0.65
  -1   4   7    2.77    0.37
   0  -4  -7    7.30    0.90
   0   4   7    7.69    1.02
   0   4   7    8.23    1.08
  -1  -4  -7   17.32    1.46
  -2  -4  -7    5.49    0.84
   2   4   7    4.98    0.75
   2   4   7    6.46    0.80
  -3  -4  -7   10.55    1.33
   3   4   7   13.40    1.21
   3   4   7   12.82    1.30
  -4  -4  -7    2.83    0.90
   4   4   7    4.09    0.80
   4   4   7    2.74    0.83
  -5  -4  -7    0.28    0.86
   5   4   7    0.79    0.76
   5   4   7    1.22    0.91
  -6  -4  -7    0.50    0.86
   6   4   7    0.34    0.73
   6   4   7    0.07    0.96
  11  -5  -7    2.14    0.80
 -11   5   7    1.03    0.88
 -11   5   7    0.67    1.05
  10  -5  -7    0.10    0.74
 -10   5   7    0.05    0.83
 -10   5   7   -0.25    0.95
   9  -5  -7    0.28    0.71
  -9   5   7    0.07    0.78
  -9   5   7   -0.75    0.90
   8  -5  -7    0.00    0.67
  -8   5   7   -0.17    0.81
  -8   5   7   -0.15    0.73
   7  -5  -7    1.16    0.66
  -7   5   7    0.37    0.72
  -7   5   7   -0.12    0.69
   6  -5  -7    0.07    0.57
  -6   5   7    0.96    0.76
  -6   5   7    0.47    0.69
  -5   5   7    0.92    0.58
  -5   5   7   -0.13    0.63
   4  -5  -7    5.30    0.81
  -4   5   7    3.17    0.80
  -4   5   7    4.13    0.59
  -4   5   7    4.32    0.79
   3  -5  -7   -0.39    0.68
  -3   5   7    0.78    0.66
  -3   5   7   -0.02    0.68
  -3   5   7    0.25    0.45
   2  -5  -7   -0.07    0.72
  -2   5   7    0.51    0.39
  -2   5   7    0.52    0.67
   1  -5  -7   11.67    1.36
  -1   5   7   16.52    0.87
  -1   5   7   15.31    1.26
  -1   5   7   14.99    1.30
   0  -5  -7   -0.38    0.75
   0   5   7    0.88    0.67
   0   5   7    0.70    0.74
  -1  -5  -7    5.70    0.93
   1   5   7    5.89    0.80
   1   5   7    5.17    0.78
  -2  -5  -7   18.31    1.56
   2   5   7   16.23    1.45
   2   5   7   16.69    1.39
  -3  -5  -7   -0.38    0.83
   3   5   7    0.89    0.83
   3   5   7    0.99    0.75
  -4  -5  -7    4.66    1.02
   4   5   7    4.86    0.98
   4   5   7    5.71    0.86
  -5  -5  -7   -0.60    0.92
   5   5   7    0.44    0.96
   5   5   7    1.25    0.80
  10  -6  -7    0.27    0.83
 -10   6   7    0.16    0.88
 -10   6   7    0.17    1.01
   9  -6  -7   -0.17    0.75
  -9   6   7    0.88    0.93
  -9   6   7   -0.64    0.86
   8  -6  -7    0.54    0.76
  -8   6   7    0.00    0.78
  -8   6   7    0.35    0.87
   7  -6  -7    1.42    0.68
  -7   6   7    1.59    0.78
  -7   6   7    1.63    0.83
  -6   6   7    0.04    0.74
  -6   6   7    1.06    0.63
  -6   6   7    0.71    0.70
  -5   6   7    1.08    0.63
  -5   6   7    0.13    0.70
  -5   6   7   -0.44    0.67
  -4   6   7    0.12    0.54
  -4   6   7   -0.02    0.78
  -4   6   7    0.27    0.68
   3  -6  -7    2.68    0.90
  -3   6   7    2.09    0.72
  -3   6   7    1.75    0.50
  -3   6   7    0.98    0.80
   2  -6  -7    3.20    1.05
  -2   6   7    2.96    0.79
  -2   6   7    2.91    0.73
  -2   6   7    4.71    0.68
   1  -6  -7    6.38    1.08
  -1   6   7    6.04    0.89
  -1   6   7    7.20    0.93
   0  -6  -7    5.04    1.03
   0   6   7    5.50    0.86
   0   6   7    5.47    0.88
  -1  -6  -7    1.30    0.93
   1   6   7    3.87    0.87
   1   6   7    2.22    0.80
  -2  -6  -7    0.22    0.94
   2   6   7    0.69    0.88
   2   6   7    1.43    0.84
  -3  -6  -7    2.63    1.08
   3   6   7    4.02    0.87
   3   6   7    2.21    0.95
  -4  -6  -7   -0.63    0.94
   4   6   7    0.56    0.95
   4   6   7    2.57    0.89
   9  -7  -7    0.63    0.85
  -9   7   7   -0.82    0.96
  -9   7   7    0.23    0.93
   8  -7  -7    0.41    0.77
  -8   7   7   -0.64    0.90
  -8   7   7   -0.21    0.91
  -7   7   7    1.23    0.82
  -7   7   7    1.27    0.87
  -7   7   7    1.18    0.78
  -6   7   7   -0.68    0.85
  -6   7   7    0.50    0.74
  -6   7   7    0.40    0.74
   5  -7  -7    3.34    1.32
  -5   7   7    1.24    0.80
  -5   7   7    2.43    0.92
  -5   7   7    2.17    0.70
  -4   7   7    0.58    0.59
  -4   7   7   -0.06    0.78
  -4   7   7    0.19    0.72
  -3   7   7    6.94    0.95
  -3   7   7    6.72    0.93
   2  -7  -7    0.21    1.09
  -2   7   7    0.47    0.87
  -2   7   7   -0.16    0.79
   1  -7  -7   -1.42    1.12
  -1   7   7    0.66    0.87
  -1   7   7    0.15    0.82
   0  -7  -7    5.27    1.31
   0   7   7    6.01    1.02
   0   7   7    5.09    0.92
  -1  -7  -7   -1.89    1.09
   1   7   7   -0.38    0.88
   1   7   7   -0.59    0.93
  -2  -7  -7    1.90    1.14
   2   7   7    2.81    0.94
   2   7   7    3.41    1.04
  -7   8   7   -0.29    1.57
  -7   8   7   -0.55    0.86
  -7   8   7    1.28    0.86
  -6   8   7    1.29    0.88
  -6   8   7    2.45    0.84
  -6   8   7    1.37    0.98
  -5   8   7    1.86    0.86
  -5   8   7    1.99    1.00
  -4   8   7   -0.18    0.92
  -4   8   7   -0.05    0.85
   3  -8  -7    1.68    1.45
  -3   8   7   -0.32    0.81
  -3   8   7    0.08    0.94
   2  -8  -7    3.77    1.46
  -2   8   7    3.12    0.95
  -2   8   7    1.76    0.94
   1  -8  -7   -2.54    1.40
  -1   8   7    0.19    0.97
  -1   8   7   -0.32    0.89
   0  -8  -7   -1.05    1.39
   0   8   7    0.88    0.97
   0   8   7    0.16    0.97
   3  13  -8    1.03    0.92
  -3 -13   8    1.43    0.86
   2  13  -8    0.69    0.94
  -2 -13   8    2.69    0.86
   1  13  -8    2.73    0.89
   1  13  -8    1.59    0.67
   1  13  -8    2.05    0.84
   0  13  -8   -0.62    0.78
   0  13  -8   -0.62    0.82
   0 -13   8    1.74    0.73
  -1  13  -8    1.74    0.77
  -1  13  -8    0.89    0.90
   1 -13   8    3.67    0.78
  -2  13  -8    0.35    0.77
  -2  13  -8    0.01    0.90
  -3  13  -8    0.24    0.89
   3 -13   8    2.62    0.83
  -4  13  -8   -0.02    0.91
   4 -13   8    3.11    0.89
   5  12  -8    0.42    1.01
  -5 -12   8    2.24    0.86
   4  12  -8    0.82    0.89
  -4 -12   8    2.23    0.81
   3  12  -8    0.09    0.83
  -3 -12   8    1.91    0.78
   2  12  -8   -0.09    0.84
  -2 -12   8    0.80    0.75
   1  12  -8    5.22    0.83
  -1 -12   8    8.06    1.23
   0  12  -8   -0.28    0.68
   0 -12   8    1.97    0.63
   0 -12   8    0.79    0.77
  -1  12  -8    0.78    0.69
  -1  12  -8    0.75    0.81
   1 -12   8    2.52    0.68
  -2  12  -8    8.23    1.34
  -2  12  -8    8.80    1.18
  -3  12  -8    1.54    0.89
  -3  12  -8    0.19    0.86
   3 -12   8    2.84    0.78
  -4  12  -8    0.46    0.90
   4 -12   8    1.20    0.77
  -5  12  -8    1.70    0.86
   5 -12   8    2.70    0.83
  -6  12  -8    2.70    1.10
   6 -12   8    3.65    0.94
   7  11  -8    1.21    1.02
  -7 -11   8    2.34    0.92
   6  11  -8    1.45    1.00
  -6 -11   8    2.71    0.86
   5  11  -8    2.99    0.94
  -5 -11   8    3.96    0.81
   4  11  -8    0.71    0.82
  -4 -11   8    2.19    0.74
   3  11  -8    8.96    1.27
  -3 -11   8    7.43    0.99
  -3 -11   8   10.61    1.28
   2  11  -8   -0.29    0.72
  -2 -11   8    0.48    0.49
  -2 -11   8    0.97    0.70
   1  11  -8    0.23    0.65
  -1 -11   8    0.85    0.50
  -1 -11   8    0.95    0.66
   0  11  -8    4.45    0.74
   0 -11   8    6.83    1.14
  -1  11  -8    1.14    1.01
   1 -11   8    2.75    0.65
   1 -11   8    1.99    0.68
  -2  11  -8    1.12    0.66
  -2  11  -8   -0.28    0.75
   2 -11   8    2.96    0.72
   2 -11   8    1.01    0.52
  -3  11  -8    3.95    0.74
  -3  11  -8    3.89    0.87
   3 -11   8    5.98    1.04
  -4  11  -8    0.34    0.68
  -4  11  -8    0.29    0.79
   4 -11   8    1.37    0.78
   4 -11   8    1.37    0.65
  -5  11  -8   -0.11    0.79
   5 -11   8    1.70    0.76
  -7  11  -8    1.19    0.96
   7 -11   8    1.53    0.86
   7 -11   8    5.07    1.59
   8  10  -8   -0.19    0.98
  -8 -10   8    2.16    0.97
   7  10  -8   -0.20    0.81
  -7 -10   8    2.76    0.88
   6  10  -8    0.26    0.82
  -6 -10   8    2.12    0.78
   5  10  -8    3.54    0.83
  -5 -10   8    4.43    0.77
   4  10  -8    0.66    0.71
  -4 -10   8    1.44    0.71
   3  10  -8    0.16    0.72
  -3 -10   8    1.12    0.67
  -3 -10   8    0.48    0.40
   2  10  -8   14.48    1.23
  -2 -10   8   15.34    0.99
  -2 -10   8   13.99    1.20
   1  10  -8    2.28    0.85
   1  10  -8    2.70    0.57
  -1 -10   8    3.43    0.70
   0  10  -8    5.74    0.63
   0  10  -8    5.32    0.69
   0 -10   8    7.44    1.06
  -1  10  -8    8.11    0.98
   1 -10   8    9.61    1.11
   1 -10   8    7.89    0.72
  -2  10  -8    2.59    0.65
   2 -10   8    3.21    0.48
   2 -10   8    4.31    0.73
  -3  10  -8    2.24    0.65
  -3  10  -8    1.59    0.70
   3 -10   8    2.94    0.54
   3 -10   8    3.26    0.69
  -4  10  -8    0.32    0.74
  -4  10  -8    0.73    0.64
   4 -10   8    2.76    0.69
   4 -10   8    1.33    0.69
  -5  10  -8    0.47    0.73
   5 -10   8    0.85    0.70
  -7  10  -8    0.42    0.77
   7 -10   8    4.81    1.42
   7 -10   8    0.50    0.80
  -8  10  -8   -0.10    0.89
   8 -10   8    0.67    0.91
   9   9  -8    0.09    1.01
  -9  -9   8    2.91    1.03
   8   9  -8   -0.02    0.93
  -8  -9   8    2.47    0.90
   7   9  -8    1.34    0.81
  -7  -9   8    3.72    0.84
   6   9  -8   -0.02    0.72
  -6  -9   8    1.67    0.73
   5   9  -8    0.58    0.75
  -5  -9   8    2.08    1.18
   4   9  -8   14.85    1.26
  -4  -9   8   13.31    0.83
  -4  -9   8   16.05    1.23
  -3  -9   8    0.54    0.39
  -3  -9   8    1.13    0.60
   2   9  -8    1.40    0.23
   2   9  -8    2.12    0.64
  -2  -9   8    1.91    0.63
   1   9  -8    6.17    0.48
   1   9  -8    5.65    0.93
  -1  -9   8    6.60    0.97
   0   9  -8    0.49    0.56
   0  -9   8    1.73    0.53
   0  -9   8    0.79    0.56
  -1   9  -8    5.44    0.91
   1  -9   8    5.39    0.57
   1  -9   8    5.82    0.80
  -2   9  -8    6.10    0.97
   2  -9   8    7.58    0.99
   2  -9   8    5.09    0.85
   2  -9   8    6.46    0.66
  -3   9  -8    0.57    0.58
  -3   9  -8    0.39    0.62
   3  -9   8    0.45    0.62
   3  -9   8    1.17    0.54
  -4   9  -8    1.77    0.63
  -4   9  -8    1.62    0.64
   4  -9   8    2.35    0.68
  -6   9  -8    1.12    0.58
  -6   9  -8    0.45    0.69
   6  -9   8    0.36    0.64
  -7   9  -8    1.38    0.76
   7  -9   8    1.65    0.77
   7  -9   8    3.04    1.10
  -8   9  -8   -0.14    0.75
   8  -9   8    0.36    0.81
  10   8  -8    0.39    0.93
 -10  -8   8   -2.23    1.06
   9   8  -8    1.27    0.94
  -9  -8   8   -0.17    0.93
   8   8  -8    0.32    0.83
  -8  -8   8    1.52    0.81
   7   8  -8    0.83    0.80
  -7  -8   8    2.37    0.79
   6   8  -8    4.92    0.82
  -6  -8   8    6.24    1.37
   5   8  -8    0.32    0.63
  -5  -8   8    1.80    0.63
   4   8  -8    2.39    0.68
  -4  -8   8    3.69    0.60
  -4  -8   8    2.67    0.64
   3   8  -8   13.72    1.12
  -3  -8   8   15.57    0.91
  -3  -8   8   13.46    1.15
   2   8  -8    3.40    0.59
  -2  -8   8    4.87    0.82
   1   8  -8   30.38    1.59
   1   8  -8   29.53    1.30
  -1  -8   8   30.15    1.64
  -1  -8   8   36.14    1.55
   0   8  -8    6.10    0.87
   0   8  -8    4.12    0.41
   0  -8   8    5.00    0.79
  -1   8  -8    1.19    0.53
  -1   8  -8    1.23    0.29
   1  -8   8    2.86    0.56
   1  -8   8    1.39    0.55
  -2   8  -8   13.37    0.83
  -2   8  -8   14.10    1.11
   2  -8   8   15.90    0.94
   2  -8   8   15.55    1.08
   2  -8   8   13.42    1.11
  -3   8  -8    3.19    0.62
   3  -8   8    3.50    0.62
   3  -8   8    2.51    0.62
  -5   8  -8    3.62    0.70
  -5   8  -8    3.69    0.63
   5  -8   8    4.21    0.68
  -6   8  -8    2.49    0.60
  -6   8  -8    1.76    0.67
   6  -8   8    1.87    0.64
  -7   8  -8    2.40    0.94
  -7   8  -8    1.37    0.75
   7  -8   8    0.24    0.67
  -8   8  -8    2.12    0.74
   8  -8   8    2.56    0.80
  -9   8  -8    0.05    0.76
   9  -8   8    1.13    0.80
  11   7  -8   -0.46    0.88
  10   7  -8   -0.43    0.90
   9   7  -8    0.18    0.84
  -9  -7   8   -1.16    0.91
   8   7  -8    0.78    0.78
  -8  -7   8    0.39    0.81
   7   7  -8    1.20    0.73
   6   7  -8   -0.23    1.10
  -6  -7   8    0.81    0.30
  -6  -7   8    1.15    0.69
   5   7  -8   16.40    1.21
  -5  -7   8   15.92    1.25
  -5  -7   8   17.15    0.95
   4   7  -8    1.15    0.36
   4   7  -8    1.05    0.57
  -4  -7   8    1.70    0.60
   3   7  -8    0.54    0.38
   3   7  -8    0.28    0.54
  -3  -7   8    0.98    0.57
   2   7  -8   33.78    1.68
  -2  -7   8   32.07    1.67
  -2  -7   8   37.17    1.60
   1   7  -8    4.06    0.58
  -1  -7   8    3.37    0.56
   0   7  -8   29.51    1.53
   0  -7   8   29.09    1.24
   0  -7   8   29.25    1.53
   0  -7   8   30.78    1.46
  -1   7  -8   17.23    1.12
  -1   7  -8   16.34    0.84
   1  -7   8   19.50    0.88
   1  -7   8   17.37    1.06
   1  -7   8   16.57    1.04
  -2   7  -8    1.52    0.55
  -2   7  -8    0.64    0.31
   2  -7   8    0.85    0.47
   2  -7   8    1.21    0.55
  -3   7  -8   20.84    1.28
  -3   7  -8   19.02    1.03
   3  -7   8   18.71    1.19
   3  -7   8   19.80    1.23
  -4   7  -8    1.00    0.60
  -4   7  -8    1.35    0.57
   4  -7   8    2.12    0.80
  -5   7  -8    0.13    0.54
   5  -7   8    0.16    0.52
  -6   7  -8    0.18    0.54
  -6   7  -8   -0.13    0.60
   6  -7   8    0.19    0.59
  -7   7  -8    1.49    0.58
  -7   7  -8    0.70    0.67
   7  -7   8    1.37    0.68
  -8   7  -8    0.59    0.67
   8  -7   8    0.50    0.74
  -9   7  -8    0.03    0.68
   9  -7   8    0.20    0.78
   9  -7   8   -2.25    1.05
  11   6  -8   -0.55    0.83
  10   6  -8   -0.64    0.78
   9   6  -8    0.74    0.74
  -9  -6   8   -1.68    0.87
   8   6  -8    0.49    0.67
  -8  -6   8   -0.44    0.77
  -7  -6   8   -0.64    0.71
   6   6  -8   -0.05    0.57
  -6  -6   8    0.33    0.64
   5   6  -8    1.73    0.53
   5   6  -8    1.89    0.33
  -5  -6   8    1.39    0.62
   4   6  -8    7.71    0.65
   4   6  -8    7.77    0.85
  -4  -6   8    7.41    0.93
   3   6  -8    1.55    0.54
   3   6  -8    1.49    0.39
  -3  -6   8    1.28    0.55
   2   6  -8   38.76    1.84
  -2  -6   8   37.78    1.85
  -2  -6   8   42.07    1.79
   1   6  -8    4.18    0.71
  -1  -6   8    4.68    0.66
  -1  -6   8    3.89    0.60
   0   6  -8    3.46    0.29
   0   6  -8    3.39    0.54
   0  -6   8    3.35    0.48
   0  -6   8    3.66    0.56
   0  -6   8    3.68    0.29
  -1   6  -8   52.34    2.20
  -1   6  -8   51.84    2.37
   1  -6   8   49.61    2.33
   1  -6   8   58.60    2.22
   1  -6   8   52.00    2.36
  -2   6  -8   -0.16    0.28
  -2   6  -8   -0.22    0.53
   2  -6   8    0.22    0.45
   2  -6   8   -0.28    0.44
  -3   6  -8    0.91    0.60
   3  -6   8    0.92    0.50
  -4   6  -8    2.86    0.56
  -4   6  -8    3.23    0.62
   4  -6   8    3.23    0.53
   4  -6   8    2.65    0.55
  -5   6  -8    0.11    0.53
  -5   6  -8   -0.12    0.49
   5  -6   8   -0.08    0.54
  -6   6  -8    2.30    0.58
  -6   6  -8    2.65    0.70
   6  -6   8    2.61    0.64
  -7   6  -8    0.53    0.57
  -7   6  -8    0.27    0.56
   7  -6   8    0.34    0.65
  -8   6  -8    0.30    0.61
  -8   6  -8    0.35    0.61
   8  -6   8   -0.32    0.70
  -9   6  -8    1.11    0.68
   9  -6   8    0.88    0.78
   9  -6   8   -0.18    0.98
  11   5  -8    0.51    0.78
 -11  -5   8   -1.91    1.07
  10   5  -8    0.25    0.71
 -10  -5   8   -1.37    0.99
   9   5  -8   -0.27    0.52
   9   5  -8   -0.16    0.62
  -9  -5   8   -1.35    0.85
   8   5  -8    0.06    0.29
   8   5  -8    0.25    1.06
  -8  -5   8   -1.15    1.31
   7   5  -8    1.21    0.55
   7   5  -8    1.07    0.23
  -7  -5   8   -0.07    0.65
   6   5  -8    2.98    0.43
   6   5  -8    2.92    0.58
  -6  -5   8    2.19    0.64
   5   5  -8    4.43    0.53
   5   5  -8    4.47    0.60
  -5  -5   8    3.61    0.61
   4   5  -8   32.58    1.63
   4   5  -8   33.69    1.52
  -4  -5   8   31.84    1.68
  -4  -5   8   35.95    1.54
   3   5  -8    7.16    0.82
   3   5  -8    7.36    0.68
  -3  -5   8    6.72    0.71
  -3  -5   8    6.55    0.84
   2   5  -8    3.33    0.53
  -2  -5   8    2.68    0.53
  -2  -5   8    3.08    0.47
   1   5  -8   95.22    3.93
  -1  -5   8   92.79    3.92
  -1  -5   8   92.65    3.93
   0   5  -8    0.15    0.52
   0  -5   8    0.00    0.47
   0  -5   8   -0.39    0.46
  -1   5  -8   25.13    1.37
  -1   5  -8   26.60    1.13
   1  -5   8   25.81    1.34
   1  -5   8   24.04    1.32
  -2   5  -8   30.40    1.63
  -2   5  -8   32.24    1.41
   2  -5   8   32.20    1.55
   2  -5   8   35.16    1.47
   2  -5   8   29.04    1.53
  -3   5  -8   -0.01    0.34
  -3   5  -8    0.40    0.53
   3  -5   8   -0.20    0.48
   3  -5   8    0.08    0.43
  -4   5  -8   13.66    1.04
   4  -5   8   13.36    1.02
   4  -5   8   14.70    0.99
  -5   5  -8    0.01    0.54
  -5   5  -8   -0.07    0.45
  -6   5  -8    0.37    0.57
  -6   5  -8    0.05    0.48
   6  -5   8   -0.56    0.57
  -7   5  -8    1.25    0.59
  -7   5  -8    0.43    0.53
   7  -5   8    0.52    0.59
   7  -5   8   -1.53    0.77
  -8   5  -8   -0.26    0.55
   8  -5   8    0.17    0.69
  -9   5  -8   -0.13    0.61
   9  -5   8   -0.87    0.98
   9  -5   8    0.14    0.70
  12   4  -8   -0.47    0.78
 -12  -4   8    2.13    1.05
  11   4  -8   -0.67    0.70
 -11  -4   8   -2.05    0.97
  10   4  -8    0.96    0.53
  10   4  -8    1.70    0.69
 -10  -4   8   -0.58    0.94
   9   4  -8    0.24    0.69
   9   4  -8    0.15    0.34
  -9  -4   8   -1.51    0.76
   8   4  -8    0.47    0.55
   8   4  -8    0.91    0.29
   7   4  -8    1.32    0.58
   7   4  -8    1.85    0.40
   7   4  -8    1.68    0.25
  -7  -4   8    0.74    0.72
   6   4  -8   21.77    1.24
   6   4  -8   21.52    0.93
   6   4  -8   22.07    1.02
  -6  -4   8   21.62    1.36
   5   4  -8    0.96    0.51
   5   4  -8    0.91    0.33
  -5  -4   8    0.47    0.54
   4   4  -8   18.83    0.94
   4   4  -8   17.43    1.06
  -4  -4   8   14.32    1.06
  -4  -4   8   16.62    1.12
   3   4  -8   75.99    3.21
  -3  -4   8   75.55    3.21
  -3  -4   8   73.94    3.22
   2   4  -8    4.77    0.75
  -2  -4   8    4.33    0.74
  -2  -4   8    3.84    0.56
   1   4  -8   74.52    3.05
  -1  -4   8   67.54    2.99
  -1  -4   8   70.25    3.04
   0   4  -8   99.31    4.26
   0   4  -8  105.70    4.12
   0  -4   8   97.13    4.22
   0  -4   8  104.38    4.13
   0  -4   8  101.12    4.26
  -1   4  -8    1.36    0.55
  -1   4  -8    1.96    0.28
   1  -4   8    1.48    0.46
   1  -4   8    1.11    0.51
  -2   4  -8   58.25    2.38
  -2   4  -8   55.17    2.54
   2  -4   8   55.10    2.50
   2  -4   8   57.30    2.45
  -3   4  -8    2.33    0.60
   3  -4   8    2.53    0.45
   3  -4   8    3.33    0.57
  -4   4  -8    2.67    0.60
   4  -4   8    2.50    0.48
   4  -4   8    1.96    0.54
  -5   4  -8   20.09    1.09
  -5   4  -8   20.53    1.26
   5  -4   8   16.79    1.36
   5  -4   8   18.64    1.45
  -6   4  -8   -0.34    0.54
  -6   4  -8   -0.15    0.45
   6  -4   8   -0.02    0.55
  -7   4  -8    0.07    0.49
  -7   4  -8   -0.33    0.95
   7  -4   8   -1.51    0.74
   7  -4   8   -0.79    0.60
  -8   4  -8    0.55    0.64
  -8   4  -8   -0.29    0.53
   8  -4   8    0.30    0.68
   8  -4   8   -1.44    0.79
  -9   4  -8    0.01    0.68
   9  -4   8   -1.30    0.87
   9  -4   8    0.97    0.74
  12   3  -8    0.59    0.74
 -12  -3   8    0.03    0.92
  11   3  -8    0.07    0.67
 -11  -3   8   -0.60    0.83
  10   3  -8    0.63    0.41
  10   3  -8   -0.01    0.71
 -10  -3   8   -1.62    0.77
   9   3  -8    3.32    0.40
   9   3  -8    3.94    0.64
  -9  -3   8    1.19    0.81
   8   3  -8   12.91    1.01
   8   3  -8   12.34    0.74
   7   3  -8    0.00    0.28
   7   3  -8    0.26    0.49
  -7  -3   8    0.02    0.65
   6   3  -8   -0.06    0.48
   6   3  -8   -0.18    0.20
   6   3  -8   -0.23    0.28
  -6  -3   8   -0.44    0.55
   5   3  -8   73.62    3.20
   5   3  -8   80.20    3.14
  -5  -3   8   72.11    3.25
  -5  -3   8   73.67    3.24
   4   3  -8   10.52    0.87
  -4  -3   8    9.00    0.98
  -4  -3   8    9.16    0.91
   3   3  -8   29.57    1.46
  -3  -3   8   29.34    1.56
  -3  -3   8   29.33    1.47
   2   3  -8   86.12    3.64
  -2  -3   8   88.86    3.47
  -2  -3   8   80.84    3.50
  -2  -3   8   87.91    3.68
  -2  -3   8   86.66    3.62
   1   3  -8    1.67    0.53
  -1  -3   8    0.59    0.52
  -1  -3   8    0.89    0.39
   0   3  -8   84.96    3.32
   0   3  -8   80.71    3.48
   0  -3   8   79.66    3.40
   0  -3   8   82.96    3.38
   0  -3   8   76.65    3.46
  -1   3  -8   13.67    1.11
  -1   3  -8   15.84    0.77
   1  -3   8   15.40    0.91
   1  -3   8   13.67    1.07
   1  -3   8   13.53    0.95
  -2   3  -8    1.79    0.33
  -2   3  -8    1.62    0.60
   2  -3   8    0.94    0.51
   2  -3   8    2.32    0.43
   2  -3   8    1.12    0.51
  -3   3  -8    1.10    0.53
   3  -3   8    0.99    0.54
   3  -3   8    0.58    0.54
   3  -3   8    1.78    0.43
  -4   3  -8    1.31    0.56
   4  -3   8    1.17    0.59
   4  -3   8    0.09    0.58
  -5   3  -8    0.16    0.39
  -5   3  -8    0.50    0.59
   5  -3   8   -0.67    0.65
   5  -3   8    0.05    0.66
  -6   3  -8    0.78    0.61
  -6   3  -8    0.76    0.43
   6  -3   8   -0.62    0.69
   6  -3   8    0.26    0.61
  -7   3  -8    0.28    0.63
  -7   3  -8   -0.09    0.45
   7  -3   8    0.15    0.64
   7  -3   8   -0.72    0.79
  -8   3  -8    1.79    0.67
   8  -3   8    0.18    0.86
   8  -3   8    2.05    0.68
  -9   3  -8    0.29    0.70
   9  -3   8   -0.34    0.74
 -12  -2   8   -0.24    0.90
  11   2  -8    0.35    0.65
  11   2  -8    0.64    0.51
 -11  -2   8   -0.76    0.79
  10   2  -8   -0.25    0.43
  10   2  -8   -0.36    0.57
 -10  -2   8   -0.51    0.78
   9   2  -8   -0.06    0.38
   9   2  -8    0.37    0.54
  -9  -2   8   -0.76    0.66
  -9  -2   8   -0.98    0.50
   8   2  -8    0.70    0.34
   8   2  -8    0.94    0.51
  -8  -2   8    0.06    1.08
  -8  -2   8   -0.64    0.51
   7   2  -8   12.11    0.67
   7   2  -8   11.45    0.96
  -7  -2   8    9.78    0.96
  -7  -2   8   11.10    1.11
   6   2  -8    1.40    0.48
  -6  -2   8    0.80    0.53
  -6  -2   8    1.15    0.61
   5   2  -8    9.02    0.85
  -5  -2   8    7.81    0.90
  -5  -2   8    7.37    0.94
   4   2  -8   42.91    2.05
  -4  -2   8   43.18    2.05
  -4  -2   8   45.74    1.88
  -4  -2   8   45.01    2.11
  -4  -2   8   48.51    1.87
   3   2  -8    0.00    0.49
  -3  -2   8    0.53    0.19
  -3  -2   8   -0.62    0.40
  -3  -2   8   -0.21    0.22
  -3  -2   8   -0.84    0.53
   2   2  -8  126.96    5.33
  -2  -2   8  134.04    5.23
  -2  -2   8  128.96    5.20
  -2  -2   8  130.19    5.35
  -2  -2   8  123.21    5.29
   1   2  -8    2.09    0.62
  -1  -2   8    2.03    0.36
  -1  -2   8    2.39    0.42
  -1  -2   8    2.10    0.37
  -1  -2   8    1.25    0.56
   0   2  -8    0.18    0.25
   0   2  -8   -0.43    0.52
   0  -2   8   -0.26    0.39
   0  -2   8    0.00    0.37
   0  -2   8   -0.95    0.57
  -1   2  -8   30.56    1.67
  -1   2  -8   34.93    1.47
   1  -2   8   31.75    1.68
   1  -2   8   32.98    1.52
   1  -2   8   33.55    1.58
  -2   2  -8   -0.32    0.55
   2  -2   8    0.13    0.57
   2  -2   8    0.30    0.36
   2  -2   8   -0.50    0.50
  -3   2  -8   11.45    1.02
   3  -2   8   10.22    1.05
   3  -2   8   12.44    0.79
   3  -2   8   11.63    1.05
  -4   2  -8    6.15    0.62
  -4   2  -8    5.67    0.91
   4  -2   8    5.18    0.75
   4  -2   8    5.61    0.71
  -5   2  -8    0.41    0.36
  -5   2  -8    0.65    0.58
   5  -2   8   -0.62    0.63
  -6   2  -8    0.98    0.42
  -6   2  -8    1.95    0.66
   6  -2   8    0.81    0.65
   6  -2   8   -0.14    0.73
  -7   2  -8   -0.16    0.66
   7  -2   8   -1.57    0.79
   7  -2   8    0.21    0.65
  -8   2  -8    0.07    0.70
   8  -2   8   -0.48    0.89
   8  -2   8   -0.05    0.69
  -9   2  -8   -0.60    0.75
   9  -2   8   -1.43    0.91
   9  -2   8   -0.77    0.72
  12   1  -8   -0.29    0.63
 -12  -1   8   -0.79    0.81
  11   1  -8   -0.14    0.54
  11   1  -8   -0.10    0.60
 -11  -1   8   -0.64    0.83
  10   1  -8   -0.10    0.54
  10   1  -8    0.03    0.47
 -10  -1   8    0.10    0.81
 -10  -1   8   -0.38    0.71
   9   1  -8    0.82    0.42
   9   1  -8    1.07    0.53
  -9  -1   8   -0.89    0.69
  -9  -1   8   -0.02    0.52
   8   1  -8    1.02    0.36
   8   1  -8    0.99    0.50
  -8  -1   8    0.04    0.53
   7   1  -8    3.47    0.54
   7   1  -8    4.52    0.56
  -7  -1   8    3.19    0.69
  -7  -1   8    4.52    0.64
  -7  -1   8    3.29    0.58
   6   1  -8   25.93    1.17
   6   1  -8   24.75    1.36
  -6  -1   8   24.91    1.40
  -6  -1   8   27.80    1.19
  -6  -1   8   23.15    1.45
   5   1  -8    0.24    0.45
   5   1  -8    0.45    0.28
  -5  -1   8    0.26    0.52
  -5  -1   8   -0.23    0.52
   4   1  -8   35.95    1.78
  -4  -1   8   36.60    1.80
  -4  -1   8   40.35    1.59
  -4  -1   8   34.96    1.73
   3   1  -8   23.04    1.31
  -3  -1   8   23.04    1.32
  -3  -1   8   22.06    1.18
  -3  -1   8   22.83    1.02
   2   1  -8    3.47    0.63
  -2  -1   8    3.79    0.44
  -2  -1   8    3.79    0.53
  -2  -1   8    3.88    0.60
  -2  -1   8    3.60    0.47
   1   1  -8   97.91    4.30
  -1  -1   8   98.95    4.21
  -1  -1   8  100.34    4.29
  -1  -1   8  107.57    4.17
  -1  -1   8  104.37    4.20
   0   1  -8   21.64    1.31
   0  -1   8   22.92    1.17
   0  -1   8   27.11    1.15
   0  -1   8   24.14    1.24
   0  -1   8   23.14    1.37
  -1   1  -8    6.67    0.92
   1  -1   8    7.46    0.65
   1  -1   8    7.62    0.80
   1  -1   8    7.14    0.86
  -2   1  -8   18.68    0.94
  -2   1  -8   14.97    1.16
   2  -1   8   17.42    0.92
   2  -1   8   16.72    1.20
   2  -1   8   16.66    1.11
  -3   1  -8    7.85    0.97
  -3   1  -8    9.25    0.69
   3  -1   8    7.07    1.00
   3  -1   8    8.11    0.65
   3  -1   8    7.92    0.99
  -4   1  -8    1.18    0.58
  -4   1  -8    1.37    0.33
   4  -1   8    0.42    0.66
   4  -1   8    0.64    0.64
  -5   1  -8    1.71    0.36
  -5   1  -8    1.09    0.61
   5  -1   8    0.19    0.72
   5  -1   8    1.08    0.70
  -6   1  -8    0.31    0.68
   6  -1   8   -0.25    0.63
   6  -1   8    0.06    0.74
  -7   1  -8   -0.19    0.72
   7  -1   8   -0.46    0.83
   7  -1   8   -0.07    0.69
  -8   1  -8    0.55    0.77
   8  -1   8   -0.97    0.84
   8  -1   8    0.04    0.72
  12   0  -8    1.09    0.68
 -12   0   8   -0.09    0.85
  11   0  -8    1.25    1.08
 -11   0   8    0.38    0.84
  10   0  -8   -0.28    0.52
  10   0  -8   -0.01    0.54
 -10   0   8   -0.39    0.74
 -10   0   8   -0.36    0.58
   9   0  -8    0.24    0.45
   9   0  -8   -0.14    0.50
  -9   0   8   -0.36    0.56
  -9   0   8   -0.42    0.66
   8   0  -8    7.15    0.85
   8   0  -8    9.98    0.77
  -8   0   8    7.52    1.09
  -8   0   8    8.77    0.98
   7   0  -8   -0.49    0.47
   7   0  -8   -0.15    0.35
  -7   0   8   -0.36    0.56
  -7   0   8   -0.54    0.53
   6   0  -8    7.02    0.86
   6   0  -8    8.78    0.67
  -6   0   8    8.57    0.94
  -6   0   8    7.20    0.95
   5   0  -8   10.47    0.69
   5   0  -8    9.24    0.96
  -5   0   8   11.85    0.68
  -5   0   8    8.71    0.98
  -5   0   8    9.81    0.97
   4   0  -8    0.75    0.58
  -4   0   8    1.80    0.35
  -4   0   8    1.58    0.53
  -4   0   8    1.78    0.58
  -4   0   8    1.99    0.32
   3   0  -8   67.21    2.97
  -3   0   8   68.19    2.83
  -3   0   8   66.49    2.89
  -3   0   8   66.13    2.96
  -3   0   8   68.64    2.80
   2   0  -8    5.69    0.70
  -2   0   8    5.19    0.63
  -2   0   8    5.21    0.65
  -2   0   8    5.01    0.81
  -2   0   8    5.32    0.54
   1   0  -8   13.77    1.09
  -1   0   8   15.82    0.85
  -1   0   8   16.33    0.93
  -1   0   8   14.80    0.88
  -1   0   8   14.98    1.05
   0   0  -8   38.92    1.58
   0   0  -8   31.84    1.72
   0   0   8   32.30    1.66
   0   0   8   33.15    1.61
   0   0   8   32.74    1.52
  -1   0  -8    5.40    0.72
   1   0   8    5.77    0.78
   1   0   8    5.79    0.93
   1   0   8    5.75    0.57
  -2   0  -8   12.38    1.08
   2   0   8   13.02    1.03
   2   0   8   13.60    1.04
   2   0   8   13.43    0.78
  -3   0  -8    4.16    0.68
   3   0   8    6.14    0.55
   3   0   8    5.82    0.71
   3   0   8    5.72    0.76
  -4   0  -8    0.53    0.64
  -4   0  -8    0.86    0.29
   4   0   8    0.39    0.97
   4   0   8    0.12    0.67
  -5   0  -8    1.05    0.70
   5   0   8    0.41    0.71
   5   0   8    0.90    0.70
  -6   0  -8   -0.16    0.66
   6   0   8    0.88    0.72
   6   0   8   -0.26    0.77
  -7   0  -8   -0.36    0.76
   7   0   8   -1.01    0.86
   7   0   8   -0.47    0.69
  -8   0  -8    1.18    0.84
   8   0   8    0.67    0.97
   8   0   8    0.24    0.75
  12  -1  -8    0.89    0.73
 -12   1   8   -0.32    0.94
  11  -1  -8    0.41    0.62
 -11   1   8   -0.71    0.88
 -11   1   8    0.35    1.01
  10  -1  -8    1.15    0.58
 -10   1   8    0.56    0.82
 -10   1   8    1.63    0.65
   9  -1  -8   -0.35    0.56
   9  -1  -8    0.92    0.50
  -9   1   8    0.11    0.74
  -9   1   8    0.41    0.61
   8  -1  -8   -0.02    0.45
   8  -1  -8   -0.85    0.53
  -8   1   8    0.34    0.66
  -8   1   8   -0.34    0.57
   7  -1  -8   -0.51    0.54
   7  -1  -8    0.81    0.43
  -7   1   8    0.44    0.58
  -7   1   8    0.79    0.58
   6  -1  -8    2.17    0.42
   6  -1  -8    1.38    0.58
  -6   1   8    2.40    0.61
  -6   1   8    2.31    0.59
   5  -1  -8    6.38    0.71
  -5   1   8    6.09    0.87
  -5   1   8    6.13    0.93
   4  -1  -8   23.99    1.44
  -4   1   8   25.96    1.48
  -4   1   8   26.65    1.27
  -4   1   8   26.27    1.37
   3  -1  -8    1.19    0.62
  -3   1   8    3.09    0.64
  -3   1   8    2.77    0.43
  -3   1   8    2.30    0.49
   2  -1  -8   49.24    2.29
  -2   1   8   49.69    2.16
  -2   1   8   49.84    2.17
  -2   1   8   47.64    2.25
   1  -1  -8    5.72    0.92
  -1   1   8    6.62    0.76
  -1   1   8    7.30    0.86
  -1   1   8    6.89    0.64
   0  -1  -8    2.83    0.66
   0   1   8    3.10    0.63
   0   1   8    3.35    0.53
   0   1   8    3.05    0.51
  -1  -1  -8   23.94    1.46
   1   1   8   25.40    1.47
   1   1   8   26.47    1.17
   1   1   8   24.90    1.37
  -2  -1  -8    3.59    0.69
   2   1   8    3.91    0.62
   2   1   8    4.22    0.48
   2   1   8    4.06    0.69
  -3  -1  -8   -0.06    0.58
   3   1   8    0.18    0.71
   3   1   8    0.31    0.62
  -4  -1  -8   -0.07    0.66
   4   1   8   -0.21    0.76
   4   1   8   -0.26    0.64
  -5  -1  -8   -0.09    0.74
   5   1   8   -0.01    0.69
   5   1   8    0.40    0.72
  -6  -1  -8    0.31    0.76
   6   1   8    0.74    0.88
   6   1   8    0.21    0.71
  -7  -1  -8   -0.95    0.76
   7   1   8    0.41    0.73
   7   1   8   -1.69    0.92
  12  -2  -8    0.72    0.77
 -12   2   8    0.07    1.00
  11  -2  -8    0.42    0.67
 -11   2   8   -0.45    0.92
 -11   2   8   -0.17    0.77
  10  -2  -8    0.45    0.61
 -10   2   8   -0.18    0.73
 -10   2   8   -0.33    0.79
   9  -2  -8    0.14    0.54
   9  -2  -8   -0.47    0.62
  -9   2   8   -0.43    0.84
  -9   2   8   -0.11    0.72
   8  -2  -8    0.40    0.50
   8  -2  -8   -1.19    0.57
  -8   2   8    0.02    0.72
  -8   2   8   -0.05    0.64
   7  -2  -8    1.76    0.49
   7  -2  -8    0.67    0.60
  -7   2   8    1.62    0.61
   6  -2  -8    4.18    0.53
  -6   2   8    3.96    0.67
  -6   2   8    3.81    0.69
   5  -2  -8    5.30    0.72
  -5   2   8    7.42    1.00
  -5   2   8    8.19    0.78
  -5   2   8    7.21    0.89
   4  -2  -8    3.82    0.70
  -4   2   8    5.41    0.72
  -4   2   8    5.22    0.74
  -4   2   8    4.89    0.82
   3  -2  -8    6.49    0.77
  -3   2   8    6.40    0.79
  -3   2   8    6.72    0.77
  -3   2   8    6.85    0.79
   2  -2  -8   14.56    1.21
  -2   2   8   17.62    1.06
  -2   2   8   18.77    1.00
  -2   2   8   16.88    1.17
   1  -2  -8   17.89    1.27
  -1   2   8   18.80    1.22
  -1   2   8   19.79    1.00
  -1   2   8   19.60    1.15
   0  -2  -8    7.45    0.99
   0  -2  -8    6.83    1.16
   0   2   8    9.93    1.07
   0   2   8   10.01    0.64
   0   2   8    9.21    0.90
  -1  -2  -8   12.75    1.16
   1   2   8   13.82    1.21
   1   2   8   15.32    0.77
   1   2   8   14.45    1.11
  -2  -2  -8    3.16    0.68
   2   2   8    4.27    0.41
   2   2   8    4.23    0.66
  -3  -2  -8   -0.37    0.63
   3   2   8    1.63    0.71
   3   2   8    0.22    0.67
  -4  -2  -8    1.73    0.76
   4   2   8    1.70    0.75
   4   2   8    1.44    0.78
  -5  -2  -8    0.39    0.80
   5   2   8    0.12    0.81
   5   2   8    1.81    0.73
  -6  -2  -8    0.92    0.86
   6   2   8    1.27    0.78
   6   2   8    0.34    0.89
  -7  -2  -8    0.91    0.92
   7   2   8    0.13    0.93
   7   2   8    0.38    0.74
  11  -3  -8    0.71    0.73
 -11   3   8   -0.40    0.84
 -11   3   8    1.01    0.97
  10  -3  -8    0.19    0.65
 -10   3   8    0.90    0.93
 -10   3   8   -0.40    0.78
   9  -3  -8    1.78    0.63
  -9   3   8    1.19    0.86
  -9   3   8    1.10    0.75
   8  -3  -8   -0.48    0.57
  -8   3   8    0.26    0.73
  -8   3   8   -1.13    0.67
   7  -3  -8   -0.24    0.52
  -7   3   8    0.19    0.63
  -7   3   8   -0.08    0.64
   6  -3  -8    9.41    0.91
  -6   3   8    9.41    1.06
  -6   3   8    9.70    1.41
  -5   3   8    0.51    0.49
  -5   3   8    0.03    1.02
  -5   3   8    0.48    0.56
   4  -3  -8   15.57    1.33
  -4   3   8   20.07    1.18
  -4   3   8   20.98    1.18
  -4   3   8   19.53    1.48
   3  -3  -8   14.05    1.24
  -3   3   8   17.79    1.06
  -3   3   8   16.74    1.45
  -3   3   8   18.73    1.14
   2  -3  -8   -0.44    0.61
  -2   3   8    1.10    0.41
  -2   3   8    0.57    0.53
  -2   3   8    0.75    0.70
   1  -3  -8   22.02    1.49
  -1   3   8   25.42    1.18
  -1   3   8   25.15    1.40
   0   3   8   11.20    1.06
   0   3   8   11.76    0.70
   0   3   8   10.89    1.13
  -1  -3  -8    0.86    0.66
   1   3   8    2.42    0.74
   1   3   8    2.33    0.73
  -2  -3  -8    3.83    0.81
   2   3   8    3.77    0.69
   2   3   8    3.38    0.72
  -3  -3  -8   -0.14    0.74
   3   3   8    0.28    0.70
   3   3   8   -0.63    0.71
  -4  -3  -8   -0.14    0.75
   4   3   8   -0.23    0.76
   4   3   8    0.24    0.79
  -5  -3  -8   -0.48    0.84
   5   3   8   -0.87    0.80
   5   3   8   -0.57    0.75
  -6  -3  -8   -0.29    0.86
   6   3   8   -0.35    0.78
   6   3   8   -0.19    0.94
  11  -4  -8    0.93    0.76
 -11   4   8   -0.68    0.88
 -11   4   8    0.87    1.04
  10  -4  -8    0.54    0.73
 -10   4   8    0.71    0.89
 -10   4   8   -0.04    0.84
   9  -4  -8    0.83    0.70
  -9   4   8    0.16    0.78
  -9   4   8   -0.08    0.82
   8  -4  -8    3.07    0.68
  -8   4   8    3.56    0.84
  -8   4   8    3.84    0.85
   7  -4  -8   -0.09    0.58
  -7   4   8   -0.19    0.71
  -7   4   8    0.64    0.72
  -6   4   8    3.67    0.81
  -6   4   8    3.49    0.95
  -5   4   8    4.80    0.80
  -5   4   8    5.59    0.94
  -5   4   8    4.64    0.65
  -4   4   8   -0.21    0.49
  -4   4   8   -0.74    0.70
  -4   4   8    0.25    0.56
  -3   4   8   20.08    1.15
  -3   4   8   18.24    1.44
  -3   4   8   20.33    1.31
  -2   4   8    8.59    0.78
  -2   4   8    8.45    1.03
  -2   4   8    7.85    1.23
   1  -4  -8    1.43    0.77
  -1   4   8    2.47    0.38
  -1   4   8    2.42    0.77
   0  -4  -8   12.95    1.27
   0   4   8   14.26    1.31
   0   4   8   13.32    1.25
  -1  -4  -8   -0.17    0.76
   1   4   8    0.96    0.71
   1   4   8    0.76    0.71
  -2  -4  -8   -0.90    0.78
   2   4   8    0.69    0.77
   2   4   8   -1.20    0.66
  -3  -4  -8    0.81    0.90
   3   4   8    1.47    0.76
   3   4   8    3.33    0.82
  -4  -4  -8   -0.49    0.90
   4   4   8   -0.16    0.82
   4   4   8    0.09    0.79
  -5  -4  -8   -0.75    0.91
   5   4   8    0.46    0.94
   5   4   8   -1.15    0.80
  10  -5  -8   -0.49    0.78
 -10   5   8    0.82    0.99
 -10   5   8    0.11    0.89
   9  -5  -8    1.74    0.75
  -9   5   8    2.43    0.95
  -9   5   8    1.68    0.90
   8  -5  -8    0.40    0.72
  -8   5   8    0.62    0.81
  -8   5   8    1.08    0.84
   7  -5  -8    5.31    0.79
  -7   5   8    5.10    0.83
  -7   5   8    5.95    0.94
   6  -5  -8    1.23    0.91
  -6   5   8    0.40    0.66
  -6   5   8    0.98    0.66
  -6   5   8    0.11    0.76
  -5   5   8    9.86    1.07
  -5   5   8    9.16    1.28
  -5   5   8    9.31    1.16
  -4   5   8    7.13    1.11
  -4   5   8    5.55    0.91
  -4   5   8    6.24    0.91
  -3   5   8    1.73    0.82
  -3   5   8    2.02    0.70
  -3   5   8    2.38    0.51
   2  -5  -8    7.26    1.01
  -2   5   8    6.93    0.92
  -2   5   8    8.56    0.78
  -2   5   8    7.86    1.15
  -1   5   8    3.13    0.87
  -1   5   8    3.34    0.80
   0  -5  -8   -1.78    0.81
   0   5   8    0.10    0.81
   0   5   8   -0.42    0.70
  -1  -5  -8    0.21    0.89
   1   5   8    0.77    0.76
   1   5   8    1.07    0.76
  -2  -5  -8    2.31    0.99
   2   5   8    2.88    0.86
   2   5   8    3.77    0.90
  -3  -5  -8   -1.24    0.89
   3   5   8   -0.33    0.82
   3   5   8    1.61    0.86
  -4  -5  -8   -1.21    0.96
   4   5   8   -0.08    0.84
   4   5   8    0.45    0.89
   9  -6  -8    0.85    0.83
  -9   6   8    1.00    0.97
  -9   6   8    0.71    0.94
   8  -6  -8    0.39    0.76
  -8   6   8    0.88    0.91
  -8   6   8    0.60    0.88
  -7   6   8    0.25    0.93
  -7   6   8    0.29    0.75
  -7   6   8    0.58    0.79
  -6   6   8    3.29    0.90
  -6   6   8    4.25    0.77
  -6   6   8    3.78    0.85
   5  -6  -8    1.39    1.01
  -5   6   8    0.48    0.82
  -5   6   8    0.35    0.63
  -5   6   8    0.53    0.73
   4  -6  -8    0.59    1.07
  -4   6   8    2.36    0.80
  -4   6   8    2.92    0.61
  -4   6   8    2.79    0.94
  -3   6   8    0.34    0.77
  -3   6   8   -0.42    0.90
  -2   6   8    1.00    0.79
  -2   6   8    0.81    0.90
   1  -6  -8    0.05    1.05
  -1   6   8    1.80    0.90
  -1   6   8    2.08    0.83
   0  -6  -8    1.31    1.04
   0   6   8    3.38    0.90
   0   6   8    2.67    0.91
  -1  -6  -8    0.24    1.03
   1   6   8    0.68    0.89
   1   6   8    1.40    0.88
  -2  -6  -8   -1.52    1.01
   2   6   8    0.47    0.89
   2   6   8   -0.46    0.85
  -7   7   8   -1.23    0.83
  -7   7   8    1.21    0.85
  -7   7   8   -0.24    0.95
  -6   7   8   -0.27    0.81
  -6   7   8    0.41    1.00
  -6   7   8    1.04    0.77
  -5   7   8    2.00    0.99
  -5   7   8    2.47    0.87
   4  -7  -8    1.03    1.39
  -4   7   8    1.39    0.86
  -4   7   8   -0.34    0.89
   3  -7  -8   -1.25    1.31
  -3   7   8    1.45    0.97
  -3   7   8    1.40    0.81
  -2   7   8    1.74    0.94
  -2   7   8    1.50    0.93
  -1   7   8    0.82    0.96
  -1   7   8    0.82    0.92
   0  -7  -8   -2.81    1.30
   0   7   8    2.28    0.98
   0   7   8    1.33    0.90
   3  13  -9    1.76    1.01
  -3 -13   9    1.34    0.88
   2  13  -9   -0.05    0.91
  -2 -13   9    1.82    0.88
   1  13  -9   -0.58    0.85
  -1 -13   9    1.11    1.19
  -1 -13   9    2.17    0.91
   0  13  -9    1.22    0.84
   0  13  -9    0.38    0.88
   0 -13   9    1.90    0.76
  -1  13  -9   -0.40    0.90
  -1  13  -9    0.15    0.81
   1 -13   9    1.85    0.76
  -2  13  -9   -0.53    0.94
  -2  13  -9    0.01    0.87
   2 -13   9    1.21    0.80
  -3  13  -9   -0.12    0.93
   3 -13   9    1.05    0.84
   5  12  -9    1.11    1.02
  -5 -12   9    1.49    0.88
   4  12  -9    0.39    0.91
  -4 -12   9    3.02    0.91
   3  12  -9    1.04    0.87
  -3 -12   9    2.67    0.85
   2  12  -9    1.14    0.80
  -2 -12   9    3.01    0.86
  -2 -12   9    1.91    0.80
   1  12  -9   -0.98    0.79
  -1 -12   9    1.43    0.64
  -1 -12   9    1.40    0.81
   0  12  -9    0.83    0.77
   0 -12   9    1.51    0.85
   0 -12   9    1.61    0.66
  -1  12  -9   -0.31    0.75
   1 -12   9    2.14    0.71
   1 -12   9    0.51    0.83
  -2  12  -9   -0.11    0.81
  -2  12  -9    0.69    0.78
   2 -12   9    1.43    0.74
  -3  12  -9    0.00    0.81
  -3  12  -9   -0.98    0.86
  -4  12  -9   -0.18    0.89
   4 -12   9    2.08    0.92
  -5  12  -9    0.00    0.97
   5 -12   9    1.23    0.91
   7  11  -9    1.40    1.19
  -7 -11   9    1.51    1.01
   6  11  -9    1.62    1.01
  -6 -11   9    1.13    0.89
   5  11  -9    0.28    0.91
  -5 -11   9    2.60    0.84
   4  11  -9    0.67    0.91
  -4 -11   9    1.55    0.79
   3  11  -9    0.72    0.76
  -3 -11   9    1.20    0.85
  -3 -11   9    2.51    0.77
   2  11  -9    0.00    0.71
  -2 -11   9    1.00    0.53
  -2 -11   9    2.29    0.80
   1  11  -9    1.30    0.76
  -1 -11   9    2.81    0.62
  -1 -11   9    2.49    0.76
   0  11  -9    1.71    0.70
   0 -11   9    3.02    0.69
   0 -11   9    1.74    0.78
  -1  11  -9    1.35    0.74
   1 -11   9    2.11    0.74
   1 -11   9    3.42    0.71
  -2  11  -9    0.65    0.73
   2 -11   9    0.70    0.71
   2 -11   9    1.37    0.75
  -3  11  -9    0.28    1.34
  -3  11  -9   -0.35    0.76
   3 -11   9    1.45    0.75
  -4  11  -9    2.70    0.97
  -4  11  -9    1.21    0.78
   4 -11   9    2.90    0.83
  -5  11  -9    0.36    0.87
   5 -11   9    0.06    0.83
  -6  11  -9    1.07    0.91
   6 -11   9    1.20    0.90
   8  10  -9    0.12    1.06
  -8 -10   9    1.24    1.08
   7  10  -9    1.02    0.92
  -7 -10   9    1.29    0.96
   6  10  -9    1.98    0.90
  -6 -10   9    2.77    0.89
   5  10  -9    1.24    0.86
  -5 -10   9    2.79    0.84
   4  10  -9    0.15    0.79
  -4 -10   9    1.57    0.73
   3  10  -9    3.15    0.79
  -3 -10   9    4.04    0.54
  -3 -10   9    4.51    0.80
   2  10  -9    0.28    0.71
  -2 -10   9    0.74    0.66
  -2 -10   9    1.71    0.53
   1  10  -9    0.80    0.68
  -1 -10   9    1.59    0.72
   0  10  -9    6.22    0.87
   0 -10   9    8.84    1.17
  -1  10  -9    0.66    0.92
   1 -10   9    1.21    0.71
   1 -10   9    2.36    0.68
  -2  10  -9    1.48    0.71
   2 -10   9    2.11    0.69
   2 -10   9    1.82    0.68
  -3  10  -9    0.07    0.70
  -3  10  -9    0.44    0.72
   3 -10   9    0.57    0.70
   3 -10   9    0.74    0.68
  -4  10  -9    0.73    0.76
  -4  10  -9    0.95    0.76
   4 -10   9    2.43    0.84
   4 -10   9    1.68    0.76
  -5  10  -9    0.36    0.81
  -5  10  -9    1.97    0.77
   5 -10   9    4.41    1.07
   5 -10   9    0.97    0.78
  -7  10  -9    0.06    0.83
   7 -10   9    5.05    1.69
   7 -10   9    0.46    0.88
   9   9  -9   -1.11    1.02
  -9  -9   9   -1.26    1.09
   8   9  -9    0.78    0.94
  -8  -9   9    2.33    1.03
   7   9  -9    0.74    0.91
  -7  -9   9    3.60    0.92
   6   9  -9    0.22    0.85
  -6  -9   9    1.30    0.84
   5   9  -9    2.66    0.80
  -5  -9   9    3.20    0.77
   4   9  -9    0.89    0.73
  -4  -9   9    0.93    0.72
  -4  -9   9    0.16    0.41
   3   9  -9    1.13    0.69
  -3  -9   9    1.86    0.65
   2   9  -9    8.05    1.35
  -2  -9   9   10.14    1.14
   1   9  -9    6.28    1.05
  -1  -9   9    7.13    1.08
   0   9  -9    5.35    0.74
   0  -9   9    7.76    1.07
  -1   9  -9    2.16    0.68
   1  -9   9    1.75    0.67
   1  -9   9    3.36    0.66
  -2   9  -9    2.63    0.71
   2  -9   9    1.79    0.63
   2  -9   9    3.77    0.71
   2  -9   9    2.93    0.45
  -3   9  -9   10.79    1.17
   3  -9   9   11.72    1.07
   3  -9   9   10.12    1.07
   3  -9   9   10.27    1.16
  -4   9  -9    0.72    0.69
  -4   9  -9    1.59    0.74
   4  -9   9    1.22    0.68
  -7   9  -9    0.71    0.76
   7  -9   9   -0.54    0.70
  10   8  -9    0.55    0.91
   9   8  -9    0.24    0.86
  -9  -8   9   -1.67    1.06
   8   8  -9   -0.09    0.88
  -8  -8   9   -0.26    0.94
   7   8  -9    2.12    0.80
  -7  -8   9    2.04    0.82
   6   8  -9    0.10    0.76
  -6  -8   9    0.35    0.70
   5   8  -9    0.38    0.69
  -5  -8   9   -0.34    0.34
  -5  -8   9    0.93    0.73
   4   8  -9   16.47    1.28
  -4  -8   9   20.63    1.09
   3   8  -9    2.18    0.70
  -3  -8   9    2.10    0.64
   2   8  -9    3.85    0.68
  -2  -8   9    3.89    0.66
   1   8  -9   32.15    1.71
  -1  -8   9   35.82    1.65
  -1  -8   9   31.39    1.75
   0   8  -9   11.34    1.06
   0  -8   9   13.93    1.05
   0  -8   9   10.40    0.98
  -1   8  -9    9.02    1.10
   1  -8   9   10.63    0.60
   1  -8   9   11.17    1.03
   1  -8   9    9.65    1.09
  -2   8  -9    0.32    0.62
   2  -8   9    1.01    0.59
   2  -8   9    0.32    1.04
   2  -8   9    0.61    0.42
  -3   8  -9   14.10    1.23
   3  -8   9   12.78    1.18
   3  -8   9   12.27    1.14
  -6   8  -9    0.52    0.64
  -6   8  -9   -0.52    0.65
   6  -8   9   -0.83    0.70
   6  -8   9   -1.78    0.84
  -7   8  -9    0.98    0.75
   7  -8   9    2.92    1.00
   7  -8   9    1.37    0.76
  -8   8  -9    1.65    0.76
   8  -8   9    1.34    0.79
  10   7  -9   -0.37    0.85
   9   7  -9    0.18    0.79
  -9  -7   9   -0.57    0.97
   8   7  -9    0.23    0.80
  -8  -7   9   -0.24    0.83
   7   7  -9   -0.19    0.73
  -7  -7   9   -0.06    0.79
   6   7  -9    9.40    1.13
  -6  -7   9   10.13    1.21
  -6  -7   9   10.68    0.92
   5   7  -9   -0.68    1.01
  -5  -7   9    0.21    0.75
   4   7  -9   10.38    1.03
  -4  -7   9   10.89    1.13
   3   7  -9    6.80    0.96
  -3  -7   9    6.04    1.01
   2   7  -9    1.49    0.59
  -2  -7   9    0.81    0.61
   1   7  -9   13.43    1.09
  -1  -7   9   15.51    1.04
  -1  -7   9   14.06    1.14
   0   7  -9    0.46    0.56
   0  -7   9    1.00    0.51
   0  -7   9    0.74    0.58
  -1   7  -9    1.85    0.58
  -1   7  -9    1.76    0.28
   1  -7   9    2.29    0.56
   1  -7   9    1.79    0.55
  -2   7  -9    5.41    0.73
   2  -7   9    4.99    0.68
   2  -7   9    4.41    0.64
  -3   7  -9    6.37    1.05
   3  -7   9    5.59    1.10
   3  -7   9    5.91    0.72
  -4   7  -9    0.25    0.64
  -4   7  -9    0.45    0.64
   4  -7   9   -0.04    0.56
  -5   7  -9    0.79    0.61
  -5   7  -9    0.94    0.61
   5  -7   9    0.73    0.64
  -6   7  -9    6.71    1.03
  -6   7  -9    6.38    1.04
   6  -7   9    6.62    1.09
   6  -7   9    6.58    0.93
  -7   7  -9   -0.05    0.65
   7  -7   9   -0.40    0.73
  -8   7  -9    1.69    0.71
   8  -7   9   -1.98    1.12
   8  -7   9    1.47    0.77
  11   6  -9    0.32    0.84
 -11  -6   9   -2.23    1.16
  10   6  -9    1.33    0.84
   9   6  -9    0.32    0.74
   8   6  -9    5.66    0.84
  -8  -6   9    4.01    0.96
   7   6  -9    0.49    0.66
  -7  -6   9   -0.81    0.72
  -6  -6   9   17.88    1.02
   5   6  -9   15.07    0.90
   5   6  -9   13.36    1.12
  -5  -6   9   13.72    1.19
   4   6  -9    3.01    0.61
  -4  -6   9    2.98    0.63
   3   6  -9   60.39    2.67
  -3  -6   9   61.75    2.59
  -3  -6   9   57.21    2.67
   2   6  -9    0.37    0.57
  -2  -6   9   -0.12    0.53
  -2  -6   9    0.15    0.43
   1   6  -9    1.89    0.59
  -1  -6   9    1.20    0.49
  -1  -6   9    1.59    0.58
   0   6  -9   33.01    1.68
   0   6  -9   33.52    1.34
   0  -6   9   33.19    1.35
   0  -6   9   31.03    1.61
   0  -6   9   32.19    1.65
  -1   6  -9    5.69    0.58
  -1   6  -9    6.04    0.72
   1  -6   9    5.47    0.83
   1  -6   9    6.45    0.88
  -2   6  -9   -0.08    0.29
  -2   6  -9   -0.38    0.60
   2  -6   9    0.20    0.53
   2  -6   9   -0.21    0.51
  -3   6  -9    0.14    0.65
   3  -6   9    0.36    0.49
   3  -6   9   -0.20    0.57
  -4   6  -9    3.66    0.69
   4  -6   9    4.42    0.64
   4  -6   9    3.44    0.63
  -5   6  -9   -0.40    0.98
  -5   6  -9    0.41    0.61
   5  -6   9   -0.22    0.60
  -6   6  -9    0.35    0.70
  -6   6  -9    0.41    0.56
   6  -6   9    0.21    0.63
  -7   6  -9    0.21    0.62
  -7   6  -9    0.18    0.62
   7  -6   9   -0.58    0.96
   7  -6   9   -0.06    0.68
  -8   6  -9   -0.21    0.70
  -8   6  -9   -0.02    0.61
   8  -6   9   -0.03    0.77
   8  -6   9   -0.02    1.05
  11   5  -9   -0.68    0.81
 -11  -5   9   -1.34    1.05
  10   5  -9    0.06    0.75
 -10  -5   9   -1.87    0.92
   9   5  -9   -0.10    0.72
  -9  -5   9   -1.20    0.87
   8   5  -9    2.93    0.71
  -8  -5   9    2.55    0.85
   7   5  -9   14.42    1.75
  -7  -5   9   13.83    1.32
   6   5  -9   -0.08    0.59
  -6  -5   9   -0.47    0.65
   5   5  -9   17.92    1.23
   5   5  -9   21.65    1.12
  -5  -5   9   19.54    1.08
  -5  -5   9   18.38    1.29
   4   5  -9    0.57    0.57
  -4  -5   9   -0.62    0.44
  -4  -5   9    0.76    0.52
   3   5  -9    0.36    0.54
  -3  -5   9    0.00    0.52
   2   5  -9   40.65    1.93
  -2  -5   9   40.44    1.91
  -2  -5   9   39.92    1.91
   1   5  -9    2.68    0.61
  -1  -5   9    1.83    0.52
  -1  -5   9    1.34    0.56
   0   5  -9    1.37    0.54
   0  -5   9    1.37    0.56
   0  -5   9    1.30    0.47
  -1   5  -9    0.97    0.26
  -1   5  -9    0.38    0.60
   1  -5   9    0.46    0.50
   1  -5   9    0.39    0.54
  -2   5  -9   16.39    0.85
  -2   5  -9   15.53    1.25
   2  -5   9   17.12    1.07
   2  -5   9   14.46    1.02
  -3   5  -9    1.76    0.65
   3  -5   9    1.49    0.60
   3  -5   9    1.57    0.53
  -4   5  -9    0.94    0.58
   4  -5   9    0.98    0.61
   4  -5   9    0.67    0.49
  -5   5  -9    3.94    0.69
  -5   5  -9    3.86    0.58
   5  -5   9    3.41    0.70
  -6   5  -9    2.34    0.76
  -6   5  -9    2.46    0.58
   6  -5   9    1.94    0.67
   6  -5   9    0.62    0.94
  -7   5  -9    3.66    0.69
  -7   5  -9    2.98    0.62
   7  -5   9    1.90    0.96
   7  -5   9    2.85    0.72
  -8   5  -9   -0.10    0.60
  -8   5  -9    0.53    0.71
   8  -5   9    0.44    1.04
   8  -5   9    0.39    0.76
  11   4  -9   -0.11    0.76
 -11  -4   9   -0.22    0.97
  10   4  -9    0.26    0.70
 -10  -4   9   -1.41    0.92
   9   4  -9    5.25    0.75
  -9  -4   9    3.55    0.91
   8   4  -9   -0.14    0.70
  -8  -4   9   -0.33    0.71
  -8  -4   9    0.18    0.43
   7   4  -9    5.87    0.93
   7   4  -9    5.30    0.39
   6   4  -9    1.80    0.59
  -6  -4   9    1.09    0.59
   5   4  -9    0.81    0.57
  -5  -4   9    0.27    0.53
   4   4  -9   56.12    2.45
  -4  -4   9   55.77    2.48
  -4  -4   9   52.08    2.50
   3   4  -9    1.74    0.53
  -3  -4   9    2.03    0.50
   2   4  -9    5.35    0.89
  -2  -4   9    3.87    0.65
  -2  -4   9    5.03    0.79
   1   4  -9    2.18    0.58
  -1  -4   9    2.31    0.26
  -1  -4   9    1.38    0.57
  -1  -4   9    1.99    0.49
   0   4  -9   26.31    1.48
   0  -4   9   25.90    1.32
   0  -4   9   24.96    1.44
  -1   4  -9    0.01    0.27
  -1   4  -9   -0.29    0.63
   1  -4   9   -1.04    0.50
   1  -4   9    0.06    0.43
  -2   4  -9    1.17    0.63
  -2   4  -9    2.08    0.34
   2  -4   9    0.61    0.53
   2  -4   9    1.38    0.47
  -3   4  -9    0.64    0.60
   3  -4   9    0.92    0.59
   3  -4   9    0.81    0.46
  -4   4  -9    5.07    0.72
   4  -4   9    4.42    0.69
   4  -4   9    3.01    0.72
   4  -4   9    3.69    0.53
  -5   4  -9    2.34    0.50
   5  -4   9    1.47    0.75
   5  -4   9    2.27    0.62
  -6   4  -9    0.76    0.49
  -6   4  -9    0.99    0.63
   6  -4   9   -1.14    0.88
   6  -4   9    0.76    0.70
  -7   4  -9    1.03    0.67
  -7   4  -9    1.03    0.54
   7  -4   9    0.82    0.72
   7  -4   9   -0.31    0.85
  -8   4  -9    1.14    0.73
   8  -4   9    0.37    0.93
   8  -4   9   -0.03    0.72
 -12  -3   9   -0.29    0.94
  11   3  -9   -0.01    0.71
 -11  -3   9   -0.40    0.85
  10   3  -9    1.52    0.70
 -10  -3   9    0.35    0.83
   9   3  -9    0.49    0.72
  -9  -3   9   -0.54    0.78
   8   3  -9    3.41    0.50
   8   3  -9    3.32    0.64
  -8  -3   9    2.56    0.80
   7   3  -9    2.22    0.28
   7   3  -9    2.05    0.60
   6   3  -9   14.90    1.06
  -6  -3   9   14.52    1.19
  -6  -3   9   10.79    1.13
   5   3  -9    1.76    0.56
  -5  -3   9    1.07    0.60
  -5  -3   9    1.50    0.19
   4   3  -9    6.54    0.85
  -4  -3   9    6.52    0.74
  -4  -3   9    5.31    0.87
   3   3  -9   11.94    0.96
  -3  -3   9    8.45    0.56
  -3  -3   9   10.00    1.06
  -3  -3   9   11.32    0.83
   2   3  -9   11.87    1.02
  -2  -3   9    9.69    1.04
  -2  -3   9    8.38    0.68
  -2  -3   9   11.83    0.88
  -2  -3   9   11.32    0.65
   1   3  -9   17.42    1.24
  -1  -3   9   17.04    0.97
  -1  -3   9   16.85    1.19
  -1  -3   9   17.40    1.02
  -1  -3   9   18.35    0.81
   0   3  -9    0.66    0.64
   0  -3   9    1.03    0.42
   0  -3   9   -0.54    0.51
   0  -3   9    0.73    0.57
  -1   3  -9    0.11    0.56
  -1   3  -9    0.80    0.30
   1  -3   9   -0.68    0.57
   1  -3   9    0.10    0.41
  -2   3  -9   10.39    1.06
   2  -3   9   10.71    1.07
   2  -3   9   12.28    0.88
   2  -3   9    9.55    0.98
  -3   3  -9   21.19    1.34
   3  -3   9   19.22    1.33
   3  -3   9   21.97    1.16
   3  -3   9   19.96    1.30
  -4   3  -9    0.16    0.64
   4  -3   9    0.01    0.61
  -5   3  -9    1.57    0.44
  -5   3  -9    1.44    0.65
   5  -3   9    0.70    0.74
   5  -3   9    1.37    0.68
  -6   3  -9    2.80    0.71
  -6   3  -9    2.08    0.49
   6  -3   9    0.70    0.80
   6  -3   9    1.87    0.73
  -7   3  -9    0.20    0.70
   7  -3   9   -1.15    0.85
   7  -3   9   -0.50    0.72
  -8   3  -9    0.69    0.72
   8  -3   9    0.50    0.72
   8  -3   9   -0.91    0.90
 -12  -2   9   -0.72    0.92
  11   2  -9   -0.36    0.69
 -11  -2   9   -1.11    0.88
  10   2  -9    0.49    0.75
 -10  -2   9   -1.28    0.82
   9   2  -9    2.06    0.63
   9   2  -9    2.13    0.41
  -9  -2   9    1.12    0.76
  -9  -2   9    0.88    0.60
   8   2  -9    8.01    1.00
   8   2  -9    8.87    0.66
  -8  -2   9    6.60    0.85
  -8  -2   9    6.66    0.76
   7   2  -9    0.18    0.54
   7   2  -9    0.31    0.29
  -7  -2   9   -1.12    0.57
   6   2  -9    7.61    0.91
  -6  -2   9    7.22    0.75
  -6  -2   9    6.75    1.02
   5   2  -9   12.38    1.02
  -5  -2   9   12.41    1.08
  -5  -2   9   13.87    0.68
  -5  -2   9   11.32    1.10
   4   2  -9    0.85    0.53
  -4  -2   9    1.09    0.27
  -4  -2   9    0.30    0.52
  -4  -2   9    0.35    0.57
   3   2  -9   39.10    1.95
  -3  -2   9   39.95    1.89
  -3  -2   9   42.73    1.71
  -3  -2   9   38.92    1.96
  -3  -2   9   41.67    1.74
   2   2  -9   11.68    1.09
  -2  -2   9   11.72    0.62
  -2  -2   9   12.16    0.74
  -2  -2   9   11.13    0.85
  -2  -2   9   10.90    0.98
   1   2  -9   13.94    1.17
  -1  -2   9   14.05    1.07
  -1  -2   9   14.82    0.96
  -1  -2   9   15.02    0.90
  -1  -2   9   16.77    0.78
   0   2  -9   16.26    1.24
   0  -2   9   17.82    1.24
   0  -2   9   20.22    0.94
   0  -2   9   17.50    1.06
   0  -2   9   18.39    1.04
  -1   2  -9    3.83    0.67
   1  -2   9    4.90    0.68
   1  -2   9    4.00    0.64
   1  -2   9    4.13    0.56
  -2   2  -9    9.96    1.02
   2  -2   9   10.77    0.81
   2  -2   9    9.24    0.99
   2  -2   9    9.48    1.07
  -3   2  -9    0.96    0.62
   3  -2   9    0.65    0.62
   3  -2   9    1.51    0.41
  -4   2  -9   10.87    1.08
  -4   2  -9   11.82    0.77
   4  -2   9    9.91    1.15
   4  -2   9    9.27    1.15
  -5   2  -9    1.34    0.42
  -5   2  -9    1.49    0.65
   5  -2   9    1.41    0.71
  -6   2  -9    0.93    0.69
   6  -2   9    0.62    0.68
   6  -2   9    0.25    0.79
  -7   2  -9    5.75    0.85
   7  -2   9    4.80    0.86
   7  -2   9    3.75    0.94
  -8   2  -9    0.95    0.81
   8  -2   9   -1.07    0.94
   8  -2   9   -0.84    0.74
 -12  -1   9    0.16    0.95
 -11  -1   9    0.22    0.82
  10   1  -9    5.15    0.81
  10   1  -9    3.06    0.70
 -10  -1   9    2.97    0.83
   9   1  -9   -0.17    0.41
   9   1  -9   -0.13    0.59
  -9  -1   9   -0.16    0.77
  -9  -1   9   -0.45    0.58
   8   1  -9    0.20    0.37
   8   1  -9   -0.59    0.54
  -8  -1   9   -0.17    0.57
  -8  -1   9   -0.62    0.70
   7   1  -9    6.94    0.63
   7   1  -9    5.91    0.92
  -7  -1   9    6.98    0.72
  -7  -1   9    4.60    1.21
   6   1  -9    0.15    0.53
  -6  -1   9    0.12    0.55
  -6  -1   9    0.11    0.59
   5   1  -9   19.02    1.29
  -5  -1   9   19.37    1.29
  -5  -1   9   21.40    1.31
  -5  -1   9   22.00    1.04
  -5  -1   9   23.76    1.03
   4   1  -9    8.78    0.99
  -4  -1   9    9.12    0.67
  -4  -1   9   10.89    0.62
  -4  -1   9    7.85    0.97
  -4  -1   9    8.84    0.91
   3   1  -9    5.48    0.95
  -3  -1   9    6.78    0.52
  -3  -1   9    5.73    0.80
  -3  -1   9    6.70    0.62
  -3  -1   9    7.00    0.76
   2   1  -9   15.78    1.19
  -2  -1   9   16.32    1.01
  -2  -1   9   16.73    0.84
  -2  -1   9   16.22    0.93
  -2  -1   9   17.05    1.19
   1   1  -9   -0.55    0.62
  -1  -1   9   -0.11    0.39
  -1  -1   9    0.56    0.32
  -1  -1   9    0.30    0.39
  -1  -1   9   -0.14    0.52
   0   1  -9   -0.36    0.55
   0  -1   9    0.18    0.43
   0  -1   9    0.42    0.37
   0  -1   9    0.34    0.62
  -1   1  -9    2.54    0.67
   1  -1   9    2.79    0.41
   1  -1   9    2.26    0.66
   1  -1   9    2.31    0.52
  -2   1  -9   19.82    1.37
   2  -1   9   24.31    1.16
   2  -1   9   21.80    1.40
   2  -1   9   22.39    1.34
  -3   1  -9    5.70    0.98
   3  -1   9    6.10    0.97
   3  -1   9    6.37    0.80
   3  -1   9    6.37    0.65
  -4   1  -9    1.39    0.63
  -4   1  -9    1.76    0.36
   4  -1   9    0.65    0.69
   4  -1   9    1.05    0.70
  -5   1  -9    8.57    1.14
   5  -1   9    9.37    1.16
   5  -1   9    7.99    1.19
  -6   1  -9    1.64    0.76
   6  -1   9    0.47    0.78
   6  -1   9    0.95    0.74
  -7   1  -9    1.76    0.80
   7  -1   9    1.17    0.90
   7  -1   9    1.55    0.81
 -12   0   9   -0.22    1.08
  11   0  -9    0.56    0.79
 -11   0   9   -1.29    0.87
  10   0  -9    0.88    0.54
  10   0  -9    0.34    0.64
 -10   0   9   -0.95    0.80
 -10   0   9    0.22    0.66
   9   0  -9    0.67    0.61
   9   0  -9    1.89    0.50
  -9   0   9    1.04    0.66
  -9   0   9    0.88    0.78
   8   0  -9    0.08    0.58
   8   0  -9    0.52    0.43
  -8   0   9   -0.39    0.61
  -8   0   9   -0.43    0.70
   7   0  -9    4.89    0.67
   7   0  -9    4.07    0.67
  -7   0   9    4.49    0.70
  -7   0   9    4.08    0.69
   6   0  -9   10.31    1.08
  -6   0   9   10.64    1.09
  -6   0   9   12.37    1.09
   5   0  -9   -1.01    0.59
  -5   0   9    0.05    0.36
  -5   0   9   -0.18    0.54
  -5   0   9   -0.12    0.57
   4   0  -9   24.55    1.49
  -4   0   9   24.85    1.48
  -4   0   9   28.97    1.30
  -4   0   9   25.53    1.40
  -4   0   9   26.50    1.27
   3   0  -9    0.25    0.60
  -3   0   9    0.60    0.56
  -3   0   9    0.48    0.45
  -3   0   9    0.72    0.39
   2   0  -9    3.13    0.64
  -2   0   9    4.61    0.68
  -2   0   9    4.08    0.69
  -2   0   9    3.89    0.67
   1   0  -9   16.77    1.22
  -1   0   9   18.13    1.28
  -1   0   9   19.16    1.07
  -1   0   9   18.54    1.01
   0   0  -9    5.98    0.99
   0   0   9    7.63    0.68
   0   0   9    7.28    1.01
   0   0   9    7.56    0.84
  -1   0  -9    3.16    0.70
   1   0   9    3.54    0.58
   1   0   9    4.23    0.61
   1   0   9    3.76    0.72
  -2   0  -9   -0.44    0.62
   2   0   9    0.41    0.58
   2   0   9   -0.11    0.71
   2   0   9    0.12    0.35
  -3   0  -9   12.55    1.16
   3   0   9   14.29    0.80
   3   0   9   13.16    1.17
   3   0   9   13.80    1.22
  -4   0  -9    3.36    0.77
   4   0   9    2.41    0.72
   4   0   9    2.63    0.74
  -5   0  -9    4.95    0.81
   5   0   9    4.27    0.83
   5   0   9    4.79    0.78
  -6   0  -9    4.31    0.87
   6   0   9    2.07    0.85
   6   0   9    3.78    0.80
  -7   0  -9    0.28    0.77
   7   0   9    0.42    0.89
   7   0   9    0.64    0.75
  11  -1  -9    0.63    0.66
 -11   1   9   -0.22    0.85
 -10   1   9   -0.11    0.82
 -10   1   9    0.15    0.81
   9  -1  -9    3.37    0.58
   9  -1  -9    2.47    0.70
  -9   1   9    3.07    0.83
   8  -1  -9    3.78    0.70
   8  -1  -9    4.58    0.80
  -8   1   9    3.52    0.73
  -8   1   9    4.39    0.74
   7  -1  -9    0.01    0.44
   7  -1  -9   -0.97    0.60
  -7   1   9   -0.30    0.66
  -7   1   9   -0.45    0.64
   6  -1  -9    8.88    1.07
  -6   1   9   13.61    0.89
  -6   1   9   10.03    1.13
  -6   1   9   12.75    1.10
   5  -1  -9   -0.97    0.59
  -5   1   9   -0.83    0.61
  -5   1   9   -0.09    0.42
  -5   1   9   -0.17    0.56
   4  -1  -9    1.37    0.67
  -4   1   9    2.48    0.56
  -4   1   9    3.03    0.47
  -4   1   9    2.93    0.68
   3  -1  -9   13.09    1.15
  -3   1   9   13.57    1.21
  -3   1   9   14.95    0.97
  -3   1   9   14.99    1.02
   2  -1  -9   -0.25    0.57
  -2   1   9   -0.01    0.41
  -2   1   9    0.36    0.45
  -2   1   9   -0.05    0.63
   1  -1  -9   -0.10    0.64
  -1   1   9    1.43    0.39
  -1   1   9    0.92    0.49
  -1   1   9    1.15    0.66
   0  -1  -9   -0.40    0.73
   0   1   9    0.28    0.35
   0   1   9    0.39    0.53
  -1  -1  -9    4.66    0.70
   1   1   9    5.30    0.91
   1   1   9    6.65    1.04
   1   1   9    6.62    0.61
  -2  -1  -9    1.39    0.65
   2   1   9    2.52    0.35
   2   1   9    2.21    0.64
   2   1   9    2.68    0.75
  -3  -1  -9    8.46    1.10
   3   1   9    9.42    1.15
   3   1   9    9.20    1.13
  -4  -1  -9   10.93    1.22
   4   1   9   11.26    1.29
   4   1   9   10.07    1.24
  -5  -1  -9    0.70    0.73
   5   1   9    0.89    0.83
   5   1   9    1.10    0.78
  -6  -1  -9    1.76    0.82
   6   1   9    2.78    0.84
   6   1   9    1.93    0.93
  11  -2  -9    1.16    0.72
 -11   2   9    0.95    0.86
 -11   2   9    0.37    0.87
  10  -2  -9    1.21    0.65
 -10   2   9    0.49    0.84
 -10   2   9    0.57    0.79
  -9   2   9    0.73    0.76
  -9   2   9    0.40    0.83
   8  -2  -9    6.24    0.93
   8  -2  -9    3.61    0.75
  -8   2   9    4.81    0.79
  -8   2   9    3.97    0.80
   7  -2  -9    1.47    0.67
   7  -2  -9    2.30    0.53
  -7   2   9    1.53    0.68
  -7   2   9    1.97    0.71
   6  -2  -9    0.59    0.66
  -6   2   9    1.46    0.71
  -6   2   9    1.94    0.51
   5  -2  -9   18.44    1.38
  -5   2   9   21.73    1.30
  -5   2   9   20.00    1.49
  -5   2   9   21.68    1.21
   4  -2  -9    0.89    0.66
  -4   2   9    2.73    0.57
  -4   2   9    1.89    0.75
  -4   2   9    3.04    0.53
   3  -2  -9    3.82    0.71
  -3   2   9    5.23    0.86
  -3   2   9    5.78    0.82
  -3   2   9    4.55    0.83
   2  -2  -9    0.91    0.68
  -2   2   9    2.15    0.44
  -2   2   9    1.94    0.67
  -2   2   9    1.98    0.55
  -1   2   9    4.66    0.64
  -1   2   9    4.49    0.77
  -1   2   9    3.91    0.60
   0  -2  -9   -0.18    0.62
   0   2   9    0.46    0.35
   0   2   9    0.00    0.54
   0   2   9    0.37    0.72
  -1  -2  -9    6.10    1.06
   1   2   9    5.95    0.75
   1   2   9    7.93    0.87
   1   2   9    6.68    0.85
  -2  -2  -9    5.15    0.77
   2   2   9    5.06    0.75
   2   2   9    6.16    0.81
  -3  -2  -9    2.72    0.83
   3   2   9    2.93    0.83
   3   2   9    2.02    0.74
  -4  -2  -9    0.25    0.77
   4   2   9    0.18    0.80
   4   2   9    0.45    0.77
  -5  -2  -9   -0.38    0.77
   5   2   9    0.28    0.81
   5   2   9    1.38    0.78
   6   2   9   -1.05    0.93
  10  -3  -9    0.12    0.72
 -10   3   9    0.53    0.83
 -10   3   9    1.08    0.95
   9  -3  -9    1.27    0.67
  -9   3   9    0.54    0.82
  -9   3   9    0.80    0.80
   8  -3  -9    0.13    0.59
   8  -3  -9   -0.16    0.99
  -8   3   9    0.08    0.76
  -8   3   9   -0.58    0.73
   7  -3  -9    0.76    0.73
  -7   3   9    1.06    0.69
  -7   3   9    0.92    0.75
   6  -3  -9   -1.22    0.68
  -6   3   9    0.24    0.55
  -6   3   9   -0.31    0.73
  -6   3   9    0.05    0.62
  -5   3   9    2.72    0.63
  -5   3   9    2.98    0.78
  -5   3   9    3.41    0.62
  -4   3   9    6.04    0.87
  -4   3   9    5.58    0.86
  -4   3   9    7.93    0.95
  -3   3   9    0.18    0.67
  -3   3   9   -0.45    0.56
  -3   3   9    0.57    0.48
   2  -3  -9   -1.06    0.70
  -2   3   9    0.32    0.58
  -2   3   9    0.71    0.42
  -2   3   9    0.57    0.72
   1  -3  -9    0.77    0.70
  -1   3   9    1.93    0.70
  -1   3   9    2.52    0.41
  -1   3   9    2.06    0.74
   0  -3  -9   -0.99    0.66
   0   3   9   -0.03    0.65
   0   3   9    0.31    0.76
  -1  -3  -9   -0.68    0.68
   1   3   9    0.83    0.79
   1   3   9    0.29    0.62
  -2  -3  -9    4.31    0.83
   2   3   9    4.96    0.78
   2   3   9    5.53    0.82
  -3  -3  -9    0.43    0.78
   3   3   9    0.68    0.83
   3   3   9   -0.18    0.73
  -4  -3  -9    3.80    0.96
   4   3   9    3.77    0.95
   4   3   9    4.78    0.92
  -5  -3  -9    1.04    1.22
   5   3   9    2.25    0.85
   5   3   9    1.10    0.89
  10  -4  -9    0.18    0.76
 -10   4   9    0.28    0.91
 -10   4   9    0.07    0.96
   9  -4  -9    1.35    0.74
  -9   4   9    1.08    0.86
  -9   4   9    0.10    0.84
   8  -4  -9    0.93    0.70
  -8   4   9    0.96    0.82
  -8   4   9    1.58    0.85
   7  -4  -9   -0.45    0.88
  -7   4   9    3.69    0.70
  -7   4   9    2.25    0.75
  -7   4   9    1.48    0.81
  -6   4   9    0.93    0.84
  -6   4   9    1.72    0.70
  -6   4   9    2.13    0.69
  -5   4   9   -0.53    0.80
  -5   4   9    0.40    0.63
  -4   4   9    1.42    0.56
  -4   4   9    1.63    0.77
  -4   4   9    2.04    0.68
  -3   4   9    0.91    0.78
  -3   4   9    0.96    0.51
  -3   4   9    1.04    0.67
  -2   4   9    0.13    0.72
  -2   4   9   -0.22    0.65
  -2   4   9    0.08    0.43
   1  -4  -9   -1.00    0.74
  -1   4   9   -0.39    0.81
  -1   4   9   -0.62    0.69
   0  -4  -9    2.84    0.88
   0   4   9    2.48    0.85
   0   4   9    3.00    0.79
  -1  -4  -9    0.00    0.78
   1   4   9    0.40    0.73
   1   4   9    0.47    0.85
  -2  -4  -9    2.72    0.85
   2   4   9    3.11    0.83
   2   4   9    4.49    0.90
  -3  -4  -9    1.50    0.93
   3   4   9    3.30    0.93
   3   4   9    1.52    0.89
   9  -5  -9    0.22    0.76
  -9   5   9   -0.34    0.93
  -8   5   9    0.00    0.89
  -8   5   9    0.12    0.82
  -8   5   9    0.20    0.76
  -7   5   9    0.51    0.75
  -7   5   9   -0.18    0.91
  -7   5   9    0.55    0.76
  -6   5   9    0.58    0.75
  -6   5   9    0.38    0.84
  -6   5   9    0.01    0.68
   5  -5  -9   -1.31    0.90
  -5   5   9   -0.50    0.81
  -5   5   9   -0.22    0.63
  -5   5   9   -0.22    0.71
  -4   5   9    0.80    0.74
  -4   5   9   -0.43    0.89
  -4   5   9    0.46    0.57
  -3   5   9    1.39    0.87
  -3   5   9    2.30    0.79
  -2   5   9    0.47    0.78
  -2   5   9    1.22    0.88
  -1   5   9   -0.28    0.87
  -1   5   9   -0.43    0.78
   0  -5  -9   -0.80    0.85
   0   5   9    1.54    0.86
   0   5   9    1.02    0.90
  -1  -5  -9    5.82    1.11
   1   5   9    6.93    1.05
   1   5   9    6.71    1.00
  -2  -5  -9   -0.44    0.98
   2   5   9   -0.64    0.85
   2   5   9    0.57    0.85
  -7   6   9   -0.50    0.97
  -7   6   9    0.82    0.78
  -7   6   9    0.12    0.82
  -6   6   9    0.18    0.91
  -6   6   9    0.31    0.72
  -6   6   9    0.14    0.81
   5  -6  -9   -2.05    1.54
  -5   6   9    2.20    0.81
  -5   6   9    2.04    0.89
  -5   6   9    0.93    0.91
  -4   6   9   -0.34    0.96
  -4   6   9    0.47    0.83
  -3   6   9   -0.69    0.86
  -3   6   9    0.25    0.79
  -2   6   9    0.90    0.89
  -2   6   9    1.19    0.90
  -1   6   9    1.56    0.85
  -1   6   9    1.58    0.99
   0   6   9    0.05    0.90
   0   6   9   -0.29    0.86
   2  13 -10    1.62    1.01
   1  13 -10    0.16    0.89
  -1 -13  10    1.26    0.94
   0  13 -10   -0.06    0.87
   0 -13  10    1.65    0.78
   0 -13  10    1.89    0.96
  -1  13 -10    2.19    0.99
  -1  13 -10    1.28    0.94
   1 -13  10    2.90    0.84
   5  12 -10    0.52    0.99
  -5 -12  10    1.03    0.95
   4  12 -10    0.57    0.89
  -4 -12  10    2.39    0.92
   3  12 -10   -0.39    0.91
  -3 -12  10    1.42    0.88
   2  12 -10    0.26    0.89
  -2 -12  10    1.91    0.92
   1  12 -10    2.79    0.89
  -1 -12  10    3.04    0.71
  -1 -12  10    2.96    0.93
   0  12 -10    1.22    0.85
   0 -12  10    1.78    0.88
   0 -12  10    2.99    0.78
  -1  12 -10    1.12    0.87
   1 -12  10    2.52    0.84
   1 -12  10    0.32    0.81
  -2  12 -10   -0.02    0.90
  -2  12 -10    1.47    0.86
   2 -12  10    3.13    0.91
  -3  12 -10    0.67    0.90
  -3  12 -10    0.13    0.94
   3 -12  10    2.96    0.95
  -4  12 -10    1.24    1.25
   4 -12  10    3.51    1.01
   6  11 -10    0.19    0.99
  -6 -11  10    0.78    1.01
   5  11 -10    1.68    0.89
  -5 -11  10    1.03    0.94
   4  11 -10    0.06    0.82
  -4 -11  10    1.51    0.89
   3  11 -10    1.13    0.90
  -3 -11  10    2.12    0.85
   2  11 -10    3.33    0.89
  -2 -11  10    3.77    0.87
  -2 -11  10    3.96    0.68
   1  11 -10   -0.06    0.77
  -1 -11  10    1.66    0.83
   0  11 -10    4.01    0.86
   0 -11  10    3.01    0.80
  -1  11 -10    7.32    1.25
   1 -11  10    5.76    0.92
  -2  11 -10    5.47    0.91
   2 -11  10    5.80    0.94
  -3  11 -10    0.84    0.86
  -3  11 -10    1.58    0.85
   3 -11  10    3.50    0.93
  -4  11 -10    2.30    0.93
  -4  11 -10    0.67    0.84
   4 -11  10    2.96    0.91
  -5  11 -10    2.84    0.93
   5 -11  10    3.60    0.93
   8  10 -10    0.26    1.60
   7  10 -10    0.47    0.98
  -7 -10  10    1.33    1.08
   6  10 -10    1.12    0.95
  -6 -10  10    1.84    0.96
   5  10 -10    1.08    0.85
  -5 -10  10    3.31    0.94
   4  10 -10    1.92    0.87
  -4 -10  10    3.23    0.85
   3  10 -10    0.28    0.75
  -3 -10  10    0.02    0.80
  -3 -10  10    1.22    0.56
   2  10 -10    3.88    0.82
  -2 -10  10    2.41    0.75
   1  10 -10    2.32    0.78
  -1 -10  10    3.08    0.80
   0  10 -10    3.43    0.81
   0 -10  10    3.45    0.81
  -1  10 -10   -0.25    0.74
   1 -10  10    0.59    0.77
   1 -10  10    1.35    0.75
  -2  10 -10    1.13    0.77
   2 -10  10    0.40    0.76
   2 -10  10    1.84    0.80
  -3  10 -10    5.09    0.87
  -3  10 -10    6.41    0.91
   3 -10  10    6.10    0.87
  -4  10 -10   -0.23    0.77
  -4  10 -10   -0.20    0.87
   4 -10  10    0.28    0.78
  -5  10 -10    0.98    0.81
  -5  10 -10    0.10    0.83
   5 -10  10   -0.26    0.77
  -6  10 -10    1.92    0.87
   6 -10  10    1.45    0.87
   8   9 -10    1.14    0.93
  -8  -9  10    0.77    1.08
   7   9 -10   -0.32    0.86
  -7  -9  10    0.45    0.96
   6   9 -10    1.43    0.83
  -6  -9  10    2.18    0.89
   5   9 -10   -0.20    0.75
  -5  -9  10    0.82    0.86
   4   9 -10    0.72    0.79
  -4  -9  10    0.88    0.52
  -4  -9  10    0.43    0.75
   3   9 -10    7.78    1.21
  -3  -9  10   11.39    1.02
  -3  -9  10    7.91    1.29
   2   9 -10    8.58    1.14
  -2  -9  10    7.22    1.20
   1   9 -10   -0.09    0.68
  -1  -9  10    0.76    0.71
   0   9 -10    0.80    0.72
   0  -9  10    0.43    0.64
   0  -9  10    2.04    0.78
  -1   9 -10   25.80    1.63
   1  -9  10   28.21    1.68
   1  -9  10   24.29    1.63
  -2   9 -10    0.05    0.75
   2  -9  10    0.57    0.72
   2  -9  10    0.31    0.66
  -3   9 -10    0.33    0.79
   3  -9  10   -0.05    0.71
   3  -9  10    0.30    0.67
  -4   9 -10    3.12    0.73
  -4   9 -10    3.60    0.88
   4  -9  10    4.37    0.83
  -5   9 -10   -0.48    0.70
  -5   9 -10    1.01    0.76
   5  -9  10    0.07    0.68
  -6   9 -10    3.09    0.84
  -6   9 -10    4.35    1.02
   6  -9  10    2.57    0.81
   9   8 -10    0.21    0.95
  -9  -8  10   -2.27    1.13
   8   8 -10    1.33    0.87
  -8  -8  10    0.96    1.06
   7   8 -10   -0.15    0.78
  -7  -8  10    0.60    0.87
   6   8 -10   -0.27    0.80
  -6  -8  10    0.46    0.77
   5   8 -10    5.01    0.87
  -5  -8  10    6.54    0.85
  -5  -8  10    7.69    1.29
   4   8 -10    6.92    1.10
  -4  -8  10    7.12    1.23
   3   8 -10    0.04    0.63
  -3  -8  10   -0.07    0.65
   2   8 -10    0.07    0.67
  -2  -8  10    0.82    0.69
   1   8 -10    9.26    1.62
  -1  -8  10   12.06    1.02
  -1  -8  10    9.11    1.05
   0  -8  10    1.33    0.69
   0  -8  10    1.95    0.61
   1  -8  10    5.22    0.78
   1  -8  10    5.21    1.15
  -2   8 -10    3.29    1.46
   2  -8  10    3.14    0.69
   2  -8  10    2.78    0.73
   3  -8  10   -0.19    0.60
   3  -8  10    0.01    0.66
  -4   8 -10    5.89    0.89
  -4   8 -10    6.52    1.09
   4  -8  10    6.58    1.10
  -5   8 -10    1.28    0.72
  -6   8 -10    0.35    0.72
  -6   8 -10    0.24    0.73
   6  -8  10   -0.21    0.76
  -7   8 -10    0.59    0.76
   7  -8  10    0.27    0.81
  10   7 -10    0.19    0.96
   9   7 -10   -0.53    0.89
  -9  -7  10   -0.91    1.01
   8   7 -10   -0.23    0.84
  -8  -7  10    0.12    0.93
   7   7 -10    6.79    0.93
  -7  -7  10    4.51    0.88
   5   7 -10    1.97    0.75
  -5  -7  10    1.65    0.68
   4   7 -10    4.11    0.72
  -4  -7  10    4.18    0.70
   3   7 -10   28.05    2.27
  -3  -7  10   25.10    1.98
   2   7 -10   14.39    1.40
  -2  -7  10   16.93    1.16
   1   7 -10   10.86    1.11
  -1  -7  10   10.75    1.05
  -1  -7  10   10.97    1.26
   0   7 -10   26.95    1.53
   0  -7  10   26.20    1.46
   0  -7  10   21.14    1.88
  -1   7 -10    5.78    0.77
   1  -7  10    5.17    0.79
  -2   7 -10   18.06    1.41
   2  -7  10   14.67    1.18
   2  -7  10   16.19    1.36
  -3   7 -10    2.39    1.47
   3  -7  10    3.01    0.63
   3  -7  10    3.26    0.66
  -4   7 -10   -0.22    0.73
  -4   7 -10   -0.42    0.58
   4  -7  10   -0.06    0.60
  -5   7 -10    2.20    0.73
  -5   7 -10    1.50    0.66
   5  -7  10    0.97    0.71
  -6   7 -10    0.48    0.69
  -6   7 -10    0.12    0.70
   6  -7  10    0.75    0.69
  -7   7 -10    0.41    0.71
  -7   7 -10   -0.39    0.71
   7  -7  10   -0.48    0.79
  10   6 -10   -0.91    0.88
   9   6 -10    1.96    0.85
  -9  -6  10   -0.03    0.99
   8   6 -10    0.10    0.78
  -8  -6  10   -1.20    0.84
   7   6 -10   -0.16    0.68
  -7  -6  10   -0.99    0.76
   5   6 -10   12.06    1.16
  -5  -6  10   11.36    1.16
   4   6 -10    4.04    1.29
  -4  -6  10    5.30    0.79
   3   6 -10    0.57    0.63
  -3  -6  10   -0.05    0.52
  -3  -6  10    0.17    0.60
   2   6 -10   38.33    1.91
  -2  -6  10   38.14    1.84
  -2  -6  10   36.75    1.85
   1   6 -10   -0.06    0.60
  -1  -6  10    0.28    0.53
  -1  -6  10   -0.67    0.55
   0   6 -10   22.56    1.42
   0  -6  10   20.64    1.31
   0  -6  10   23.64    1.36
  -1   6 -10    8.90    1.15
   1  -6  10    9.18    0.99
   1  -6  10    6.85    0.99
  -2   6 -10   -0.61    0.72
   2  -6  10    0.22    0.58
   2  -6  10   -0.15    0.62
   3  -6  10   19.21    1.16
   3  -6  10   15.28    1.47
   3  -6  10   15.45    1.23
  -4   6 -10    4.68    0.76
   4  -6  10    3.95    0.68
   4  -6  10    2.57    0.66
  -5   6 -10    1.76    0.60
  -5   6 -10    3.06    0.72
   5  -6  10    1.89    0.70
  -6   6 -10    2.41    0.74
  -6   6 -10    1.48    0.63
   6  -6  10    0.78    1.04
   6  -6  10    0.21    0.72
  -7   6 -10    0.90    0.70
  -7   6 -10    0.26    0.66
   7  -6  10   -0.61    0.76
   7  -6  10    0.12    1.13
  11   5 -10    0.86    0.85
 -11  -5  10   -1.58    0.93
  10   5 -10    0.39    0.78
 -10  -5  10   -1.79    0.92
   9   5 -10   -0.02    0.76
  -9  -5  10   -0.22    0.81
   8   5 -10    3.12    0.76
  -8  -5  10    1.29    0.82
   7   5 -10    0.44    0.63
  -7  -5  10    0.34    0.68
  -7  -5  10    1.59    0.49
   6   5 -10    5.94    0.83
  -6  -5  10    4.97    0.78
   5   5 -10    0.30    0.74
   4   5 -10   20.55    1.34
  -4  -5  10   21.16    1.33
   3   5 -10    1.17    0.62
  -3  -5  10   -1.27    0.60
  -3  -5  10    1.10    0.58
   2   5 -10   31.87    1.69
  -2  -5  10   29.70    1.67
  -2  -5  10   31.88    1.62
   1   5 -10    6.52    0.99
  -1  -5  10    7.59    0.89
  -1  -5  10    6.21    0.75
   0   5 -10    5.97    1.01
   0  -5  10    5.96    0.87
   0  -5  10    4.09    0.67
  -1   5 -10   29.42    1.74
   1  -5  10   28.92    1.55
   1  -5  10   26.63    1.63
   1  -5  10   34.92    1.46
  -2   5 -10    4.04    0.76
   2  -5  10    4.52    0.61
   2  -5  10    2.92    0.77
   3  -5  10   -0.58    0.64
   3  -5  10    0.04    0.51
  -4   5 -10    7.83    1.09
   4  -5  10    6.48    0.96
   4  -5  10    6.35    0.81
  -5   5 -10   -0.42    0.69
   5  -5  10   -0.42    0.69
   5  -5  10   -0.96    0.83
  -6   5 -10   -0.11    0.68
  -6   5 -10   -0.27    0.55
   6  -5  10   -0.79    0.94
   6  -5  10   -0.53    0.73
  -7   5 -10    2.09    0.73
  -7   5 -10    1.39    0.62
   7  -5  10    2.19    1.09
   7  -5  10    0.87    0.73
  11   4 -10   -1.22    0.80
 -11  -4  10   -1.72    0.95
  10   4 -10    0.35    0.78
 -10  -4  10   -0.20    0.92
   9   4 -10   -0.28    0.68
  -9  -4  10   -0.51    0.82
   8   4 -10    0.73    0.67
  -8  -4  10    0.72    0.73
   7   4 -10   -0.09    0.67
  -7  -4  10   -0.42    0.66
   6   4 -10    4.73    0.71
  -6  -4  10    4.98    0.73
   5   4 -10    3.99    0.66
  -5  -4  10    4.32    0.74
   4   4 -10    4.36    0.64
  -4  -4  10    4.81    0.66
  -4  -4  10    2.87    0.78
   3   4 -10    6.98    1.01
  -3  -4  10    5.10    0.81
  -3  -4  10    7.04    0.80
   2   4 -10    7.08    1.03
  -2  -4  10    8.12    0.88
  -2  -4  10    8.92    0.90
   1   4 -10   25.23    1.53
  -1  -4  10   25.69    1.10
  -1  -4  10   23.61    1.53
  -1  -4  10   24.93    1.34
  -1  -4  10   24.80    1.10
   0   4 -10   -0.35    0.66
   0  -4  10    0.20    0.48
   0  -4  10   -0.51    0.59
  -1   4 -10    2.97    0.74
   1  -4  10    2.92    0.53
   1  -4  10    1.77    0.69
  -2   4 -10   27.78    2.21
   2  -4  10   31.24    1.49
   2  -4  10   27.61    1.59
   2  -4  10   27.97    1.63
  -3   4 -10    0.40    0.62
   3  -4  10   -0.62    0.66
   3  -4  10    0.09    0.50
  -4   4 -10    5.39    0.78
   4  -4  10    3.91    0.74
   4  -4  10    4.81    0.85
  -5   4 -10    0.98    0.50
  -5   4 -10    1.67    0.73
   5  -4  10    0.22    0.72
   5  -4  10   -0.84    0.82
  -6   4 -10    0.07    0.52
  -6   4 -10    0.45    0.69
   6  -4  10   -0.29    0.74
   6  -4  10   -0.81    0.87
  -7   4 -10    1.28    0.74
   7  -4  10    2.01    0.95
   7  -4  10    0.93    0.81
  11   3 -10   -0.07    0.80
 -11  -3  10   -0.68    0.94
  10   3 -10    2.18    0.76
 -10  -3  10    1.42    0.93
   9   3 -10    0.08    0.69
  -9  -3  10   -0.68    0.78
   8   3 -10    0.58    0.67
  -8  -3  10   -0.43    0.68
  -8  -3  10    0.83    0.77
   7   3 -10    5.99    0.80
  -7  -3  10    4.50    0.78
  -7  -3  10    4.81    0.76
   6   3 -10    1.97    0.63
  -6  -3  10    1.98    0.69
   5   3 -10    0.34    0.61
  -5  -3  10    0.48    0.60
  -5  -3  10   -1.28    0.66
   4   3 -10    4.18    0.67
  -4  -3  10    4.18    0.63
  -4  -3  10    3.88    0.73
   3   3 -10   30.17    1.66
  -3  -3  10   30.86    1.34
  -3  -3  10   28.78    1.67
  -3  -3  10   29.64    1.55
   2   3 -10    2.63    0.73
  -2  -3  10    2.36    0.52
  -2  -3  10    1.66    0.66
  -2  -3  10    2.97    0.37
   1   3 -10    0.56    0.66
  -1  -3  10    0.11    0.66
  -1  -3  10    1.20    0.35
  -1  -3  10    0.95    0.46
   0   3 -10   66.85    3.04
   0  -3  10   65.30    2.88
   0  -3  10   67.01    3.02
   0  -3  10   69.13    2.91
  -1   3 -10   -0.20    0.72
   1  -3  10   -0.02    0.46
   1  -3  10   -0.21    0.75
  -2   3 -10    5.28    0.82
   2  -3  10    4.61    0.56
   2  -3  10    3.98    0.67
   2  -3  10    4.18    0.77
  -3   3 -10   26.98    1.64
   3  -3  10   30.31    1.44
   3  -3  10   26.79    1.60
   3  -3  10   27.47    1.60
  -4   3 -10    0.02    0.66
  -4   3 -10    0.37    0.42
   4  -3  10   -0.46    0.72
  -5   3 -10    7.26    0.80
  -5   3 -10    6.64    1.09
   5  -3  10    6.83    0.90
   5  -3  10    5.94    0.90
  -6   3 -10    4.55    0.81
   6  -3  10    3.01    0.93
   6  -3  10    2.43    0.84
  -7   3 -10    0.99    0.76
   7  -3  10   -0.76    0.79
   7  -3  10    0.06    0.90
  11   2 -10    1.70    0.82
 -11  -2  10   -0.72    0.87
  10   2 -10    1.93    0.74
 -10  -2  10    0.47    0.80
   9   2 -10    1.21    0.70
  -9  -2  10   -0.13    0.66
  -9  -2  10    0.01    0.77
   8   2 -10   -0.13    0.80
  -8  -2  10   -1.44    0.63
  -8  -2  10   -0.06    0.68
   7   2 -10   -0.47    0.59
  -7  -2  10    0.17    0.69
   6   2 -10    6.04    1.00
  -6  -2  10    6.90    0.94
  -6  -2  10    5.75    0.76
   5   2 -10   18.00    1.30
  -5  -2  10   17.22    1.26
  -5  -2  10   19.15    1.26
  -5  -2  10   19.91    0.94
   4   2 -10   -0.43    0.59
  -4  -2  10   -0.24    0.58
  -4  -2  10   -0.19    0.50
  -4  -2  10   -0.07    0.30
   3   2 -10   -0.77    0.66
  -3  -2  10   -0.65    0.60
  -3  -2  10   -0.34    0.50
   2   2 -10   19.82    1.42
  -2  -2  10   21.11    1.18
  -2  -2  10   20.91    1.40
  -2  -2  10   20.91    1.08
   1   2 -10    0.85    0.67
  -1  -2  10    0.31    0.66
  -1  -2  10    1.19    0.46
  -1  -2  10    0.59    0.43
   0   2 -10   16.50    1.35
   0  -2  10   18.10    1.33
   0  -2  10   18.64    1.12
   0  -2  10   19.62    1.07
  -1   2 -10   22.43    1.81
   1  -2  10   28.97    1.49
   1  -2  10   29.41    1.40
   1  -2  10   28.10    1.73
  -2   2 -10    7.93    1.11
   2  -2  10    5.72    0.97
   2  -2  10    6.79    1.07
   2  -2  10    8.34    0.81
  -3   2 -10    5.27    0.79
   3  -2  10    4.49    0.74
   3  -2  10    5.18    0.76
   3  -2  10    5.36    0.73
  -4   2 -10    5.47    0.70
  -4   2 -10    3.83    0.74
   4  -2  10    3.20    0.76
   4  -2  10    3.91    0.78
  -5   2 -10    1.92    0.71
   5  -2  10    0.85    0.78
   5  -2  10    1.38    0.74
  -6   2 -10    1.97    0.75
   6  -2  10    0.26    0.84
   6  -2  10    0.98    0.75
  -7   2 -10    0.69    0.75
   7  -2  10   -0.58    0.92
   7  -2  10   -0.99    0.83
 -11  -1  10   -0.61    0.82
  10   1 -10   -0.56    0.69
 -10  -1  10   -0.07    0.83
  -9  -1  10   -0.05    0.64
  -9  -1  10   -0.35    0.77
   8   1 -10    4.57    0.67
   8   1 -10    4.07    0.70
  -8  -1  10    3.60    0.77
  -8  -1  10    4.17    0.70
   7   1 -10    1.13    0.64
  -7  -1  10    1.00    0.70
  -7  -1  10    1.96    0.39
  -7  -1  10    0.81    0.62
   6   1 -10   -0.02    0.61
  -6  -1  10    0.06    0.61
  -6  -1  10    0.67    0.35
  -6  -1  10    0.49    0.60
   5   1 -10   -0.01    0.66
  -5  -1  10   -0.21    0.60
  -5  -1  10    0.78    0.35
  -5  -1  10    0.46    0.59
   4   1 -10   13.60    1.25
  -4  -1  10   16.62    0.91
  -4  -1  10   15.49    1.23
  -4  -1  10   16.13    1.11
   3   1 -10    0.79    0.67
  -3  -1  10    1.58    0.66
  -3  -1  10    1.17    0.39
  -3  -1  10    1.37    0.50
   2   1 -10   19.20    1.37
  -2  -1  10   19.73    1.28
  -2  -1  10   20.58    1.12
  -2  -1  10   21.25    1.18
   1   1 -10   17.65    1.47
  -1  -1  10   18.43    1.09
  -1  -1  10   18.42    1.31
  -1  -1  10   18.87    1.12
   0   1 -10   -0.45    0.69
   0  -1  10   -0.33    0.76
   0  -1  10    0.02    0.41
   0  -1  10   -0.65    0.47
  -1   1 -10   28.21    1.68
   1  -1  10   29.96    1.58
   1  -1  10   29.51    1.69
   1  -1  10   32.14    1.47
  -2   1 -10    8.49    1.11
   2  -1  10    9.00    0.79
   2  -1  10    7.95    1.03
   2  -1  10    8.29    1.16
  -3   1 -10    5.28    0.76
   3  -1  10    6.23    0.85
   3  -1  10    6.12    0.71
   3  -1  10    4.80    0.75
  -4   1 -10   10.71    1.20
   4  -1  10    7.43    1.26
   4  -1  10    9.23    1.25
  -5   1 -10    0.91    0.70
   5  -1  10   -0.71    0.81
   5  -1  10   -0.08    0.78
  -6   1 -10    0.31    0.81
   6  -1  10   -1.01    0.76
   6  -1  10   -0.52    0.79
 -11   0  10   -0.64    0.95
 -10   0  10    0.59    0.88
 -10   0  10    0.71    0.74
   9   0 -10    0.05    0.63
   9   0 -10   -0.19    0.70
  -9   0  10    0.75    0.83
   8   0 -10    0.38    0.68
   8   0 -10    0.85    0.46
  -8   0  10    0.37    0.77
   7   0 -10   -0.94    0.65
  -7   0  10   -0.65    0.71
  -7   0  10    0.27    0.42
  -7   0  10    0.41    0.68
   6   0 -10    3.75    0.72
  -6   0  10    4.07    0.69
  -6   0  10    3.02    0.69
  -6   0  10    4.36    0.74
   5   0 -10    5.51    0.79
  -5   0  10    7.57    1.00
  -5   0  10    6.16    1.04
  -5   0  10    8.06    0.74
   4   0 -10    3.89    0.74
  -4   0  10    4.48    0.51
  -4   0  10    4.63    0.66
  -4   0  10    3.72    0.79
   3   0 -10    5.90    1.04
  -3   0  10    7.48    0.88
  -3   0  10    8.22    0.78
  -2   0  10    0.17    0.45
  -2   0  10    0.12    0.44
  -2   0  10   -0.26    0.75
   1   0 -10   34.94    1.91
  -1   0  10   37.70    1.70
  -1   0  10   36.99    1.92
  -1   0  10   36.90    1.77
   0   0 -10   13.61    1.26
   0   0  10   14.67    1.12
   0   0  10   15.46    1.29
   0   0  10   16.25    0.96
  -1   0 -10    8.53    1.13
   1   0  10   10.12    0.77
   1   0  10    8.70    1.18
   1   0  10    8.54    1.04
  -2   0 -10   13.40    1.23
   2   0  10   12.28    1.22
   2   0  10   14.50    0.88
   2   0  10   13.92    1.32
  -3   0 -10    1.95    0.79
   3   0  10    1.23    0.77
   3   0  10    1.50    0.72
  -4   0 -10    0.04    0.75
   4   0  10   -0.74    0.75
   4   0  10   -1.03    0.77
  -5   0 -10    0.86    0.78
   5   0  10   -0.23    0.75
   5   0  10   -0.52    0.85
  -6   0 -10    0.05    0.78
   6   0  10   -0.63    0.78
 -11   1  10   -0.62    1.25
 -10   1  10   -0.60    0.89
 -10   1  10    0.16    0.79
   9  -1 -10    2.07    0.60
   9  -1 -10    2.05    0.77
  -9   1  10    1.11    0.77
  -9   1  10    1.40    0.83
   8  -1 -10    0.46    0.70
   8  -1 -10    1.16    0.53
  -8   1  10    1.33    0.78
  -8   1  10    0.99    0.72
   7  -1 -10    2.98    0.72
  -7   1  10    3.37    0.75
  -7   1  10    4.09    0.74
  -7   1  10    4.59    0.57
   6  -1 -10   -0.79    0.64
  -6   1  10    0.31    0.48
  -6   1  10    0.63    0.67
  -6   1  10    0.27    0.70
   5  -1 -10    9.71    1.17
  -5   1  10   12.13    1.22
  -5   1  10   12.97    1.68
  -5   1  10   13.42    0.96
   4  -1 -10    2.75    0.81
  -4   1  10    3.33    0.61
  -4   1  10    3.14    0.74
  -4   1  10    2.81    0.52
  -3   1  10   24.59    1.33
  -3   1  10   23.52    1.33
  -3   1  10   24.05    1.54
   2  -1 -10    5.42    0.80
  -2   1  10    5.55    0.81
  -2   1  10    5.00    0.86
  -2   1  10    5.83    0.76
   1  -1 -10   -0.01    0.68
  -1   1  10    1.47    0.56
  -1   1  10    1.22    0.43
  -1   1  10    1.19    0.75
   0  -1 -10   31.11    1.79
   0   1  10   32.48    1.71
   0   1  10   35.08    1.54
   0   1  10   31.63    1.75
  -1  -1 -10    2.90    0.76
   1   1  10    2.90    0.81
   1   1  10    2.32    0.68
  -2  -1 -10    1.59    0.76
   2   1  10    2.09    0.81
   2   1  10    2.04    0.71
  -3  -1 -10    2.81    0.76
   3   1  10    2.14    0.74
   3   1  10    4.22    0.83
  -4  -1 -10    0.95    0.78
   4   1  10    1.20    0.77
   4   1  10   -0.03    0.80
  -5  -1 -10   -0.12    0.79
   5   1  10   -1.63    0.87
   5   1  10   -0.04    0.80
 -10   2  10   -0.04    0.86
 -10   2  10    0.67    0.88
   9  -2 -10    0.36    0.61
  -9   2  10    0.42    0.85
  -9   2  10   -0.41    0.82
   8  -2 -10    0.83    0.77
  -8   2  10    0.14    0.82
  -8   2  10    0.28    0.78
   7  -2 -10    0.75    0.74
  -7   2  10    0.77    0.57
  -7   2  10    1.91    0.75
  -7   2  10   -0.14    0.78
   6  -2 -10    1.21    0.84
  -6   2  10    1.43    0.67
  -6   2  10    1.62    0.57
  -6   2  10    1.38    0.73
  -5   2  10    0.27    0.55
  -5   2  10    0.14    0.67
  -5   2  10    0.09    0.70
   4  -2 -10    9.37    1.17
  -4   2  10   11.88    1.07
  -4   2  10   10.67    1.27
  -4   2  10   11.54    1.02
  -3   2  10   -0.10    0.68
  -3   2  10    0.12    0.56
  -3   2  10    0.18    0.50
   2  -2 -10   13.77    1.29
  -2   2  10   14.29    0.98
  -2   2  10   13.17    1.32
  -2   2  10   15.92    1.17
   1  -2 -10    7.18    0.88
  -1   2  10    8.47    0.77
  -1   2  10    8.20    1.24
  -1   2  10    7.44    0.99
   0  -2 -10    0.60    0.72
   0   2  10    1.94    0.79
   0   2  10    1.71    0.64
  -1  -2 -10   12.60    1.31
   1   2  10   16.16    1.40
   1   2  10   13.14    1.27
  -2  -2 -10    4.27    0.86
   2   2  10    4.42    0.81
   2   2  10    7.24    0.95
  -3  -2 -10    2.94    0.88
   3   2  10    2.38    0.85
   3   2  10    3.05    0.85
  -4  -2 -10    0.65    0.78
   4   2  10    0.72    0.84
   4   2  10    0.15    0.82
   9  -3 -10    0.42    0.70
  -9   3  10    0.17    0.86
  -9   3  10   -1.06    0.85
  -8   3  10    0.09    0.67
  -8   3  10    0.34    0.81
  -8   3  10   -0.04    0.85
  -7   3  10    1.47    0.67
  -7   3  10    1.15    0.74
  -7   3  10    2.18    0.84
   6  -3 -10    2.66    0.86
  -6   3  10    1.96    0.88
  -6   3  10    2.61    0.72
  -6   3  10    2.73    0.67
   5  -3 -10   -0.57    0.77
  -5   3  10    0.29    0.66
  -5   3  10   -0.26    0.80
  -5   3  10    0.86    0.63
   4  -3 -10    0.89    0.76
  -4   3  10    2.72    0.62
  -4   3  10    2.63    0.86
  -4   3  10    2.32    0.75
   3  -3 -10   -0.06    0.74
  -3   3  10    1.66    0.53
  -3   3  10    1.28    0.68
  -3   3  10    0.17    0.81
   2  -3 -10    0.70    0.76
  -2   3  10    1.27    0.67
  -2   3  10    1.16    0.80
  -2   3  10    1.79    0.49
   1  -3 -10   11.42    1.29
  -1   3  10   13.95    1.42
  -1   3  10   11.23    1.25
   0  -3 -10    4.29    0.88
   0   3  10    5.51    0.88
   0   3  10    4.70    0.80
  -1  -3 -10    1.50    0.79
   1   3  10    3.13    0.85
   1   3  10    2.53    0.77
  -2  -3 -10    2.66    0.83
   2   3  10    2.58    0.79
   2   3  10    3.35    0.87
  -3  -3 -10   -0.41    0.79
   3   3  10    0.20    0.86
   3   3  10   -1.39    0.82
  -8   4  10   -0.01    0.93
  -8   4  10    0.09    0.76
  -8   4  10    0.59    0.80
  -7   4  10    0.72    0.76
  -7   4  10   -0.13    0.89
  -7   4  10   -0.33    0.72
   6  -4 -10   -1.71    0.91
  -6   4  10    0.66    0.74
  -6   4  10    0.90    0.71
  -6   4  10    0.88    0.91
  -5   4  10    0.17    0.86
  -5   4  10    1.14    0.71
  -5   4  10    0.74    0.65
   4  -4 -10   -1.57    0.85
  -4   4  10   -0.40    0.70
  -4   4  10    0.06    0.89
  -3   4  10    5.17    0.93
  -3   4  10    6.08    0.87
   2  -4 -10    0.24    0.84
  -2   4  10    2.56    0.79
  -2   4  10    1.98    0.83
   1  -4 -10    1.36    0.90
  -1   4  10    3.97    0.95
  -1   4  10    2.68    0.82
   0  -4 -10    1.79    0.90
   0   4  10    2.76    0.86
   0   4  10    2.58    0.90
  -1  -4 -10   -1.36    0.77
   1   4  10    0.21    0.89
   1   4  10   -0.78    0.78
  -6   5  10    0.36    0.97
  -6   5  10    0.18    0.79
  -6   5  10    0.49    0.76
  -5   5  10    0.67    0.99
  -5   5  10    0.72    0.80
  -5   5  10    1.34    0.88
  -4   5  10    0.56    0.89
  -4   5  10    0.00    0.80
  -3   5  10    1.56    0.97
  -3   5  10   -0.13    0.82
  -2   5  10    2.26    0.99
  -2   5  10    2.46    0.83
  -1   5  10   -0.68    0.92
  -1   5  10   -0.49    0.84
   4  12 -11   -0.27    0.98
   3  12 -11    0.71    1.01
  -3 -12  11    1.73    0.96
   2  12 -11    2.54    0.98
  -2 -12  11    3.11    1.00
   1  12 -11    1.31    0.91
  -1 -12  11    2.48    0.84
  -1 -12  11    0.83    0.95
   0  12 -11    1.68    0.94
   0 -12  11    2.01    0.95
   0 -12  11    3.05    0.89
  -1  12 -11    3.27    0.97
   1 -12  11    3.50    0.93
  -2  12 -11    2.13    0.95
  -2  12 -11    1.40    0.97
   2 -12  11    2.46    1.00
   5  11 -11   -0.08    0.96
  -5 -11  11    0.45    1.02
   4  11 -11    4.36    0.97
  -4 -11  11    5.11    1.04
   3  11 -11    2.23    0.94
  -3 -11  11    0.51    0.94
   2  11 -11    1.37    0.86
  -2 -11  11    2.09    0.91
  -2 -11  11    3.42    0.78
   1  11 -11    4.91    0.99
  -1 -11  11    4.45    0.98
   0  11 -11    0.96    0.89
   0 -11  11    2.04    0.84
   0 -11  11    0.28    0.83
  -1  11 -11    2.10    0.91
   1 -11  11    4.33    0.95
   1 -11  11    2.48    0.86
  -2  11 -11    0.49    0.88
   2 -11  11    1.95    0.97
   2 -11  11    1.59    0.88
  -3  11 -11    0.08    0.85
  -3  11 -11    0.79    0.97
   3 -11  11    0.64    0.93
  -4  11 -11    0.06    0.88
  -4  11 -11    0.42    1.01
   4 -11  11    0.42    0.96
   7  10 -11   -0.55    1.05
  -7 -10  11    0.06    1.06
   6  10 -11    1.17    1.00
  -6 -10  11    1.89    1.09
   5  10 -11   -0.47    0.93
  -5 -10  11    1.35    0.95
   4  10 -11    1.48    0.90
  -4 -10  11    1.34    0.92
   3  10 -11    7.92    1.34
  -3 -10  11    5.49    0.97
   2  10 -11    1.17    0.84
  -2 -10  11    1.99    0.88
   1  10 -11   13.64    1.45
  -1 -10  11   12.67    1.31
   0  10 -11   -0.32    0.80
   0 -10  11    1.95    0.82
   0 -10  11    0.70    0.81
  -1  10 -11    2.16    0.83
   1 -10  11    4.30    0.91
   1 -10  11    0.73    0.76
  -2  10 -11    7.30    1.00
   2 -10  11    5.70    0.92
   2 -10  11    7.56    1.01
  -3  10 -11    0.73    0.94
   3 -10  11    1.33    0.86
   3 -10  11    1.77    0.90
  -4  10 -11    0.36    0.83
  -4  10 -11    2.68    0.99
   4 -10  11    0.96    0.89
  -5  10 -11    1.17    1.10
  -5  10 -11    0.32    0.79
   5 -10  11    0.01    0.87
   8   9 -11    0.94    1.00
  -8  -9  11    0.52    1.16
   7   9 -11    0.01    0.94
  -7  -9  11   -0.15    1.01
   6   9 -11    1.41    0.94
  -6  -9  11    1.32    0.94
   5   9 -11    6.50    1.02
  -5  -9  11    5.24    1.01
   4   9 -11    2.32    0.80
  -4  -9  11    1.23    0.82
   3   9 -11   10.55    1.41
  -3  -9  11   11.73    1.40
   2   9 -11    1.19    0.84
  -2  -9  11    0.28    0.81
   1   9 -11    2.90    0.84
  -1  -9  11    2.66    0.83
   0   9 -11   15.93    1.51
   0  -9  11   20.00    1.56
   0  -9  11   16.74    1.48
  -1   9 -11    0.21    0.80
   1  -9  11    0.51    0.74
   1  -9  11    1.36    0.76
  -2   9 -11    1.08    0.85
   2  -9  11    1.26    0.75
   2  -9  11    0.15    0.77
  -3   9 -11    2.79    0.97
   3  -9  11    2.56    0.81
   3  -9  11    1.99    0.84
  -4   9 -11    2.57    0.88
  -4   9 -11    1.58    0.81
   4  -9  11    2.06    0.86
  -5   9 -11    1.08    0.82
  -5   9 -11   -0.60    0.77
   5  -9  11   -0.14    0.77
   9   8 -11    0.29    1.04
  -9  -8  11   -1.43    1.11
   8   8 -11   -1.16    0.92
  -8  -8  11   -1.41    0.97
   7   8 -11    4.48    1.00
  -7  -8  11    3.26    1.04
   6   8 -11    2.25    0.85
  -6  -8  11    2.75    0.93
   5   8 -11    7.08    0.93
  -5  -8  11    5.94    0.89
   4   8 -11    3.24    0.80
  -4  -8  11    2.76    0.76
   3   8 -11    1.21    0.74
  -3  -8  11    1.13    0.73
   2   8 -11   43.04    2.24
  -2  -8  11   46.66    2.18
  -2  -8  11   41.14    2.17
   1   8 -11    1.71    0.77
  -1  -8  11    1.27    0.71
   0   8 -11    0.35    0.71
   0  -8  11    0.67    0.72
   0  -8  11    0.35    0.67
  -1   8 -11   13.61    1.36
   1  -8  11   12.38    1.31
   1  -8  11   14.80    1.32
  -2   8 -11    6.24    0.97
   2  -8  11    5.15    0.84
   2  -8  11    4.25    0.79
  -3   8 -11    5.34    0.96
   3  -8  11    3.97    0.78
   3  -8  11    4.20    0.81
  -4   8 -11    1.38    0.70
  -4   8 -11    1.50    0.84
   4  -8  11    0.47    0.77
  -5   8 -11   -0.04    0.69
  -5   8 -11    0.83    0.78
   5  -8  11   -0.19    0.79
  -6   8 -11    1.42    0.81
  -6   8 -11    1.11    0.78
   6  -8  11    0.49    0.83
   9   7 -11    1.57    0.93
  -9  -7  11    0.40    0.99
   8   7 -11    0.61    0.84
  -8  -7  11   -0.43    0.93
   7   7 -11    1.37    0.85
  -7  -7  11    1.22    0.81
   6   7 -11    2.50    0.82
  -6  -7  11    1.89    0.82
   5   7 -11    0.26    0.79
  -5  -7  11    0.38    0.74
   4   7 -11   20.32    1.54
  -4  -7  11   20.70    1.44
  -4  -7  11   27.12    1.41
   3   7 -11    2.41    0.77
  -3  -7  11    1.75    0.72
  -3  -7  11    1.66    0.63
   2   7 -11    0.12    0.66
  -2  -7  11   -1.21    0.61
  -2  -7  11    0.13    0.69
   1   7 -11   27.88    1.65
  -1  -7  11   26.57    1.52
  -1  -7  11   25.45    1.58
   0   7 -11    2.43    0.76
   0  -7  11    2.30    0.73
   0  -7  11    3.19    0.66
  -1   7 -11    2.54    0.81
   1  -7  11    1.71    0.69
   1  -7  11    2.41    0.67
  -2   7 -11    7.56    1.32
   2  -7  11    9.82    1.14
   2  -7  11    8.03    1.16
  -3   7 -11    0.90    0.77
   3  -7  11    1.14    0.68
   3  -7  11   -0.01    0.71
  -4   7 -11    1.70    0.65
  -4   7 -11    1.92    0.78
   4  -7  11    0.59    0.73
  -5   7 -11    1.06    0.77
  -5   7 -11    0.69    0.69
   5  -7  11   -0.63    0.68
  -6   7 -11    0.63    0.71
  -6   7 -11    1.55    0.81
   6  -7  11   -0.10    0.81
  10   6 -11    0.42    0.85
   9   6 -11    0.66    0.88
  -9  -6  11   -0.97    0.89
   8   6 -11    0.20    0.85
  -8  -6  11   -0.97    0.81
   7   6 -11    0.36    0.73
  -7  -6  11    0.00    0.76
   6   6 -11   19.50    1.49
  -6  -6  11   22.84    1.31
  -6  -6  11   18.40    1.39
   5   6 -11    0.25    0.72
  -5  -6  11    0.28    0.68
   4   6 -11    2.32    0.68
  -4  -6  11    2.69    0.67
   3   6 -11    9.99    1.19
  -3  -6  11    8.00    0.89
  -3  -6  11   11.66    1.03
   2   6 -11    5.25    0.76
  -2  -6  11    3.77    0.75
  -2  -6  11    6.36    1.01
   1   6 -11    9.49    1.20
  -1  -6  11    6.63    1.08
  -1  -6  11    9.76    0.95
   0   6 -11    6.44    0.84
   0  -6  11    6.76    0.84
   0  -6  11    6.17    0.99
  -1   6 -11    0.29    0.78
   1  -6  11   -0.48    0.64
   1  -6  11    0.92    0.58
  -2   6 -11    8.96    1.25
   2  -6  11    6.59    0.99
   2  -6  11    5.62    0.84
  -3   6 -11    0.66    0.77
   3  -6  11    0.85    0.62
   3  -6  11    0.15    0.73
  -4   6 -11    0.77    0.78
   4  -6  11    0.00    0.67
  -5   6 -11    4.34    0.81
  -5   6 -11    3.96    0.70
   5  -6  11    3.36    0.81
   5  -6  11    1.73    1.45
  -6   6 -11    0.72    0.66
  -6   6 -11    1.81    0.81
   6  -6  11   -0.63    0.78
  10   5 -11    0.01    0.84
 -10  -5  11   -0.43    0.87
   9   5 -11    0.17    0.82
  -9  -5  11   -1.65    0.84
   8   5 -11    7.08    0.95
  -8  -5  11    5.34    0.92
   7   5 -11   -0.08    0.71
  -7  -5  11   -0.13    0.71
   6   5 -11    0.11    0.66
  -6  -5  11   -0.62    0.67
  -6  -5  11   -1.17    0.65
   5   5 -11   11.24    1.22
  -5  -5  11   11.79    1.08
   4   5 -11    5.91    0.83
  -4  -5  11    5.48    0.78
   3   5 -11   16.21    1.27
  -3  -5  11   16.60    1.22
   2   5 -11   18.62    1.36
  -2  -5  11   15.84    1.39
   1   5 -11    1.43    0.68
  -1  -5  11   -0.13    0.74
  -1  -5  11    2.16    0.68
   0   5 -11   25.74    1.69
   0  -5  11   24.18    1.59
   0  -5  11   26.09    1.46
  -1   5 -11    1.79    0.82
   1  -5  11    2.07    0.62
   1  -5  11    1.72    0.68
   1  -5  11    0.06    0.71
  -2   5 -11   -0.28    0.77
   2  -5  11   -0.53    0.68
  -3   5 -11    4.15    0.81
   3  -5  11    2.71    0.74
   3  -5  11    4.75    0.76
  -4   5 -11    0.36    0.75
   4  -5  11   -1.39    0.83
   4  -5  11   -1.32    0.75
  -5   5 -11    1.82    0.79
  -5   5 -11    0.15    0.57
   5  -5  11   -0.88    1.07
   5  -5  11   -0.67    0.77
  -6   5 -11    0.74    0.79
   6  -5  11   -0.05    1.00
   6  -5  11   -0.85    0.75
  10   4 -11    2.15    0.85
 -10  -4  11    0.57    0.94
   9   4 -11    0.82    0.75
  -9  -4  11   -0.92    0.79
   8   4 -11    0.27    0.72
  -8  -4  11   -1.06    0.77
   7   4 -11    8.53    1.25
  -7  -4  11    8.90    0.97
  -7  -4  11    8.62    1.22
   6   4 -11    1.36    0.66
  -6  -4  11    2.72    0.74
  -6  -4  11    0.06    0.80
   5   4 -11   13.29    1.24
  -5  -4  11   12.63    1.19
  -5  -4  11   10.62    1.06
   4   4 -11   15.72    1.28
  -4  -4  11   16.60    1.18
  -4  -4  11   11.09    1.36
   3   4 -11    0.14    0.63
  -3  -4  11   -1.20    0.70
   2   4 -11   34.22    1.90
  -2  -4  11   33.40    1.88
  -2  -4  11   34.94    1.73
   1   4 -11    2.95    0.79
  -1  -4  11    4.08    0.61
   0   4 -11   -0.30    0.76
   0  -4  11   -0.05    0.51
  -1   4 -11   16.50    1.41
   1  -4  11   13.60    1.31
   1  -4  11   16.89    1.14
  -2   4 -11    0.29    0.70
   2  -4  11   -1.23    0.72
   2  -4  11    0.24    0.52
  -3   4 -11    0.72    0.71
   3  -4  11   -1.05    0.74
   3  -4  11   -1.34    0.71
   3  -4  11    0.05    0.54
  -4   4 -11    3.73    0.78
  -4   4 -11    5.50    0.82
   4  -4  11    4.03    0.88
   4  -4  11    3.32    0.85
  -5   4 -11    1.63    0.77
   5  -4  11    0.33    0.77
   5  -4  11    1.23    0.90
  -6   4 -11    0.38    0.77
   6  -4  11   -0.02    0.95
   6  -4  11   -0.41    0.85
  10   3 -11    1.32    0.83
 -10  -3  11    0.93    0.86
   9   3 -11    2.28    0.80
  -9  -3  11    2.59    0.89
   8   3 -11    0.95    0.77
  -8  -3  11    0.59    0.77
  -8  -3  11    0.92    0.77
   7   3 -11    0.88    0.69
  -7  -3  11    0.75    0.68
  -7  -3  11    0.00    0.76
   6   3 -11   11.00    1.18
  -6  -3  11   12.86    1.21
  -6  -3  11    9.93    1.23
   5   3 -11    2.11    0.65
  -5  -3  11    2.78    0.70
  -5  -3  11    0.70    0.74
   4   3 -11   24.46    1.51
  -4  -3  11   24.54    1.56
  -4  -3  11   23.34    1.54
   3   3 -11    1.98    0.79
  -3  -3  11    1.01    0.73
  -3  -3  11    2.71    0.62
   2   3 -11    0.87    0.72
  -2  -3  11    0.28    0.59
  -2  -3  11    1.40    0.54
   1   3 -11   33.77    1.90
  -1  -3  11   34.70    1.64
  -1  -3  11   33.47    1.85
  -1  -3  11   34.22    1.69
   0   3 -11    0.51    0.76
   0  -3  11   -0.58    0.68
   0  -3  11    0.55    0.51
  -1   3 -11    0.68    0.72
   1  -3  11    0.52    0.51
   1  -3  11    0.38    0.68
   1  -3  11   -0.75    0.57
  -2   3 -11    0.28    0.76
   2  -3  11    1.13    0.53
   2  -3  11   -0.05    0.69
   2  -3  11   -0.63    0.62
  -3   3 -11    0.08    0.69
   3  -3  11   -0.79    0.76
   3  -3  11   -1.18    0.67
   3  -3  11   -0.07    0.50
  -4   3 -11    0.79    0.53
  -4   3 -11    1.04    0.73
   4  -3  11    0.03    0.73
  -5   3 -11    0.29    0.72
   5  -3  11   -1.01    0.81
   5  -3  11   -1.34    0.83
  -6   3 -11   -0.03    0.74
   6  -3  11   -1.21    0.84
   6  -3  11    0.11    0.94
  10   2 -11   -1.10    0.76
 -10  -2  11    0.75    0.81
   9   2 -11   -0.02    0.72
  -9  -2  11   -0.17    0.81
   8   2 -11    2.47    0.74
  -8  -2  11    2.16    0.76
  -8  -2  11    2.68    0.81
   7   2 -11    0.43    0.69
  -7  -2  11    0.43    0.68
  -7  -2  11    0.00    0.69
   6   2 -11    9.23    1.17
  -6  -2  11    7.78    1.10
  -6  -2  11    9.93    1.16
   5   2 -11    2.47    0.72
  -5  -2  11    2.33    0.73
  -5  -2  11    4.00    0.72
   4   2 -11   -0.77    0.69
  -4  -2  11   -0.35    0.76
   3   2 -11   42.58    2.20
  -3  -2  11   44.29    2.05
  -3  -2  11   42.24    2.78
  -3  -2  11   43.94    1.92
   2   2 -11    0.00    0.75
  -2  -2  11   -0.81    0.42
  -2  -2  11   -1.06    0.70
  -2  -2  11    0.55    0.54
   1   2 -11    6.64    0.91
  -1  -2  11    7.82    0.87
  -1  -2  11    5.65    0.82
  -1  -2  11    5.91    0.81
   0   2 -11   12.22    1.25
   0  -2  11   11.00    1.02
   0  -2  11   13.24    0.97
   0  -2  11   11.11    1.12
  -1   2 -11    0.59    0.74
   1  -2  11    0.39    0.48
   1  -2  11   -0.71    0.57
   1  -2  11   -0.16    0.67
  -2   2 -11    4.83    0.80
   2  -2  11    4.77    0.74
   2  -2  11    6.88    0.89
   2  -2  11    6.63    0.87
  -3   2 -11    2.23    0.80
   3  -2  11   -0.43    0.70
   3  -2  11    1.32    0.75
   3  -2  11    1.50    0.50
  -4   2 -11    2.27    0.73
   4  -2  11    1.59    0.83
   4  -2  11    1.32    0.77
  -5   2 -11    0.26    0.77
   5  -2  11   -0.49    0.82
   5  -2  11   -0.89    0.80
  10   1 -11    0.38    0.82
 -10  -1  11    0.01    0.89
   9   1 -11    1.12    0.79
  -9  -1  11    1.03    0.84
  -9  -1  11   -0.11    0.74
   8   1 -11    2.52    0.78
  -8  -1  11    0.99    0.73
  -8  -1  11    2.86    0.84
   7   1 -11    0.38    0.74
  -7  -1  11    1.40    0.76
  -7  -1  11    0.49    0.71
   6   1 -11   -0.51    0.71
  -6  -1  11   -1.23    0.68
  -6  -1  11   -0.72    0.63
   5   1 -11   17.76    1.42
  -5  -1  11   19.40    1.42
  -5  -1  11   21.42    1.34
   4   1 -11    0.18    0.68
  -4  -1  11    0.52    0.42
  -4  -1  11    0.26    0.67
   3   1 -11    6.87    1.14
  -3  -1  11    8.60    0.97
  -3  -1  11    6.83    1.06
  -3  -1  11    7.60    0.82
   2   1 -11   34.04    1.94
  -2  -1  11   35.31    1.73
  -2  -1  11   35.92    1.93
  -2  -1  11   36.16    1.71
   1   1 -11   -0.29    0.65
  -1  -1  11   -0.28    0.46
  -1  -1  11   -0.69    0.71
  -1  -1  11   -0.77    0.48
   0   1 -11    2.62    0.79
   0  -1  11    3.46    0.52
   0  -1  11    2.63    0.60
   0  -1  11    2.57    0.78
  -1   1 -11   -0.61    0.74
   1  -1  11    0.51    0.77
   1  -1  11   -0.18    0.59
   1  -1  11    0.38    0.47
  -2   1 -11    5.56    0.87
   2  -1  11    5.35    0.81
   2  -1  11    3.86    0.79
   2  -1  11    2.94    0.72
  -3   1 -11   -0.31    0.71
   3  -1  11   -1.06    0.76
   3  -1  11   -1.29    0.70
  -4   1 -11    0.65    0.73
  -5   1 -11    1.57    0.84
   5  -1  11    0.56    0.84
   5  -1  11   -0.33    0.82
 -10   0  11    0.74    0.90
   9   0 -11    0.37    0.78
  -9   0  11    0.44    0.77
  -9   0  11    0.29    0.78
   8   0 -11   -0.05    0.75
  -8   0  11   -0.49    0.79
  -8   0  11   -0.05    0.71
   7   0 -11   10.22    1.27
  -7   0  11   11.78    1.27
  -7   0  11    9.38    1.20
   6   0 -11   -0.84    0.70
  -6   0  11    0.69    0.71
  -6   0  11    0.67    0.67
   5   0 -11    1.09    0.72
  -5   0  11    2.51    0.75
  -5   0  11    2.04    0.65
  -5   0  11    2.52    0.52
   4   0 -11   18.34    1.45
  -4   0  11   22.87    1.22
  -4   0  11   20.39    1.83
  -4   0  11   20.44    1.48
   3   0 -11   -0.58    0.70
  -3   0  11   -0.12    0.53
  -3   0  11   -0.34    0.74
  -3   0  11   -0.22    0.48
   2   0 -11    7.83    1.18
  -2   0  11    9.35    0.89
  -2   0  11    7.93    0.94
  -2   0  11    8.77    1.19
   1   0 -11    5.60    0.87
  -1   0  11    6.29    0.82
  -1   0  11    5.99    0.96
  -1   0  11    5.43    0.81
   0   0 -11    0.09    0.68
   0   0  11   -0.32    0.45
   0   0  11   -0.46    0.58
   0   0  11   -0.40    0.75
  -1   0 -11    3.02    0.81
   1   0  11    2.69    0.84
   1   0  11    3.34    0.71
  -2   0 -11   -0.63    0.75
   2   0  11   -0.90    0.68
   2   0  11   -0.54    0.78
  -3   0 -11   -0.53    0.75
   3   0  11   -0.04    0.74
   3   0  11   -1.45    0.74
  -4   0 -11    0.94    0.78
   4   0  11   -1.66    0.81
   4   0  11   -0.48    0.77
  -9   1  11    0.60    0.87
  -9   1  11    1.01    0.81
   8  -1 -11    1.15    0.82
  -8   1  11   -0.26    0.81
  -8   1  11   -0.89    0.77
   7  -1 -11    0.48    0.76
  -7   1  11   -0.03    0.77
  -7   1  11    0.34    0.75
   6  -1 -11    7.87    1.19
  -6   1  11    9.32    0.99
  -6   1  11    7.93    1.24
  -6   1  11    9.16    1.18
   5  -1 -11    2.26    0.78
  -5   1  11    2.86    0.71
  -5   1  11    2.50    0.58
  -5   1  11    2.50    0.80
   4  -1 -11    3.14    0.77
  -4   1  11    4.22    0.85
  -4   1  11    4.95    0.68
  -4   1  11    4.70    0.64
   3  -1 -11    7.46    1.15
  -3   1  11    9.96    1.30
  -3   1  11    9.62    1.02
  -3   1  11   10.94    1.00
   2  -1 -11   -1.06    0.71
  -2   1  11   -0.45    0.79
  -2   1  11    0.69    0.50
  -2   1  11    0.05    0.57
   1  -1 -11    4.31    0.84
  -1   1  11    6.32    0.80
  -1   1  11    4.84    0.69
  -1   1  11    6.82    0.91
   0  -1 -11    1.79    0.78
   0   1  11    1.02    0.75
   0   1  11    2.13    0.83
  -1  -1 -11   -0.06    0.76
   1   1  11   -0.22    0.81
   1   1  11   -0.71    0.68
  -2  -1 -11    0.60    0.73
   2   1  11    0.52    0.77
   2   1  11    0.15    0.75
  -3  -1 -11   -0.31    0.83
   3   1  11   -1.10    0.78
   3   1  11    0.34    0.81
  -9   2  11    1.49    0.90
  -9   2  11    2.14    0.87
  -8   2  11    3.21    0.87
  -8   2  11    3.69    0.88
   7  -2 -11    0.61    0.80
  -7   2  11    0.12    0.75
  -7   2  11   -0.57    0.78
   6  -2 -11    3.40    0.82
  -6   2  11    3.62    0.73
  -6   2  11    3.14    0.88
   5  -2 -11    0.66    0.78
  -5   2  11    0.21    0.78
  -5   2  11    0.86    0.69
  -5   2  11    0.24    0.68
   4  -2 -11   -0.05    0.78
  -4   2  11   -0.56    0.72
  -4   2  11    1.14    0.60
  -4   2  11    0.13    0.81
   3  -2 -11    8.79    1.24
  -3   2  11   11.48    1.02
  -3   2  11   10.86    1.39
   2  -2 -11    1.26    0.75
  -2   2  11    2.19    0.53
  -2   2  11    2.01    0.70
  -2   2  11    2.84    0.91
   1  -2 -11   -0.31    0.75
  -1   2  11   -0.24    0.67
  -1   2  11    0.50    0.84
   0  -2 -11    0.31    0.80
   0   2  11    0.02    0.70
   0   2  11    0.64    0.82
  -1  -2 -11   -0.54    0.81
   1   2  11    1.04    0.89
   1   2  11    0.01    0.75
  -2  -2 -11   -1.12    0.82
   2   2  11   -0.24    0.84
   2   2  11   -1.09    0.77
  -8   3  11   -0.13    0.88
   7  -3 -11    2.34    1.28
  -7   3  11    0.87    0.90
  -7   3  11    1.31    0.88
  -7   3  11    2.12    0.82
   6  -3 -11    1.69    0.88
  -6   3  11    0.84    0.73
  -6   3  11    0.80    0.89
  -6   3  11    0.68    0.71
   5  -3 -11    9.24    1.35
  -5   3  11    8.53    1.25
  -5   3  11    7.46    1.07
  -5   3  11   10.81    1.22
   4  -3 -11    1.50    0.83
  -4   3  11    1.68    0.75
  -4   3  11    1.78    0.64
  -4   3  11    1.86    0.88
   3  -3 -11   -0.70    0.78
  -3   3  11    0.15    0.85
  -3   3  11   -0.52    0.71
   2  -3 -11    1.16    0.81
  -2   3  11    2.70    0.87
  -2   3  11    1.69    0.76
   1  -3 -11   -0.53    0.82
  -1   3  11   -0.80    0.76
  -1   3  11    0.42    0.83
   0  -3 -11   -0.61    0.82
   0   3  11    1.70    0.90
   0   3  11   -0.06    0.74
  -1  -3 -11    0.43    0.96
   1   3  11   -1.10    0.81
   1   3  11    1.18    0.88
   5  -4 -11    1.30    0.99
  -5   4  11    1.23    0.82
  -5   4  11    1.19    0.98
   4  -4 -11    3.44    1.03
  -4   4  11    3.56    1.01
  -4   4  11    4.34    0.88
   3  -4 -11   -1.00    0.90
  -3   4  11   -0.56    0.89
  -3   4  11   -0.40    0.81
   2  -4 -11   -0.11    0.89
  -2   4  11   -0.62    0.81
  -2   4  11    0.73    1.03
   4  11 -12    0.66    1.02
  -4 -11  12   -0.76    1.04
   3  11 -12   -0.60    0.96
  -3 -11  12    0.03    0.91
   2  11 -12    0.45    0.97
  -2 -11  12    1.58    0.90
  -2 -11  12    2.63    0.89
   1  11 -12    3.16    1.01
  -1 -11  12    5.62    1.00
  -1 -11  12    3.42    0.98
   0  11 -12    2.27    0.98
   0 -11  12    2.96    0.99
   0 -11  12    1.46    0.96
  -1  11 -12    0.28    0.98
   1 -11  12    0.69    0.98
   1 -11  12    0.64    0.94
  -2  11 -12    1.50    1.04
   2 -11  12   -0.80    0.97
   2 -11  12    1.40    1.00
   6  10 -12    0.14    1.02
  -6 -10  12   -0.12    1.13
   5  10 -12    0.72    0.96
  -5 -10  12    0.42    0.98
   4  10 -12    0.71    0.98
  -4 -10  12    0.79    0.97
   3  10 -12    1.67    0.93
  -3 -10  12    3.23    0.85
  -3 -10  12    0.79    0.92
   2  10 -12    4.03    0.97
  -2 -10  12    2.79    0.96
   1  10 -12    0.80    0.88
  -1 -10  12    0.62    0.81
  -1 -10  12    2.63    0.91
   0  10 -12    1.53    0.89
   0 -10  12    2.82    0.96
   0 -10  12    1.64    0.91
  -1  10 -12    2.05    0.97
   1 -10  12    0.18    0.88
   1 -10  12    1.50    0.95
  -2  10 -12    3.22    1.04
   2 -10  12    1.92    1.01
   2 -10  12    2.05    0.86
  -3  10 -12    1.93    1.05
   3 -10  12    1.23    0.98
   3 -10  12    0.91    0.91
   7   9 -12    0.40    1.05
  -7  -9  12    0.19    1.09
   6   9 -12    1.53    0.93
  -6  -9  12    1.13    1.03
   5   9 -12   -0.33    0.90
  -5  -9  12    1.00    0.93
   4   9 -12    6.23    1.06
  -4  -9  12    4.16    0.98
   3   9 -12    1.10    0.92
  -3  -9  12    0.90    0.88
  -3  -9  12    3.48    1.13
   2   9 -12    1.54    0.90
  -2  -9  12    2.18    0.81
  -2  -9  12    4.26    0.89
   1   9 -12    1.77    0.91
  -1  -9  12    1.54    0.84
  -1  -9  12    1.55    0.86
   0   9 -12    1.74    0.90
   0  -9  12    1.00    0.88
   0  -9  12    1.93    0.81
  -1   9 -12    0.82    0.94
   1  -9  12   -0.43    0.81
   1  -9  12   -0.11    0.86
  -2   9 -12    1.43    1.00
   2  -9  12   -0.93    0.84
   2  -9  12    0.55    0.78
  -3   9 -12    3.04    1.04
   3  -9  12    1.59    0.85
   3  -9  12    3.03    0.91
  -4   9 -12    0.70    0.79
  -4   9 -12    0.43    0.92
   4  -9  12   -0.43    0.84
   8   8 -12   -0.06    0.97
  -8  -8  12    0.57    1.07
   7   8 -12    0.71    0.91
  -7  -8  12   -0.33    0.97
   6   8 -12    2.15    0.96
  -6  -8  12    1.68    0.93
   5   8 -12    0.33    0.89
  -5  -8  12    0.05    0.82
   4   8 -12    0.86    0.88
  -4  -8  12    0.32    0.83
   3   8 -12    2.23    0.87
  -3  -8  12    1.52    0.76
   2   8 -12    0.84    0.82
  -2  -8  12    0.92    0.80
  -2  -8  12   -0.24    0.77
   1   8 -12    0.17    0.83
  -1  -8  12   -0.39    0.76
  -1  -8  12   -1.18    0.78
   0   8 -12    1.68    0.82
   0  -8  12    1.93    0.77
   0  -8  12    1.05    0.83
  -1   8 -12    5.63    1.03
   1  -8  12    4.76    0.79
   1  -8  12    3.62    0.90
  -2   8 -12    0.19    0.94
   2  -8  12   -0.91    0.79
   2  -8  12   -0.20    0.68
  -3   8 -12    0.50    0.89
   3  -8  12    0.00    0.73
   3  -8  12   -0.92    0.80
  -4   8 -12    1.48    0.72
  -4   8 -12    1.32    0.88
   4  -8  12    0.22    0.82
   8   7 -12    3.48    1.00
  -8  -7  12    3.54    1.03
   7   7 -12    0.28    0.83
  -7  -7  12    0.12    0.91
   6   7 -12    0.23    0.85
  -6  -7  12    0.31    0.86
   5   7 -12    4.41    0.87
  -5  -7  12    4.28    0.82
  -5  -7  12    3.15    0.77
   4   7 -12    6.65    0.93
  -4  -7  12    4.72    0.82
   3   7 -12    0.72    0.78
  -3  -7  12    0.61    0.76
   2   7 -12    4.37    0.87
  -2  -7  12    4.00    0.82
   1   7 -12    2.93    0.85
  -1  -7  12    2.87    0.70
  -1  -7  12    0.75    0.84
   0   7 -12    1.65    0.90
   0  -7  12   -1.09    0.80
   0  -7  12    2.00    0.71
  -1   7 -12    0.99    0.92
   1  -7  12    1.50    0.68
   1  -7  12   -0.39    0.77
  -2   7 -12    3.18    0.92
   2  -7  12    2.14    0.75
   2  -7  12    1.32    0.85
  -3   7 -12   -0.31    0.87
   3  -7  12    0.56    0.83
   3  -7  12   -0.34    0.65
  -4   7 -12    0.68    0.63
  -4   7 -12    0.86    0.82
   4  -7  12    0.12    0.80
  -5   7 -12    1.10    0.70
  -5   7 -12    3.16    0.88
   5  -7  12   -0.41    0.83
   9   6 -12    1.09    0.89
  -9  -6  12   -0.82    0.96
   8   6 -12    1.50    0.87
  -8  -6  12    0.73    0.88
   7   6 -12    2.65    0.91
  -7  -6  12    2.02    0.88
   6   6 -12    0.47    0.83
  -6  -6  12    0.32    0.77
   5   6 -12    0.05    0.78
  -5  -6  12   -0.41    0.75
  -5  -6  12    0.16    0.74
   4   6 -12   21.00    1.59
  -4  -6  12   22.13    1.51
   3   6 -12    5.74    0.89
  -3  -6  12    6.24    0.83
   2   6 -12    2.22    0.81
  -2  -6  12    2.66    0.73
   1   6 -12    0.38    0.81
  -1  -6  12   -0.73    0.80
  -1  -6  12    1.41    0.69
   0   6 -12   10.42    1.46
   0  -6  12   10.58    1.13
   0  -6  12    8.13    0.98
  -1   6 -12    2.04    0.87
   1  -6  12    1.05    0.80
   1  -6  12    2.15    0.67
  -2   6 -12    0.70    0.82
   2  -6  12   -0.35    0.80
   2  -6  12    0.16    0.63
  -3   6 -12    2.96    0.82
   3  -6  12    2.16    0.67
   3  -6  12    1.71    0.77
  -4   6 -12   -0.02    0.84
  -4   6 -12    0.69    0.61
   4  -6  12   -0.38    0.83
  -5   6 -12   -0.04    0.67
  -5   6 -12    0.66    0.86
   5  -6  12   -0.85    0.81
   9   5 -12    0.52    0.82
  -9  -5  12   -0.44    0.88
   8   5 -12    0.90    0.82
  -8  -5  12   -0.93    0.83
   7   5 -12    0.90    0.83
  -7  -5  12    0.04    0.74
   6   5 -12    7.81    0.96
  -6  -5  12    7.39    1.25
   5   5 -12    1.52    0.73
  -5  -5  12    2.21    0.75
  -5  -5  12   -0.92    0.93
   4   5 -12    1.01    0.73
  -4  -5  12    0.85    0.70
   3   5 -12    5.40    0.82
  -3  -5  12    6.56    1.08
  -3  -5  12    3.52    0.95
   2   5 -12    7.08    0.97
  -2  -5  12    7.47    1.05
   1   5 -12    2.02    0.91
  -1  -5  12    1.47    0.61
  -1  -5  12    0.40    0.83
   0   5 -12    0.77    0.86
   0  -5  12    0.61    0.63
   0  -5  12    0.08    0.82
  -1   5 -12    2.95    0.87
   1  -5  12    1.90    0.85
   1  -5  12    3.56    0.68
  -2   5 -12   -0.67    0.79
   2  -5  12   -0.24    0.60
  -3   5 -12    5.55    0.94
   3  -5  12    4.24    0.69
   3  -5  12    3.34    0.86
  -4   5 -12    2.16    0.60
  -4   5 -12    1.53    0.85
   4  -5  12   -0.35    0.86
  -5   5 -12    3.17    0.85
   5  -5  12    1.03    0.91
   9   4 -12   -0.12    0.85
  -9  -4  12    0.25    0.88
   8   4 -12    2.93    0.87
  -8  -4  12    2.01    0.80
   7   4 -12   -0.11    0.78
  -7  -4  12    0.51    0.77
  -7  -4  12    0.32    0.88
   6   4 -12    0.28    0.78
  -6  -4  12    0.76    0.75
  -6  -4  12   -0.33    0.88
   5   4 -12    5.91    0.84
  -5  -4  12    7.50    1.14
   4   4 -12    2.68    0.83
  -4  -4  12    0.36    0.84
  -4  -4  12    2.23    0.69
   3   4 -12    7.71    1.29
  -3  -4  12    4.28    0.86
  -3  -4  12    6.80    0.93
   2   4 -12   -0.12    0.83
  -2  -4  12    1.17    0.62
  -2  -4  12   -0.55    0.78
   1   4 -12    3.61    0.87
  -1  -4  12    3.02    0.86
  -1  -4  12    3.77    0.63
   0   4 -12    0.86    0.82
   0  -4  12    0.04    0.56
   0  -4  12   -1.44    0.76
  -1   4 -12   10.40    1.35
   1  -4  12    7.25    0.94
   1  -4  12    9.83    1.05
  -2   4 -12    1.54    0.81
   2  -4  12    2.95    0.64
   2  -4  12    1.01    0.77
  -3   4 -12    3.00    0.87
   3  -4  12    1.84    0.82
   3  -4  12    1.86    0.61
  -4   4 -12    2.65    0.88
   4  -4  12    1.47    0.80
  -5   4 -12    1.28    0.84
   5  -4  12   -0.05    1.01
   9   3 -12   -0.53    0.80
  -9  -3  12    0.23    0.88
   8   3 -12    0.05    0.73
  -8  -3  12    0.17    0.73
   7   3 -12    0.86    0.78
  -7  -3  12    0.39    0.96
  -7  -3  12   -0.21    0.71
   6   3 -12   -0.41    0.78
  -6  -3  12   -0.37    0.75
  -6  -3  12   -1.28    0.79
   5   3 -12    6.64    0.89
  -5  -3  12    5.97    0.89
  -5  -3  12    8.55    1.14
   4   3 -12   -0.70    0.79
  -4  -3  12   -1.15    0.75
  -4  -3  12    0.61    0.65
   3   3 -12    1.95    0.80
  -3  -3  12    1.75    0.77
  -3  -3  12    3.10    0.68
   2   3 -12    6.71    0.97
  -2  -3  12    6.79    0.98
  -2  -3  12    6.29    0.91
   1   3 -12    6.38    0.89
  -1  -3  12    7.06    0.91
  -1  -3  12    6.21    0.85
   0   3 -12   -0.29    0.77
   0  -3  12    0.40    0.79
  -1   3 -12    0.92    0.78
   1  -3  12   -0.77    0.73
  -2   3 -12   18.83    1.53
   2  -3  12   21.35    1.49
   2  -3  12   17.38    1.45
  -3   3 -12   -0.29    0.83
   3  -3  12   -1.01    0.80
  -4   3 -12    4.43    0.85
   4  -3  12    3.05    0.90
   9   2 -12    1.34    0.85
  -9  -2  12    1.42    0.83
   8   2 -12    0.05    0.83
  -8  -2  12   -0.69    0.79
  -8  -2  12    0.06    0.83
   7   2 -12    5.38    0.92
  -7  -2  12    5.85    0.90
  -7  -2  12    5.76    0.89
   6   2 -12   -0.37    0.80
  -6  -2  12    0.63    0.67
  -6  -2  12   -0.49    0.73
   5   2 -12   -0.85    0.80
  -5  -2  12   -0.21    0.73
  -5  -2  12    0.29    0.67
   4   2 -12    6.55    0.96
  -4  -2  12    7.51    0.95
  -4  -2  12    6.98    1.04
   3   2 -12    0.52    0.81
  -3  -2  12   -0.02    0.78
  -3  -2  12    1.44    0.62
   2   2 -12    1.86    0.86
  -2  -2  12    0.95    0.79
  -2  -2  12    1.87    0.59
   1   2 -12    0.04    0.72
  -1  -2  12   -0.04    0.72
   0   2 -12   14.79    1.44
   0  -2  12   15.93    1.11
   0  -2  12   12.90    1.39
  -1   2 -12    0.53    0.83
   1  -2  12    0.88    0.57
   1  -2  12    0.61    0.79
  -2   2 -12   -0.56    0.82
   2  -2  12   -1.39    1.16
   2  -2  12   -0.75    0.78
  -3   2 -12    4.43    0.88
   3  -2  12    3.50    1.21
   3  -2  12    2.47    0.81
  -4   2 -12    0.80    0.76
   4  -2  12   -0.76    1.32
   4  -2  12    0.99    0.88
   9   1 -12    1.20    0.90
  -9  -1  12    2.12    0.89
  -9  -1  12   -0.17    0.86
   8   1 -12    0.32    0.82
  -8  -1  12    0.20    0.84
  -8  -1  12   -0.82    0.79
   7   1 -12    0.09    0.81
  -7  -1  12    0.99    0.79
  -7  -1  12   -0.51    0.77
   6   1 -12    6.47    0.93
  -6  -1  12    5.24    0.80
  -6  -1  12    5.58    0.87
   5   1 -12    0.67    0.82
  -5  -1  12    1.39    0.73
  -5  -1  12    2.08    0.71
   4   1 -12   -1.46    0.75
  -4  -1  12    0.33    0.62
  -4  -1  12    0.43    0.76
   3   1 -12   -0.28    0.77
  -3  -1  12    0.90    0.59
  -3  -1  12    0.07    0.78
   2   1 -12    2.51    0.80
  -2  -1  12    2.44    0.79
  -2  -1  12    2.84    0.69
   1   1 -12   -0.38    0.77
  -1  -1  12    0.51    0.54
  -1  -1  12   -0.09    0.81
   0   1 -12    0.53    0.84
   0  -1  12    2.29    0.57
   0  -1  12    0.61    0.84
   0  -1  12    1.14    0.70
  -1   1 -12    2.66    0.83
   1  -1  12    1.60    0.86
   1  -1  12    0.96    0.71
  -2   1 -12    0.95    0.75
   2  -1  12    0.50    0.79
   2  -1  12   -0.17    0.74
  -3   1 -12    4.07    0.85
   3  -1  12    2.96    0.88
   3  -1  12    3.52    0.89
   9   0 -12    2.27    1.38
  -9   0  12    0.71    0.84
  -9   0  12   -0.13    0.85
   8   0 -12    2.19    0.87
  -8   0  12    2.65    0.89
  -8   0  12    2.02    0.85
   7   0 -12    0.03    0.80
  -7   0  12   -0.43    0.81
  -7   0  12   -0.41    0.76
   6   0 -12   -0.66    0.80
  -6   0  12    1.10    0.73
  -6   0  12    0.40    0.77
   5   0 -12    1.11    0.79
  -5   0  12    1.13    0.71
  -5   0  12    0.41    0.81
   4   0 -12    0.71    0.74
  -4   0  12    1.21    0.80
  -4   0  12    1.07    0.64
   3   0 -12    0.29    0.80
  -3   0  12    0.29    0.59
  -3   0  12    1.60    0.82
   2   0 -12    0.22    0.80
  -2   0  12    0.92    0.77
   1   0 -12    4.08    0.91
  -1   0  12    5.13    0.63
  -1   0  12    4.09    0.74
  -1   0  12    4.75    0.92
   0   0 -12    0.58    0.84
   0   0  12    0.31    0.83
  -1   0 -12    3.48    0.82
   1   0  12    4.02    0.80
   1   0  12    3.49    0.85
  -2   0 -12    3.36    0.91
   2   0  12    2.56    0.84
   2   0  12    1.98    0.90
   8  -1 -12    1.96    0.91
  -8   1  12    1.12    0.85
  -8   1  12    0.40    0.80
   7  -1 -12    1.66    0.86
  -7   1  12    0.48    0.76
  -7   1  12   -0.23    0.81
   6  -1 -12    2.66    0.84
  -6   1  12    2.02    0.87
  -6   1  12    1.75    0.76
   5  -1 -12    5.05    0.86
  -5   1  12    7.24    1.08
  -5   1  12    4.49    0.88
   4  -1 -12   -0.66    0.71
  -4   1  12   -0.06    0.64
  -4   1  12   -1.05    0.77
   3  -1 -12    1.72    0.84
  -3   1  12    2.00    0.63
  -3   1  12    1.82    0.84
   2  -1 -12   -0.83    0.75
  -2   1  12   -0.59    0.97
  -2   1  12    0.22    0.83
   1  -1 -12    4.60    0.90
  -1   1  12    5.10    0.79
  -1   1  12    5.88    0.99
   0  -1 -12    0.09    0.81
   0   1  12    0.22    0.72
   0   1  12    0.63    0.90
  -1  -1 -12    1.22    0.84
   1   1  12   -0.39    0.78
   1   1  12    0.60    0.85
   6  -2 -12    5.12    0.97
  -6   2  12    3.07    0.93
  -6   2  12    2.87    0.82
   5  -2 -12    3.94    0.94
  -5   2  12    3.37    0.75
  -5   2  12    3.34    0.89
   4  -2 -12    0.58    0.82
  -4   2  12    0.27    0.67
  -4   2  12    0.17    0.83
   3  -2 -12    0.41    0.78
  -3   2  12    0.63    0.93
   2  -2 -12   -0.68    0.81
  -2   2  12    0.33    0.76
  -2   2  12   -0.01    0.83
   1  -2 -12    1.60    0.82
  -1   2  12    1.75    0.91
  -1   2  12    0.24    0.76
   4  10 -13    5.26    1.13
  -4 -10  13    3.83    1.09
   3  10 -13   -0.58    0.92
  -3 -10  13    3.16    1.31
  -3 -10  13   -0.57    0.97
   2  10 -13    0.08    0.95
  -2 -10  13    0.61    0.92
  -2 -10  13    2.53    1.08
   1  10 -13    2.57    0.99
  -1 -10  13    1.15    1.14
  -1 -10  13    2.52    0.95
   0  10 -13    0.37    0.97
   0 -10  13   -0.34    0.82
   0 -10  13   -1.23    1.10
  -1  10 -13    1.63    1.07
   1 -10  13   -1.30    1.08
   1 -10  13   -1.04    0.84
   6   9 -13    2.89    1.38
  -6  -9  13    0.70    1.19
   5   9 -13    1.68    1.02
  -5  -9  13   -0.52    0.99
   4   9 -13    1.77    0.97
  -4  -9  13    0.89    0.89
   3   9 -13    5.32    1.07
  -3  -9  13    4.29    1.00
  -3  -9  13    4.07    0.95
   2   9 -13    0.63    0.93
  -2  -9  13   -0.11    0.89
   1   9 -13    1.18    1.00
  -1  -9  13    1.90    0.89
   0   9 -13    8.42    1.17
   0  -9  13    7.12    1.02
  -1   9 -13    1.35    1.02
   1  -9  13    0.61    0.87
   1  -9  13   -0.68    0.96
  -2   9 -13    1.13    1.07
   2  -9  13   -0.27    0.96
   2  -9  13   -0.13    0.85
   7   8 -13   -0.55    1.07
  -7  -8  13   -0.24    1.39
   6   8 -13    1.02    0.94
  -6  -8  13    0.10    0.95
   5   8 -13    2.94    0.91
  -5  -8  13    2.30    0.86
   4   8 -13    4.46    1.01
  -4  -8  13    3.31    0.92
   3   8 -13    1.29    0.95
  -3  -8  13    0.75    0.78
   2   8 -13    3.31    0.94
  -2  -8  13    3.62    0.89
  -2  -8  13   -1.09    0.99
   1   8 -13    3.19    1.00
  -1  -8  13    1.45    0.84
   0   8 -13    7.21    1.11
   0  -8  13    4.48    0.86
   0  -8  13    2.50    1.01
  -1   8 -13    0.23    0.98
   1  -8  13    0.86    0.78
   1  -8  13   -0.62    0.93
  -2   8 -13    1.59    1.00
   2  -8  13   -1.19    0.87
   2  -8  13   -1.39    0.78
  -3   8 -13    1.55    0.98
   3  -8  13    0.42    0.94
   3  -8  13    1.53    0.77
   7   7 -13    1.13    0.95
  -7  -7  13    0.45    0.88
   6   7 -13    3.30    0.92
  -6  -7  13    3.48    0.89
   5   7 -13   -0.75    0.88
  -5  -7  13    0.16    0.85
   4   7 -13   12.69    1.48
  -4  -7  13   13.16    1.44
   3   7 -13    4.00    0.90
  -3  -7  13    4.35    0.85
   2   7 -13   13.37    1.55
  -2  -7  13   13.47    1.25
   1   7 -13    1.26    0.90
  -1  -7  13    0.61    0.77
  -1  -7  13   -1.56    0.93
   0   7 -13    0.94    0.95
   0  -7  13    2.07    0.73
  -1   7 -13   15.41    1.65
   1  -7  13   13.20    1.30
   1  -7  13   10.43    1.21
  -2   7 -13    0.75    0.91
   2  -7  13   -1.54    0.82
   2  -7  13    0.19    0.75
  -3   7 -13    1.62    0.89
   3  -7  13   -0.88    0.83
   3  -7  13    0.70    0.73
   8   6 -13   -0.10    0.96
  -8  -6  13   -0.57    0.98
   7   6 -13   -0.46    0.85
  -7  -6  13    0.25    0.88
   6   6 -13    0.74    0.91
  -6  -6  13    2.10    0.86
   5   6 -13    1.10    0.81
  -5  -6  13    1.20    0.84
   4   6 -13    3.59    0.91
  -4  -6  13    3.54    0.85
  -4  -6  13   -0.71    1.03
   3   6 -13    1.95    0.91
  -3  -6  13    1.27    0.76
  -3  -6  13   -2.09    0.93
   2   6 -13    0.81    0.86
  -2  -6  13    0.06    0.75
   1   6 -13   18.30    1.74
  -1  -6  13   15.17    1.60
  -1  -6  13   19.06    1.39
   0   6 -13    0.63    0.96
   0  -6  13    0.89    0.70
  -1   6 -13    0.42    0.87
   1  -6  13    0.71    0.72
  -2   6 -13    9.32    1.16
   2  -6  13    7.06    1.11
   2  -6  13    9.61    1.21
  -3   6 -13    0.86    0.91
   3  -6  13   -1.76    0.82
   3  -6  13    0.17    0.72
   8   5 -13   -0.25    0.93
  -8  -5  13    0.01    0.87
   7   5 -13    3.87    0.87
  -7  -5  13    4.74    0.93
   6   5 -13    2.34    0.85
  -6  -5  13    4.50    0.86
  -6  -5  13    2.92    1.08
   5   5 -13    0.40    0.82
  -5  -5  13   -0.98    1.02
  -5  -5  13   -0.64    0.79
   4   5 -13    0.33    0.83
  -4  -5  13    1.24    0.72
  -4  -5  13   -1.81    0.96
   3   5 -13   17.99    1.62
  -3  -5  13   14.33    1.59
  -3  -5  13   19.45    1.38
   2   5 -13    0.19    0.90
  -2  -5  13    0.24    0.68
   1   5 -13    2.57    0.94
  -1  -5  13    2.37    0.71
  -1  -5  13    0.31    0.85
   0   5 -13   16.92    1.62
   0  -5  13   15.88    1.28
   0  -5  13   13.81    1.41
  -1   5 -13   -0.09    0.87
   1  -5  13   -0.28    0.68
   1  -5  13   -1.28    0.79
  -2   5 -13    3.91    0.93
   2  -5  13    3.17    0.73
   2  -5  13    2.24    0.92
  -3   5 -13    3.28    0.95
   3  -5  13    0.48    0.81
   3  -5  13    1.75    0.73
   8   4 -13    0.19    0.80
  -8  -4  13   -0.33    0.87
   7   4 -13   -0.06    0.86
  -7  -4  13   -0.20    0.82
  -7  -4  13    0.63    0.97
   6   4 -13    0.87    0.91
  -6  -4  13    1.46    0.76
  -6  -4  13    1.07    0.97
   5   4 -13    7.95    1.05
  -5  -4  13    9.42    1.22
  -5  -4  13    8.31    1.07
   4   4 -13   -0.65    0.93
  -4  -4  13   -0.39    0.73
   3   4 -13    1.08    0.94
  -3  -4  13    0.98    0.71
  -3  -4  13   -0.49    0.81
   2   4 -13   23.64    1.77
  -2  -4  13   20.84    1.67
  -2  -4  13   23.10    1.48
   1   4 -13    0.22    0.85
  -1  -4  13   -0.99    0.85
  -1  -4  13   -0.39    0.63
   0   4 -13    5.57    0.95
   0  -4  13    4.51    0.96
   0  -4  13    5.74    0.76
  -1   4 -13    6.73    0.97
   1  -4  13    8.44    1.14
   1  -4  13    6.09    0.92
  -2   4 -13    0.98    0.85
   2  -4  13   -1.29    0.81
   2  -4  13    0.25    0.67
  -3   4 -13    1.66    0.93
   3  -4  13    1.22    0.94
   8   3 -13    2.41    0.89
  -8  -3  13    1.09    0.82
   7   3 -13    5.58    1.03
  -7  -3  13    5.48    1.01
  -7  -3  13    4.52    0.89
   6   3 -13    0.93    0.93
  -6  -3  13    0.14    0.88
  -6  -3  13    0.58    0.79
   5   3 -13    0.00    0.90
  -5  -3  13    0.17    0.73
  -5  -3  13   -1.56    0.78
   4   3 -13   15.24    1.57
  -4  -3  13   14.26    1.42
  -4  -3  13   17.43    1.37
   3   3 -13    1.03    0.87
  -3  -3  13    0.92    0.67
  -3  -3  13   -1.11    0.83
   2   3 -13    2.02    0.94
  -2  -3  13    2.68    0.89
  -2  -3  13    3.01    0.68
   1   3 -13    8.79    1.44
  -1  -3  13    8.45    1.04
  -1  -3  13    8.82    1.07
   0   3 -13    1.06    0.88
   0  -3  13   -0.22    0.62
   0  -3  13   -0.23    0.78
  -1   3 -13    1.84    0.87
   1  -3  13   -0.22    0.85
   1  -3  13    0.38    0.65
  -2   3 -13    4.95    0.93
   2  -3  13    5.21    0.93
   8   2 -13   -0.11    0.93
  -8  -2  13    0.37    0.79
  -8  -2  13    0.39    0.92
   7   2 -13    0.24    0.84
  -7  -2  13    0.75    0.87
  -7  -2  13    0.68    0.77
   6   2 -13    5.97    0.97
  -6  -2  13    5.23    0.98
  -6  -2  13    7.16    0.94
   5   2 -13   -0.99    0.80
  -5  -2  13   -0.62    0.70
  -5  -2  13   -1.11    0.82
   4   2 -13    2.14    0.94
  -4  -2  13    1.14    0.80
  -4  -2  13    2.22    0.72
   3   2 -13    2.80    0.91
  -3  -2  13    3.35    0.72
  -3  -2  13    3.76    0.89
   2   2 -13    0.21    0.85
  -2  -2  13    0.80    0.63
  -2  -2  13   -0.23    0.83
   1   2 -13    6.79    1.03
  -1  -2  13    4.26    0.87
  -1  -2  13    5.29    0.72
   0   2 -13    6.03    0.99
   0  -2  13    6.43    0.99
   0  -2  13    5.87    0.74
  -1   2 -13    3.26    0.96
   1  -2  13    2.02    0.88
  -2   2 -13    0.55    1.02
   2  -2  13   -0.47    1.04
   7   1 -13    0.49    0.86
  -7  -1  13   -0.29    0.77
  -7  -1  13   -0.31    0.80
   6   1 -13   -0.70    0.84
  -6  -1  13   -0.28    0.74
  -6  -1  13    0.02    0.81
   5   1 -13    4.62    0.96
  -5  -1  13    3.62    0.85
  -5  -1  13    4.86    0.82
   4   1 -13   -0.76    0.80
  -4  -1  13    0.24    0.86
  -4  -1  13   -0.26    0.70
   3   1 -13    9.54    1.37
  -3  -1  13    8.58    1.10
  -3  -1  13    8.85    1.07
   2   1 -13    4.35    0.94
  -2  -1  13    4.24    0.96
  -2  -1  13    4.71    0.70
   1   1 -13   -0.66    0.85
  -1  -1  13   -0.19    0.81
  -1  -1  13   -0.34    0.62
   0   1 -13    5.88    1.03
   0  -1  13    5.79    1.01
  -1   1 -13    3.18    0.98
   1  -1  13    1.40    0.99
   6   0 -13    0.49    0.86
  -6   0  13    0.06    0.83
  -6   0  13    0.35    0.78
   5   0 -13    3.46    0.90
  -5   0  13    2.55    0.78
  -5   0  13    2.79    0.84
   4   0 -13    2.95    0.90
  -4   0  13    2.73    0.90
  -4   0  13    3.36    0.74
   3   0 -13   -0.76    0.79
  -3   0  13    0.66    0.68
  -3   0  13    0.12    0.87
   2   0 -13    3.77    0.96
  -2   0  13    4.30    0.92
   1   0 -13    0.61    0.85
  -1   0  13    0.16    0.92
   3   9 -14    0.01    1.35
   2   9 -14    0.24    1.16
  -2  -9  14   -1.49    1.01
   4   8 -14    0.21    0.98
  -4  -8  14   -1.21    0.89
   3   8 -14    5.79    1.11
  -3  -8  14    9.93    1.46
   2   8 -14    2.55    1.06
  -2  -8  14    0.60    0.82
   1   8 -14    1.65    1.02
  -1  -8  14    1.30    0.82
   0   8 -14    1.23    1.05
   0  -8  14    2.25    0.87
   0  -8  14   -2.30    1.08
   5   7 -14    1.00    1.00
  -5  -7  14    1.64    0.93
   4   7 -14    0.65    0.90
  -4  -7  14    0.11    0.89
   3   7 -14    2.40    1.00
  -3  -7  14    0.27    0.84
  -3  -7  14   -1.86    1.08
   2   7 -14    2.38    0.98
  -2  -7  14    2.41    0.86
  -2  -7  14   -1.50    1.07
   1   7 -14   -0.50    1.06
  -1  -7  14   -0.19    0.75
   0   7 -14    1.41    1.05
   0  -7  14    1.45    0.83
  -1   7 -14   -0.17    1.02
   1  -7  14   -2.09    0.97
   6   6 -14   -0.05    0.89
  -6  -6  14   -0.65    0.81
   5   6 -14    4.23    0.96
  -5  -6  14    3.54    1.23
  -5  -6  14    5.53    0.97
   4   6 -14    0.08    0.97
  -4  -6  14   -0.13    0.78
  -4  -6  14   -0.11    1.12
   3   6 -14    0.52    1.02
  -3  -6  14   -0.20    0.80
   2   6 -14    3.43    1.10
  -2  -6  14    4.67    0.87
  -2  -6  14    2.10    1.05
   1   6 -14    0.16    0.94
  -1  -6  14   -1.04    0.73
   0   6 -14    0.70    0.99
   0  -6  14    0.03    0.73
  -1   6 -14    0.11    0.99
   1  -6  14    0.57    0.76
   6   5 -14    1.71    0.94
  -6  -5  14    1.81    1.18
  -6  -5  14    0.61    0.90
   5   5 -14    0.34    0.91
  -5  -5  14    0.52    0.84
  -5  -5  14    0.60    1.13
   4   5 -14    6.05    1.14
  -4  -5  14    6.54    1.19
  -4  -5  14    6.75    0.95
   3   5 -14   -0.40    1.00
  -3  -5  14   -0.46    0.78
   2   5 -14    0.28    1.03
  -2  -5  14   -0.21    0.74
  -2  -5  14   -1.67    0.92
   1   5 -14    1.28    0.94
  -1  -5  14   -1.12    0.88
  -1  -5  14    0.79    0.75
   0   5 -14   -0.48    0.99
   0  -5  14   -0.10    0.72
   0  -5  14   -1.29    0.85
  -1   5 -14   -0.27    1.05
   1  -5  14   -0.89    0.92
   6   4 -14    4.45    1.05
  -6  -4  14    5.06    0.88
   5   4 -14   -0.33    1.01
  -5  -4  14   -0.36    0.75
  -5  -4  14    1.54    0.98
   4   4 -14    0.46    0.92
  -4  -4  14   -1.58    0.91
  -4  -4  14    0.73    0.82
   3   4 -14    3.51    1.06
  -3  -4  14    3.09    0.81
  -3  -4  14    2.86    1.00
   2   4 -14    0.52    0.98
  -2  -4  14   -1.46    0.82
  -2  -4  14    0.07    0.72
   1   4 -14   -0.47    0.90
  -1  -4  14    0.29    0.72
  -1  -4  14   -1.12    0.85
   0   4 -14    1.67    1.00
   0  -4  14    1.32    0.72
   0  -4  14   -1.25    0.80
   6   3 -14   -0.65    0.88
  -6  -3  14    0.20    0.79
  -6  -3  14    0.01    0.95
   5   3 -14    3.48    0.98
  -5  -3  14    3.43    0.95
  -5  -3  14    4.09    0.87
   4   3 -14   -1.50    0.92
  -4  -3  14   -1.65    0.83
  -4  -3  14   -0.15    0.74
   3   3 -14    2.58    0.99
  -3  -3  14    3.27    0.78
  -3  -3  14    1.26    0.92
   2   3 -14    2.76    0.95
  -2  -3  14    1.01    0.87
  -2  -3  14    2.71    0.73
   1   3 -14    1.29    0.94
  -1  -3  14   -1.40    0.86
  -1  -3  14    0.24    0.70
   5   2 -14    1.00    0.92
  -5  -2  14    1.22    0.87
   4   2 -14    5.15    1.08
  -4  -2  14    5.41    0.99
  -4  -2  14    6.08    0.87
   3   2 -14    1.38    0.87
  -3  -2  14    1.37    0.85
  -3  -2  14    2.97    0.77
   2   2 -14    2.89    1.09
  -2  -2  14    2.33    0.75
  -2  -2  14    1.26    0.87
   0   0   0    0.00    0.00
;
_shelx_hkl_checksum              46952
loop_
_space_group_symop_operation_xyz
'x, y, z'
'-x, -y, -z'
loop_
_atom_site_type_symbol
_atom_site_label
_atom_site_fract_x
_atom_site_fract_y
_atom_site_fract_z
_atom_site_U_iso_or_equiv
_atom_site_adp_type
_atom_site_calc_flag
_atom_site_refinement_flags_adp
_atom_site_refinement_flags_posn
_atom_site_occupancy
Br Br1 0.12933(8) 0.26568(7) 0.67303(6) 0.0849(2) Uani d . . 1
Br Br2 0.46823(6) 0.99057(6) 0.80293(5) 0.06669(18) Uani d . . 1
O O1 -0.1532(3) 0.2356(3) -0.0264(3) 0.0385(6) Uani d . . 1
C C1 -0.0773(4) 0.3700(3) -0.0120(3) 0.0286(7) Uani d . . 1
C C2 0.0735(4) 0.4021(4) 0.0460(3) 0.0283(7) Uani d . . 1
C C3 0.1504(4) 0.2850(4) 0.0792(3) 0.0313(8) Uani d . . 1
H H3 0.1034 0.1856 -0.0007 0.038 Uiso calc U R 1
C C4 0.3076(4) 0.3074(5) 0.0785(4) 0.0405(9) Uani d . . 1
H H4 0.3555 0.2252 0.0622 0.049 Uiso calc U R 1
C C5 0.3813(5) 0.4366(5) 0.0995(4) 0.0428(9) Uani d . . 1
H H5 0.4781 0.441 0.0953 0.051 Uiso calc U R 1
C C6 0.3166(4) 0.5772(4) 0.1301(4) 0.0325(8) Uani d . . 1
H H6 0.3588 0.6329 0.0821 0.039 Uiso calc U R 1
C C7 0.1525(4) 0.5361(4) 0.0614(3) 0.0282(7) Uani d . . 1
C C8 0.1386(4) 0.2792(4) 0.2241(4) 0.0323(8) Uani d . . 1
C C9 0.1181(5) 0.1427(4) 0.2334(4) 0.0450(10) Uani d . . 1
H H9 0.1085 0.0531 0.1499 0.054 Uiso calc U R 1
C C10 0.1115(5) 0.1366(5) 0.3648(5) 0.0545(11) Uani d . . 1
H H10 0.0957 0.0437 0.3693 0.065 Uiso calc U R 1
C C11 0.1285(5) 0.2694(5) 0.4886(4) 0.0463(10) Uani d . . 1
C C12 0.1487(5) 0.4058(4) 0.4824(4) 0.0430(9) Uani d . . 1
H H12 0.1605 0.4951 0.5668 0.052 Uiso calc U R 1
C C13 0.1515(4) 0.4109(4) 0.3497(4) 0.0366(8) Uani d . . 1
H H13 0.1621 0.5039 0.345 0.044 Uiso calc U R 1
C C14 0.3563(4) 0.6814(4) 0.2972(4) 0.0327(8) Uani d . . 1
C C15 0.4587(5) 0.6541(6) 0.3965(5) 0.0609(13) Uani d . . 1
H H15 0.5064 0.5727 0.3617 0.073 Uiso calc U R 1
C C16 0.4921(5) 0.7447(6) 0.5469(5) 0.0651(14) Uani d . . 1
H H16 0.5606 0.7237 0.6123 0.078 Uiso calc U R 1
C C17 0.4239(4) 0.8644(5) 0.5974(4) 0.0425(9) Uani d . . 1
C C18 0.3238(6) 0.8946(6) 0.5026(5) 0.0737(16) Uani d . . 1
H H18 0.277 0.9767 0.5379 0.088 Uiso calc U R 1
C C19 0.2913(6) 0.8026(5) 0.3523(5) 0.0646(14) Uani d . . 1
H H19 0.223 0.8248 0.2877 0.078 Uiso calc U R 1
C C20 -0.2147(5) 0.2499(5) 0.0939(5) 0.0506(11) Uani d . . 1
H H20A -0.141 0.3027 0.1854 0.076 Uiso calc U R 1
H H20B -0.2512 0.151 0.0838 0.076 Uiso calc U R 1
H H20C -0.2932 0.3057 0.0929 0.076 Uiso calc U R 1
loop_
_atom_site_aniso_label
_atom_site_aniso_U_11
_atom_site_aniso_U_22
_atom_site_aniso_U_33
_atom_site_aniso_U_12
_atom_site_aniso_U_13
_atom_site_aniso_U_23
Br1 0.1417(6) 0.0877(4) 0.0573(3) 0.0369(4) 0.0464(3) 0.0501(3)
Br2 0.0849(4) 0.0664(3) 0.0309(2) -0.0022(3) 0.0055(2) 0.0104(2)
O1 0.0499(16) 0.0276(12) 0.0355(13) -0.0009(11) 0.0070(12) 0.0143(11)
C1 0.041(2) 0.0210(15) 0.0215(15) 0.0027(14) 0.0069(14) 0.0073(13)
C2 0.040(2) 0.0244(16) 0.0209(15) 0.0092(15) 0.0075(14) 0.0094(13)
C3 0.048(2) 0.0196(16) 0.0219(15) 0.0126(15) 0.0031(14) 0.0062(13)
C4 0.053(2) 0.044(2) 0.0294(18) 0.030(2) 0.0159(17) 0.0142(17)
C5 0.042(2) 0.055(3) 0.037(2) 0.021(2) 0.0171(17) 0.0211(19)
C6 0.0338(19) 0.0355(19) 0.0281(16) 0.0078(15) 0.0083(14) 0.0132(15)
C7 0.0358(19) 0.0292(17) 0.0185(14) 0.0075(15) 0.0081(13) 0.0083(13)
C8 0.039(2) 0.0292(17) 0.0309(17) 0.0130(15) 0.0064(15) 0.0154(15)
C9 0.068(3) 0.0268(18) 0.037(2) 0.0127(19) 0.0063(19) 0.0132(16)
C10 0.081(3) 0.040(2) 0.056(3) 0.015(2) 0.019(2) 0.033(2)
C11 0.060(3) 0.053(2) 0.037(2) 0.020(2) 0.0173(19) 0.0267(19)
C12 0.055(3) 0.037(2) 0.0363(19) 0.0137(19) 0.0125(18) 0.0144(17)
C13 0.052(2) 0.0290(18) 0.0339(18) 0.0131(17) 0.0117(17) 0.0171(15)
C14 0.0305(19) 0.0355(19) 0.0315(17) 0.0020(15) 0.0060(14) 0.0154(15)
C15 0.054(3) 0.073(3) 0.042(2) 0.033(2) 0.000(2) 0.014(2)
C16 0.058(3) 0.079(3) 0.042(2) 0.019(3) -0.009(2) 0.020(2)
C17 0.046(2) 0.044(2) 0.0292(18) -0.0048(18) 0.0036(16) 0.0125(17)
C18 0.101(4) 0.067(3) 0.037(2) 0.051(3) 0.003(2) 0.007(2)
C19 0.086(4) 0.063(3) 0.034(2) 0.040(3) 0.000(2) 0.013(2)
C20 0.049(3) 0.063(3) 0.050(2) -0.003(2) 0.0085(19) 0.038(2)
loop_
_atom_type_symbol
_atom_type_description
_atom_type_scat_dispersion_real
_atom_type_scat_dispersion_imag
_atom_type_scat_source
C C 0.0033 0.0016 'International Tables Vol C Tables 4.2.6.8 and 6.1.1.4'
H H 0.0000 0.0000 'International Tables Vol C Tables 4.2.6.8 and 6.1.1.4'
O O 0.0106 0.0060 'International Tables Vol C Tables 4.2.6.8 and 6.1.1.4'
Br Br -0.2901 2.4595 'International Tables Vol C Tables 4.2.6.8 and 6.1.1.4'
loop_
_geom_angle_atom_site_label_1
_geom_angle_atom_site_label_2
_geom_angle_atom_site_label_3
_geom_angle_site_symmetry_1
_geom_angle_site_symmetry_3
_geom_angle
C1 O1 C20 . . 114.6(3)
O1 C1 C7 . 2_565 119.4(3)
O1 C1 C2 . . 118.1(3)
C7 C1 C2 2_565 . 122.5(3)
C1 C2 C7 . . 119.3(3)
C1 C2 C3 . . 119.5(3)
C7 C2 C3 . . 121.0(3)
C4 C3 C2 . . 111.3(3)
C4 C3 C8 . . 109.7(3)
C2 C3 C8 . . 114.1(3)
C5 C4 C3 . . 123.5(3)
C4 C5 C6 . . 122.9(4)
C5 C6 C7 . . 110.2(3)
C5 C6 C14 . . 111.3(3)
C7 C6 C14 . . 112.3(3)
C1 C7 C2 2_565 . 118.2(3)
C1 C7 C6 2_565 . 121.4(3)
C2 C7 C6 . . 120.5(3)
C9 C8 C13 . . 118.3(3)
C9 C8 C3 . . 120.8(3)
C13 C8 C3 . . 120.9(3)
C8 C9 C10 . . 121.2(4)
C11 C10 C9 . . 119.2(4)
C12 C11 C10 . . 120.8(4)
C12 C11 Br1 . . 118.8(3)
C10 C11 Br1 . . 120.3(3)
C11 C12 C13 . . 119.7(4)
C12 C13 C8 . . 120.8(3)
C19 C14 C15 . . 117.3(4)
C19 C14 C6 . . 121.4(3)
C15 C14 C6 . . 121.3(3)
C14 C15 C16 . . 121.6(4)
C17 C16 C15 . . 119.2(4)
C18 C17 C16 . . 120.5(4)
C18 C17 Br2 . . 119.5(3)
C16 C17 Br2 . . 120.0(3)
C17 C18 C19 . . 119.7(4)
C14 C19 C18 . . 121.7(4)
loop_
_geom_bond_atom_site_label_1
_geom_bond_atom_site_label_2
_geom_bond_site_symmetry_2
_geom_bond_distance
Br1 C11 . 1.902(4)
Br2 C17 . 1.899(4)
O1 C1 . 1.388(4)
O1 C20 . 1.433(5)
C1 C7 2_565 1.391(5)
C1 C2 . 1.392(5)
C2 C7 . 1.394(5)
C2 C3 . 1.517(4)
C3 C4 . 1.499(5)
C3 C8 . 1.534(5)
C4 C5 . 1.311(6)
C5 C6 . 1.497(5)
C6 C7 . 1.522(5)
C6 C14 . 1.546(5)
C7 C1 2_565 1.391(5)
C8 C9 . 1.378(5)
C8 C13 . 1.384(5)
C9 C10 . 1.385(6)
C10 C11 . 1.374(6)
C11 C12 . 1.362(6)
C12 C13 . 1.384(5)
C14 C19 . 1.355(6)
C14 C15 . 1.378(5)
C15 C16 . 1.385(6)
C16 C17 . 1.355(6)
C17 C18 . 1.351(6)
C18 C19 . 1.388(6)
