#------------------------------------------------------------------------------
#$Date: 2017-11-07 02:49:46 +0200 (Tue, 07 Nov 2017) $
#$Revision: 202713 $
#$URL: file:///home/coder/svn-repositories/cod/cif/4/03/29/4032971.cif $
#------------------------------------------------------------------------------
#
# This file is available in the Crystallography Open Database (COD),
# http://www.crystallography.net/
#
# All data on this site have been placed in the public domain by the
# contributors.
#
data_4032971
loop_
_publ_author_name
'Liu, Li'
'Bai, Shu-Hua'
'Li, Yang'
'Wang, Li-Xun'
'Hu, Yang'
'Sung, Hui-Ling'
'Li, Jian'
_publ_section_title
;
 Synthesis of 2,3-Diarylisoindolin-1-one by Copper-Catalyzed Cascade
 Annulation of 2-Formylbenzonitriles, Arenes, and Diaryliodonium Salts.
;
_journal_issue                   20
_journal_name_full               'The Journal of organic chemistry'
_journal_page_first              11084
_journal_page_last               11090
_journal_paper_doi               10.1021/acs.joc.7b02035
_journal_volume                  82
_journal_year                    2017
_chemical_formula_sum            'C21 H14 Br N O3'
_chemical_formula_weight         408.24
_chemical_name_systematic
;
 ?
;
_space_group_crystal_system      triclinic
_space_group_IT_number           2
_space_group_name_Hall           '-P 1'
_space_group_name_H-M_alt        'P -1'
_symmetry_space_group_name_Hall  '-P 1'
_symmetry_space_group_name_H-M   'P -1'
_atom_sites_solution_hydrogens   geom
_audit_creation_method           SHELXL-2014
_cell_angle_alpha                62.242(5)
_cell_angle_beta                 77.949(6)
_cell_angle_gamma                84.286(6)
_cell_formula_units_Z            2
_cell_length_a                   6.7473(14)
_cell_length_b                   11.771(3)
_cell_length_c                   12.597(3)
_cell_measurement_reflns_used    3807
_cell_measurement_temperature    296(2)
_cell_measurement_theta_max      27.0
_cell_measurement_theta_min      2.69
_cell_volume                     865.8(4)
_computing_structure_refinement  'SHELXL-2014 (Sheldrick, 2014)'
_diffrn_ambient_temperature      296(2)
_diffrn_measured_fraction_theta_full 0.983
_diffrn_measured_fraction_theta_max 0.983
_diffrn_measurement_device_type  'Bruker APEX-II CCD'
_diffrn_radiation_type           MoK\a
_diffrn_radiation_wavelength     0.71073
_diffrn_reflns_av_R_equivalents  0.0256
_diffrn_reflns_av_unetI/netI     0.0476
_diffrn_reflns_Laue_measured_fraction_full 0.983
_diffrn_reflns_Laue_measured_fraction_max 0.983
_diffrn_reflns_limit_h_max       8
_diffrn_reflns_limit_h_min       -8
_diffrn_reflns_limit_k_max       11
_diffrn_reflns_limit_k_min       -14
_diffrn_reflns_limit_l_max       13
_diffrn_reflns_limit_l_min       -15
_diffrn_reflns_number            5094
_diffrn_reflns_point_group_measured_fraction_full 0.983
_diffrn_reflns_point_group_measured_fraction_max 0.983
_diffrn_reflns_theta_full        25.242
_diffrn_reflns_theta_max         25.497
_diffrn_reflns_theta_min         1.859
_exptl_absorpt_coefficient_mu    2.395
_exptl_absorpt_correction_T_max  0.973
_exptl_absorpt_correction_T_min  0.962
_exptl_absorpt_correction_type   multi-scan
_exptl_absorpt_process_details   sadabs
_exptl_crystal_colour            colorless
_exptl_crystal_density_diffrn    1.566
_exptl_crystal_description       block
_exptl_crystal_F_000             412
_exptl_crystal_size_max          0.20
_exptl_crystal_size_mid          0.20
_exptl_crystal_size_min          0.18
_refine_diff_density_max         0.402
_refine_diff_density_min         -0.503
_refine_diff_density_rms         0.104
_refine_ls_extinction_method     none
_refine_ls_goodness_of_fit_ref   1.019
_refine_ls_hydrogen_treatment    constr
_refine_ls_matrix_type           full
_refine_ls_number_parameters     235
_refine_ls_number_reflns         3167
_refine_ls_number_restraints     0
_refine_ls_restrained_S_all      1.019
_refine_ls_R_factor_all          0.0766
_refine_ls_R_factor_gt           0.0477
_refine_ls_shift/su_max          0.000
_refine_ls_shift/su_mean         0.000
_refine_ls_structure_factor_coef Fsqd
_refine_ls_weighting_details
'w=1/[\s^2^(Fo^2^)+(0.1200P)^2^+0.5814P] where P=(Fo^2^+2Fc^2^)/3'
_refine_ls_weighting_scheme      calc
_refine_ls_wR_factor_gt          0.1414
_refine_ls_wR_factor_ref         0.1943
_reflns_Friedel_coverage         0.000
_reflns_number_gt                2242
_reflns_number_total             3167
_reflns_threshold_expression     'I > 2\s(I)'
_cod_data_source_file            jo7b02035_si_002.cif
_cod_data_source_block           170315b_4al
_cod_depositor_comments
'Adding full bibliography for 4032968--4032972.cif.'
_cod_original_cell_volume        865.9(3)
_cod_database_code               4032971
_shelx_space_group_comment
;
The symmetry employed for this shelxl refinement is uniquely defined
by the following loop, which should always be used as a source of
symmetry information in preference to the above space-group names.
They are only intended as comments.
;
_shelx_estimated_absorpt_t_min   0.962
_shelx_estimated_absorpt_t_max   0.973
_shelxl_version_number           2014-3
_shelx_res_file
;
TITL 170315b in P-1
CELL 0.71073 6.7473 11.7714 12.5968 62.242 77.949 84.286
ZERR 2.00 0.0014 0.0025 0.0028 0.005 0.006 0.006
LATT 1
SFAC C  H  N  O  Br
UNIT 42  28  2  6  2
OMIT -1 51
L.S. 20
ACTA
BOND $H
FMAP 2
PLAN -4
HTAB C17 O1_$1
HTAB C14 O1_$1
HTAB C11 Br1_$2
HTAB C10 O1
HTAB C17 O1_$1
HTAB C14 O1_$1
HTAB C11 Br1_$2
HTAB C10 O1
HTAB C17 O1_$1
HTAB C14 O1_$1
HTAB C11 Br1_$2
HTAB C10 O1
HTAB C17 O1_$1
HTAB C14 O1_$1
HTAB C11 Br1_$2
HTAB C10 O1
HTAB C20 O2_$1
HTAB C8 Br1_$2
EQIV $2 -x, -y-1, -z+1
HTAB C7 O2
HTAB C3 O2_$1
EQIV $1 x+1, y, z
CONF
HTAB
HTAB C10 O1
HTAB C11 Br1_$2
HTAB C14 O1_$1
HTAB C17 O1_$1
HTAB C10 O1
HTAB C11 Br1_$2
HTAB C14 O1_$1
HTAB C17 O1_$1
HTAB C10 O1
HTAB C11 Br1_$2
HTAB C14 O1_$1
HTAB C17 O1_$1
HTAB C10 O1
HTAB C11 Br1_$2
HTAB C14 O1_$1
HTAB C17 O1_$1
TEMP 23.000
WGHT    0.120000    0.581426
FVAR       0.21602
BR1   5    0.323343   -0.512171    0.394215    11.00000    0.11223    0.04368 =
         0.08102   -0.01738   -0.01532    0.00122
C1    1    0.055839    0.255247   -0.008901    11.00000    0.04942    0.05200 =
         0.03768   -0.02616   -0.00719    0.00731
N1    3    0.181255    0.061807    0.116860    11.00000    0.03707    0.04089 =
         0.03958   -0.02447   -0.01061    0.00103
O1    4   -0.137257    0.060394    0.071398    11.00000    0.04046    0.06839 =
         0.05523   -0.03847   -0.01035    0.00218
C2    1   -0.055747    0.352800   -0.088042    11.00000    0.08118    0.06557 =
         0.04462   -0.02717   -0.01940    0.01883
AFIX  43
H10   2   -0.178323    0.334571   -0.099496    11.00000   -1.20000
AFIX   0
O2    4    0.688695    0.181549    0.394097    11.00000    0.03271    0.12335 =
         0.05467   -0.05168   -0.01047   -0.00045
C3    1    0.017948    0.475639   -0.148505    11.00000    0.11832    0.05909 =
         0.05310   -0.02347   -0.02988    0.02154
AFIX  43
H9    2   -0.054168    0.541169   -0.202098    11.00000   -1.20000
AFIX   0
O3    4    0.395239    0.176744    0.527688    11.00000    0.03661    0.08420 =
         0.04815   -0.04310   -0.00829    0.00351
C4    1    0.197767    0.502328   -0.130271    11.00000    0.13200    0.04518 =
         0.04606   -0.01243   -0.00685   -0.00168
AFIX  43
H8    2    0.244135    0.586550   -0.171154    11.00000   -1.20000
AFIX   0
C5    1    0.314042    0.406539   -0.051853    11.00000    0.08128    0.04548 =
         0.04640   -0.02004   -0.00285   -0.00742
AFIX  43
H7    2    0.436484    0.425526   -0.040872    11.00000   -1.20000
AFIX   0
C6    1    0.237630    0.280949    0.009239    11.00000    0.05816    0.04072 =
         0.02878   -0.01909    0.00097   -0.00517
C7    1    0.325124    0.159016    0.097659    11.00000    0.03625    0.03972 =
         0.03396   -0.01919   -0.00136   -0.00522
AFIX  13
H6    2    0.459823    0.143268    0.059298    11.00000   -1.20000
AFIX   0
C8    1    0.013023    0.116856    0.061996    11.00000    0.04293    0.04940 =
         0.03664   -0.03107   -0.00941    0.00865
C9    1    0.214352   -0.071676    0.186021    11.00000    0.04139    0.04225 =
         0.03273   -0.02373   -0.00394   -0.00391
C10   1    0.052428   -0.153516    0.257989    11.00000    0.04122    0.05350 =
         0.05079   -0.02766    0.00466   -0.01131
AFIX  43
H13   2   -0.078577   -0.120988    0.263741    11.00000   -1.20000
AFIX   0
C11   1    0.087280   -0.282703    0.320514    11.00000    0.05599    0.05387 =
         0.04351   -0.01437   -0.00244   -0.01676
AFIX  43
H14   2   -0.021129   -0.337849    0.368137    11.00000   -1.20000
AFIX   0
C12   1    0.281474   -0.332036    0.313675    11.00000    0.06955    0.04120 =
         0.05089   -0.02389   -0.00568   -0.00784
C13   1    0.444447   -0.249447    0.244131    11.00000    0.05326    0.05276 =
         0.04673   -0.02930   -0.01168    0.00979
AFIX  43
H11   2    0.575952   -0.281608    0.240639    11.00000   -1.20000
AFIX   0
C14   1    0.409188   -0.119333    0.180361    11.00000    0.03994    0.05040 =
         0.04591   -0.02880    0.00057   -0.00580
AFIX  43
H12   2    0.517322   -0.063714    0.133449    11.00000   -1.20000
AFIX   0
C15   1    0.163079    0.155496    0.298027    11.00000    0.04095    0.07166 =
         0.04640   -0.03725   -0.01082   -0.00004
AFIX  43
H3    2    0.039109    0.149913    0.279527    11.00000   -1.20000
AFIX   0
C16   1    0.336981    0.158721    0.218063    11.00000    0.03229    0.03665 =
         0.03428   -0.01863   -0.00578    0.00081
C17   1    0.525314    0.166561    0.244350    11.00000    0.03941    0.04415 =
         0.03504   -0.02169    0.00018   -0.00159
AFIX  43
H5    2    0.645556    0.167585    0.191958    11.00000   -1.20000
AFIX   0
C18   1    0.525403    0.172629    0.349766    11.00000    0.03114    0.04541 =
         0.04671   -0.02797   -0.00574   -0.00171
C19   1    0.349754    0.168895    0.429329    11.00000    0.03769    0.04166 =
         0.03097   -0.01998   -0.00328    0.00139
C20   1    0.165400    0.160309    0.406646    11.00000    0.03185    0.09356 =
         0.05142   -0.04713    0.00160    0.00136
AFIX  43
H2    2    0.046469    0.157750    0.460609    11.00000   -1.20000
AFIX   0
C21   1    0.609488    0.182619    0.506520    11.00000    0.04110    0.08346 =
         0.05580   -0.04614   -0.01174   -0.00146
AFIX  23
H1    2    0.650652    0.260405    0.504388    11.00000   -1.20000
H4    2    0.661306    0.109629    0.571970    11.00000   -1.20000
AFIX   0
HKLF 4 1 1 0 0 0 1 0 0 0 1

REM  170315b in P-1
REM R1 =  0.0477 for    2242 Fo > 4sig(Fo)  and  0.0766 for all    3167 data
REM    235 parameters refined using      0 restraints

END

WGHT      0.1185      0.2943

REM Instructions for potential hydrogen bonds
HTAB C10 O1
HTAB C11 Br1_$2
HTAB C14 O1_$1
HTAB C17 O1_$1

REM Highest difference peak  0.402,  deepest hole -0.503,  1-sigma level  0.104
Q1    1   0.1749  0.4582 -0.1602  11.00000  0.05    0.40
Q2    1   0.1141 -0.3515  0.4430  11.00000  0.05    0.37
Q3    1   0.6929 -0.2824  0.2781  11.00000  0.05    0.35
Q4    1   0.4469 -0.6386  0.5638  11.00000  0.05    0.33
;
_shelx_res_checksum              9357
_shelx_hkl_file
;
  -1   0   0   30.76    1.05
  -1   0   0   31.82    1.06
  -2   0   0   34.51    1.22
  -2   0   0   35.75    1.17
  -3   0   0   91.49    3.02
  -3   0   0   93.66    3.11
  -3   0   0   91.21    3.02
   3   0   0   90.53    3.08
  -4   0   0    8.17    0.30
  -4   0   0    8.56    0.30
  -4   0   0    8.90    0.45
   4   0   0    8.58    0.41
  -5   0   0    1.54    0.26
  -6   0   0   12.25    0.66
   6   0   0   12.71    0.63
  -7   0   0   -0.12    0.32
   7   0   0   -0.02    0.24
  -8   0   0    1.16    0.43
   8   0   0    1.82    0.41
   8  -1   0   -0.11    0.34
  -8   1   0    0.00    0.39
   7  -1   0    0.21    0.28
  -7   1   0    0.06    0.31
   6  -1   0    5.01    0.40
  -6   1   0    5.05    0.45
   5  -1   0    0.04    0.04
  -5   1   0    0.18    0.23
   4  -1   0    1.88    0.21
  -4   1   0    1.87    0.23
  -4   1   0    1.94    0.14
   3  -1   0  157.37    5.16
  -3   1   0  156.31    5.18
  -3   1   0  152.07    5.12
   2  -1   0   41.56    1.37
   2  -1   0   38.92    1.35
  -2   1   0   38.20    1.35
  -2   1   0   41.67    1.38
   1  -1   0   25.56    0.90
   1  -1   0   26.78    0.89
  -1   1   0   25.90    0.89
  -1   1   0   26.50    0.90
  -1   1   0   27.52    0.90
   0  -1   0    2.21    0.09
   0   1   0    1.99    0.10
  -1  -1   0    1.68    0.10
  -1  -1   0    1.29    0.11
  -1  -1   0    1.80    0.10
   1   1   0    1.74    0.10
   1   1   0    1.68    0.10
  -2  -1   0   38.96    1.28
   2   1   0   39.71    1.28
   2   1   0   36.50    1.31
  -3  -1   0   55.59    1.86
  -3  -1   0   50.97    1.77
   3   1   0   54.36    1.84
  -4  -1   0    3.80    0.29
   4   1   0    3.64    0.28
  -5  -1   0   37.64    1.42
   5   1   0   37.70    1.41
  -6  -1   0    1.58    0.33
   6   1   0    1.64    0.28
  -7  -1   0    0.09    0.29
   7   1   0    0.34    0.27
  -8  -1   0    0.47    0.35
   8   1   0   -0.01    0.30
   8  -2   0    0.62    0.33
  -8   2   0    0.44    0.39
   7  -2   0    0.56    0.27
  -7   2   0    1.05    0.36
   6  -2   0    8.77    0.52
  -6   2   0    8.68    0.56
   5  -2   0    6.36    0.40
  -5   2   0    6.58    0.47
   4  -2   0    0.00    0.12
  -4   2   0    0.08    0.18
   3  -2   0    8.19    0.35
   3  -2   0    8.25    0.37
  -3   2   0    8.46    0.41
   2  -2   0   31.81    1.09
   2  -2   0   32.16    1.10
  -2   2   0   30.71    1.11
   1  -2   0   13.87    0.52
   1  -2   0   13.97    0.49
  -1   2   0   14.33    0.50
  -1   2   0   13.89    0.52
   0  -2   0    2.08    0.11
   0   2   0    2.09    0.14
  -1  -2   0    0.62    0.07
  -1  -2   0    0.79    0.10
  -1  -2   0    0.52    0.09
   1   2   0    0.61    0.09
  -2  -2   0  155.51    5.14
  -2  -2   0  158.92    5.17
   2   2   0  155.82    5.14
   2   2   0  152.64    5.15
  -3  -2   0    6.53    0.28
   3   2   0    6.58    0.32
   3   2   0    6.73    0.27
  -4  -2   0    0.67    0.09
  -4  -2   0    0.62    0.18
   4   2   0    0.33    0.14
  -5  -2   0    2.21    0.28
   5   2   0    2.82    0.28
  -6  -2   0    0.12    0.28
   6   2   0    0.32    0.23
  -7  -2   0   -0.14    0.27
   7   2   0    0.07    0.26
  -8  -2   0    0.25    0.39
   8  -3   0   -0.42    0.34
  -8   3   0    0.07    0.39
   7  -3   0    2.06    0.35
  -7   3   0    2.06    0.42
   6  -3   0   18.27    0.80
  -6   3   0   16.45    0.85
   5  -3   0   -0.18    0.16
  -5   3   0   -0.26    0.23
   4  -3   0   16.42    0.66
  -4   3   0   15.78    0.71
   3  -3   0   89.35    2.96
   3  -3   0   87.32    2.97
  -3   3   0   87.27    2.99
   2  -3   0    3.69    0.22
   2  -3   0    2.61    0.17
  -2   3   0    3.68    0.22
   1  -3   0  217.00    7.09
   1  -3   0  209.52    7.14
  -1   3   0  221.41    7.11
   0  -3   0  851.34   28.09
  -1  -3   0  106.93    3.42
  -1  -3   0   96.08    3.41
  -1  -3   0  105.14    3.43
  -2  -3   0   36.07    1.27
  -2  -3   0   35.64    1.25
  -3  -3   0   89.84    3.00
  -3  -3   0   91.13    3.05
   3   3   0   87.25    3.02
  -4  -3   0    2.18    0.18
   4   3   0    2.06    0.23
   5   3   0    3.89    0.33
  -6  -3   0    6.98    0.55
   6   3   0    6.57    0.50
  -7  -3   0    0.69    0.37
  -8  -3   0    0.44    0.42
   8  -4   0    0.36    0.36
  -8   4   0    0.17    0.40
   7  -4   0   -0.18    0.28
  -7   4   0    0.18    0.34
   6  -4   0    0.10    0.25
  -6   4   0    0.64    0.29
   5  -4   0    1.27    0.22
  -5   4   0    1.76    0.29
   4  -4   0    4.58    0.31
   4  -4   0    4.77    0.30
  -4   4   0    4.80    0.38
   3  -4   0    4.71    0.26
   3  -4   0    4.98    0.31
  -3   4   0    4.55    0.30
   1  -4   0  100.43    3.35
   1  -4   0  100.84    3.27
  -1   4   0   95.87    3.30
  -2  -4   0   37.22    1.32
  -3  -4   0   12.83    0.57
  -4  -4   0    4.44    0.35
  -4  -4   0    4.29    0.27
  -5  -4   0   19.80    0.88
  -6  -4   0   -0.01    0.26
  -7  -4   0    0.60    0.37
  -8  -4   0    0.35    0.41
   8  -5   0    0.04    0.31
  -8   5   0    0.26    0.41
   7  -5   0   -0.08    0.26
  -7   5   0   -0.02    0.34
   6  -5   0    0.20    0.22
  -6   5   0   -0.32    0.29
   5  -5   0    7.58    0.47
  -5   5   0    7.87    0.54
   4  -5   0    2.49    0.23
   4  -5   0    2.30    0.26
  -4   5   0    2.92    0.32
   3  -5   0   12.24    0.50
   3  -5   0   11.90    0.57
  -3   5   0   12.47    0.56
   2  -5   0    9.38    0.47
  -2   5   0   10.01    0.43
   1  -5   0    2.96    0.15
   1  -5   0    3.09    0.26
   0  -5   0  100.90    3.36
   0  -5   0   99.88    3.41
  -1  -5   0   14.98    0.60
  -1  -5   0   15.26    0.63
  -2  -5   0   30.37    1.14
  -2  -5   0   32.12    1.16
  -3  -5   0    4.24    0.34
  -3  -5   0    4.56    0.32
  -4  -5   0    5.09    0.34
  -4  -5   0    5.26    0.40
  -5  -5   0    4.83    0.43
  -6  -5   0   -0.15    0.26
  -7  -5   0   -0.24    0.35
  -8  -5   0   -0.18    0.38
   7  -6   0    1.03    0.34
  -7   6   0    1.03    0.40
   6  -6   0    6.27    0.48
  -6   6   0    5.35    0.52
   5  -6   0    2.09    0.30
   5  -6   0    1.64    0.25
  -5   6   0    2.53    0.35
   4  -6   0   11.25    0.60
   4  -6   0   11.53    0.54
  -4   6   0   11.75    0.61
   3  -6   0   47.91    1.76
   3  -6   0   47.87    1.67
  -3   6   0   48.54    1.73
   2  -6   0    3.66    0.31
   2  -6   0    3.49    0.20
  -2   6   0    3.66    0.26
   1  -6   0   95.46    3.19
   1  -6   0   99.90    3.33
  -1   6   0   94.25    3.25
   0  -6   0  156.31    5.18
   0  -6   0  150.33    5.11
  -1  -6   0    2.05    0.26
  -1  -6   0    3.14    0.24
  -2  -6   0   19.81    0.78
  -2  -6   0   18.57    0.79
  -3  -6   0   21.19    0.86
  -3  -6   0   20.50    0.86
  -4  -6   0    0.03    0.21
  -4  -6   0   -0.06    0.18
  -5  -6   0    7.48    0.54
  -6  -6   0    2.79    0.41
  -7  -6   0   -0.02    0.39
  -8  -6   0   -0.19    0.39
   7  -7   0   -0.10    0.30
   6  -7   0    0.50    0.27
  -6   7   0   -0.04    0.32
   5  -7   0    2.54    0.30
   5  -7   0    2.44    0.35
  -5   7   0    1.82    0.35
   4  -7   0   -0.09    0.22
   4  -7   0    0.31    0.17
  -4   7   0    0.16    0.24
   3  -7   0    2.08    0.31
   3  -7   0    2.46    0.21
  -3   7   0    1.95    0.25
   2  -7   0    0.24    0.10
   2  -7   0    0.24    0.20
  -2   7   0    0.27    0.16
   1  -7   0   13.81    0.67
   1  -7   0   14.73    0.52
  -1   7   0   14.57    0.60
   0  -7   0   16.28    0.57
   0  -7   0   17.10    0.74
   0  -7   0   15.88    0.67
  -1  -7   0    5.31    0.34
  -1  -7   0    4.86    0.38
  -2  -7   0   56.07    1.96
  -2  -7   0   53.94    1.99
  -3  -7   0    2.37    0.31
  -3  -7   0    2.12    0.28
  -4  -7   0   -0.07    0.21
  -4  -7   0    0.10    0.22
  -5  -7   0    4.73    0.46
  -6  -7   0    1.13    0.41
  -7  -7   0   -0.01    0.36
   6  -8   0   -0.19    0.30
   5  -8   0    1.13    0.26
   5  -8   0    1.23    0.33
  -5   8   0    1.42    0.35
   4  -8   0    0.38    0.24
   4  -8   0    0.19    0.17
  -4   8   0    0.13    0.25
   3  -8   0    8.95    0.42
   3  -8   0    8.51    0.55
  -3   8   0    8.57    0.51
   2  -8   0    0.14    0.22
   2  -8   0    0.16    0.16
  -2   8   0    0.13    0.17
   1  -8   0    0.12    0.25
  -1   8   0    0.42    0.17
  -1  -8   0    0.87    0.26
  -1  -8   0    1.10    0.22
  -2  -8   0    0.78    0.25
  -2  -8   0    1.14    0.24
  -3  -8   0   19.48    0.87
  -3  -8   0   20.55    0.90
  -4  -8   0    0.83    0.28
  -4  -8   0    0.87    0.27
  -5  -8   0    0.12    0.28
  -6  -8   0    0.06    0.37
  -7  -8   0   -0.09    0.38
   5  -9   0    0.20    0.31
   4  -9   0    6.90    0.59
   3  -9   0    3.49    0.41
  -3   9   0    3.45    0.35
   2  -9   0    1.60    0.33
  -2   9   0    2.34    0.27
   1  -9   0   21.37    0.99
  -1   9   0   22.51    0.89
   0  -9   0   64.31    2.39
   0  -9   0   65.97    2.30
  -1  -9   0    0.58    0.27
  -1  -9   0    0.40    0.22
  -2  -9   0   13.31    0.65
  -2  -9   0   13.11    0.71
  -3  -9   0    0.24    0.24
  -3  -9   0    0.53    0.29
  -4  -9   0    0.03    0.28
  -4  -9   0    0.27    0.31
  -5  -9   0    2.84    0.45
  -6  -9   0    1.05    0.39
   5 -10   0    0.44    0.36
   4 -10   0    1.63    0.40
   3 -10   0    5.13    0.52
   2 -10   0    0.21    0.28
  -2  10   0    0.49    0.23
   1 -10   0   19.79    0.98
  -1  10   0   18.97    0.83
   0 -10   0    1.10    0.33
   0  10   0    1.94    0.28
  -1 -10   0    3.14    0.34
  -1 -10   0    2.87    0.40
  -2 -10   0   14.74    0.73
  -2 -10   0   15.86    0.85
  -3 -10   0    1.19    0.36
  -3 -10   0    1.28    0.33
  -4 -10   0    1.35    0.34
  -5 -10   0    2.22    0.46
  -6 -10   0    0.12    0.41
   5 -11   0    1.47    0.45
   4 -11   0    0.68    0.40
   3 -11   0    2.33    0.47
   2 -11   0    0.49    0.33
   1 -11   0    3.54    0.50
   0 -11   0    1.96    0.43
   0  11   0    2.15    0.31
  -1 -11   0    1.37    0.36
  -1 -11   0    0.68    0.30
  -2 -11   0    6.19    0.58
  -2 -11   0    6.49    0.53
  -3 -11   0    0.35    0.32
  -3 -11   0   -0.09    0.30
  -4 -11   0    0.43    0.32
  -5 -11   0   -0.15    0.33
   3 -12   0    0.88    0.39
   2 -12   0    0.40    0.41
   1 -12   0    8.27    0.69
   0 -12   0    9.52    0.73
  -1 -12   0   -0.01    0.34
  -1 -12   0   -0.17    0.29
  -2 -12   0    6.14    0.53
  -2 -12   0    5.53    0.61
  -3 -12   0    0.88    0.42
  -3 -12   0    1.29    0.35
  -4 -12   0    0.26    0.37
  -1 -13   0    0.80    0.69
  -3 -13   0    0.40    0.45
  -3 -12   1    1.38    0.37
  -3 -12   1    1.68    0.47
  -2 -12   1    0.80    0.39
  -2 -12   1    0.66    0.37
  -1 -12   1    1.67    0.38
  -1 -12   1    1.66    0.48
   0 -12   1    4.63    0.57
   1 -12   1    1.91    0.45
   2 -12   1    1.70    0.49
  -5 -11   1    0.40    0.41
  -4 -11   1    1.20    0.38
  -3 -11   1    1.48    0.36
  -3 -11   1    2.55    0.46
  -2 -11   1    2.73    0.38
  -2 -11   1    2.56    0.44
  -1 -11   1    0.06    0.26
  -1 -11   1   -0.08    0.31
   0  11  -1    1.89    0.34
   0 -11   1    1.74    0.40
  -1  11  -1    0.43    0.28
   1 -11   1    0.36    0.33
   2 -11   1    0.93    0.38
   3 -11   1    2.78    0.50
   4 -11   1    0.02    0.38
   5 -11   1    0.44    0.47
  -5 -10   1    2.54    0.49
  -4 -10   1   -0.31    0.34
  -3 -10   1    1.96    0.39
  -3 -10   1    2.65    0.44
  -2 -10   1    3.92    0.46
  -2 -10   1    3.56    0.39
  -1 -10   1    0.74    0.27
  -1 -10   1    0.78    0.32
   0  10  -1   18.42    0.81
   0 -10   1   17.78    0.92
  -1  10  -1   11.70    0.64
   1 -10   1   13.14    0.79
  -2  10  -1    1.14    0.28
   2 -10   1    1.29    0.37
   3 -10   1    3.75    0.48
   4 -10   1    1.86    0.42
   5 -10   1    1.25    0.42
  -6  -9   1   -0.03    0.41
  -5  -9   1    0.21    0.34
  -4  -9   1    2.42    0.39
  -3  -9   1    7.17    0.52
  -3  -9   1    6.32    0.56
  -2  -9   1    4.99    0.43
  -2  -9   1    5.74    0.51
  -1  -9   1    5.07    0.40
  -1  -9   1    5.47    0.51
   0  -9   1   11.38    0.69
   0  -9   1   10.25    0.55
  -1   9  -1    5.34    0.40
   1  -9   1    4.87    0.47
  -2   9  -1    1.27    0.24
   2  -9   1    1.31    0.33
  -3   9  -1    9.62    0.58
   3  -9   1   10.04    0.69
  -4   9  -1    0.27    0.29
   4  -9   1    0.62    0.33
   5  -9   1    1.59    0.37
  -6  -8   1   -0.05    0.39
  -5  -8   1    0.92    0.37
  -4  -8   1   -0.12    0.26
  -3  -8   1   -0.04    0.24
  -3  -8   1    0.23    0.23
  -2  -8   1    2.66    0.31
  -2  -8   1    2.94    0.35
  -1  -8   1    1.45    0.23
  -1  -8   1    1.56    0.29
   0  -8   1    1.68    0.32
   0  -8   1    1.63    0.23
  -1   8  -1    3.46    0.30
   1  -8   1    3.02    0.36
  -2   8  -1   16.77    0.74
   2  -8   1   16.71    0.82
  -3   8  -1    9.11    0.53
   3  -8   1    8.31    0.57
  -4   8  -1    2.14    0.32
   4  -8   1    2.36    0.38
  -5   8  -1    0.73    0.35
   5  -8   1    1.33    0.34
  -7  -7   1   -0.05    0.37
  -6  -7   1    2.39    0.42
  -5  -7   1    5.19    0.48
  -4  -7   1    0.35    0.26
  -4  -7   1    0.48    0.23
  -3  -7   1   36.15    1.40
  -3  -7   1   35.81    1.39
  -2  -7   1    1.62    0.25
  -2  -7   1    1.63    0.27
  -1  -7   1   32.81    1.26
  -1  -7   1   31.31    1.21
   0  -7   1   56.18    2.03
   0  -7   1   55.11    1.96
  -1   7  -1   52.70    1.85
  -2   7  -1   16.84    0.71
   2  -7   1   16.82    0.78
  -3   7  -1    5.35    0.41
   3  -7   1    5.37    0.31
   3  -7   1    5.91    0.47
  -4   7  -1    2.27    0.33
   4  -7   1    2.39    0.35
   4  -7   1    2.06    0.24
  -5   7  -1    0.98    0.34
   5  -7   1    1.34    0.31
   5  -7   1    1.36    0.25
  -6   7  -1    0.23    0.31
   6  -7   1   -0.13    0.25
   7  -7   1    0.18    0.31
  -7  -6   1    0.10    0.37
  -6  -6   1    1.45    0.38
  -5  -6   1    0.57    0.29
  -4  -6   1   15.42    0.76
  -4  -6   1   15.76    0.71
  -3  -6   1   15.43    0.71
  -3  -6   1   15.83    0.71
  -2  -6   1   21.61    0.90
  -2  -6   1   22.16    0.89
  -1  -6   1   46.08    1.62
  -1  -6   1   44.99    1.51
  -1  -6   1   45.30    1.67
   0  -6   1  113.15    3.71
   0  -6   1  102.93    3.64
  -1   6  -1    2.17    0.21
   1  -6   1    2.00    0.12
   1  -6   1    2.43    0.27
  -2   6  -1   19.65    0.80
   2  -6   1   21.38    0.88
  -3   6  -1   18.27    0.77
   3  -6   1   17.68    0.69
   3  -6   1   18.20    0.81
  -4   6  -1    5.31    0.43
   4  -6   1    5.51    0.44
   4  -6   1    5.60    0.35
  -5   6  -1    3.99    0.40
   5  -6   1    3.66    0.33
  -6   6  -1    3.52    0.44
   6  -6   1    3.61    0.37
  -7   6  -1    0.48    0.40
   7  -6   1   -0.50    0.28
  -8  -5   1   -0.40    0.39
  -7  -5   1    0.55    0.41
  -6  -5   1    1.52    0.39
  -5  -5   1    7.48    0.57
  -4  -5   1    1.23    0.20
  -4  -5   1    1.09    0.27
  -3  -5   1   14.79    0.64
  -3  -5   1   14.74    0.65
  -2  -5   1   10.96    0.51
  -2  -5   1   11.28    0.51
  -1  -5   1   24.10    0.90
  -1  -5   1   24.63    0.94
  -1  -5   1   23.70    0.81
   0  -5   1    1.45    0.20
   0  -5   1    1.17    0.15
  -1   5  -1   20.40    0.77
   1  -5   1   21.04    0.84
   1  -5   1   20.80    0.71
  -2   5  -1   35.37    1.24
   2  -5   1   37.31    1.31
   2  -5   1   31.66    1.19
  -3   5  -1   39.57    1.45
   3  -5   1   38.74    1.47
   3  -5   1   41.08    1.40
  -4   5  -1    0.96    0.24
   4  -5   1    0.73    0.18
   4  -5   1    0.74    0.22
  -5   5  -1    2.75    0.38
   5  -5   1    2.66    0.29
  -6   5  -1    0.19    0.34
   6  -5   1    0.33    0.22
  -7   5  -1   -0.59    0.35
   7  -5   1   -0.05    0.26
  -8   5  -1    0.37    0.44
   8  -5   1   -0.01    0.31
  -8  -4   1    0.97    0.43
  -7  -4   1    0.11    0.33
  -6  -4   1   13.69    0.75
   5   4  -1    9.94    0.54
  -5  -4   1   11.82    0.62
   4   4  -1    4.12    0.28
  -4  -4   1    2.26    0.19
   3   4  -1   40.68    1.43
  -3  -4   1   40.33    1.48
  -2  -4   1    1.13    0.17
  -2  -4   1    0.76    0.14
  -1  -4   1   58.71    2.08
  -1  -4   1   61.45    2.07
  -1  -4   1   60.62    2.00
   0  -4   1  205.14    6.70
   0  -4   1  197.72    6.66
   1  -4   1   77.96    2.67
   1  -4   1   77.68    2.57
  -2   4  -1   65.08    2.20
   2  -4   1   63.32    2.23
   2  -4   1   63.99    2.16
  -3   4  -1   51.67    1.80
   3  -4   1   49.05    1.80
   3  -4   1   51.40    1.75
  -4   4  -1    3.16    0.33
   4  -4   1    2.62    0.24
   4  -4   1    3.00    0.28
  -5   4  -1    8.27    0.53
   5  -4   1    8.19    0.48
  -6   4  -1   -0.17    0.30
   6  -4   1   -0.12    0.21
  -7   4  -1    0.16    0.36
   7  -4   1   -0.33    0.24
  -8   4  -1    1.40    0.47
   8  -4   1    1.27    0.37
  -8  -3   1    0.61    0.43
   7   3  -1    0.61    0.31
  -7  -3   1    0.75    0.33
   6   3  -1    0.91    0.24
  -6  -3   1    0.35    0.31
   5   3  -1    3.04    0.30
  -5  -3   1    3.16    0.35
   4   3  -1   33.19    1.22
  -4  -3   1   32.63    1.15
   3   3  -1    7.60    0.35
  -3  -3   1    8.01    0.35
  -3  -3   1    7.26    0.39
   2   3  -1    0.91    0.11
  -2  -3   1    1.06    0.13
  -2  -3   1    1.14    0.15
  -1  -3   1   55.32    1.83
  -1  -3   1   56.24    1.90
  -1  -3   1   54.26    1.88
   0  -3   1  358.47   10.64
   0  -3   1  288.43   10.66
  -1   3  -1   17.94    0.66
  -1   3  -1   18.00    0.62
   1  -3   1   18.17    0.62
   1  -3   1   17.79    0.69
   2  -3   1  119.62    4.15
   2  -3   1  128.03    4.11
  -3   3  -1    8.38    0.41
   3  -3   1    7.82    0.40
   3  -3   1    8.45    0.37
  -4   3  -1    6.78    0.41
   4  -3   1    5.71    0.36
  -5   3  -1   20.94    0.90
   5  -3   1   19.77    0.83
  -6   3  -1    5.81    0.50
   6  -3   1    6.21    0.44
  -7   3  -1    0.88    0.34
   7  -3   1    0.87    0.29
  -8   3  -1    0.27    0.37
   8  -3   1    0.40    0.36
   8   2  -1    0.00    0.31
  -8  -2   1    0.23    0.36
   7   2  -1    0.20    0.30
  -7  -2   1    0.18    0.31
   6   2  -1    5.84    0.45
  -6  -2   1    6.09    0.49
   5   2  -1    1.64    0.25
  -5  -2   1    1.48    0.29
   4   2  -1    4.59    0.29
   4   2  -1    4.48    0.18
  -4  -2   1    3.91    0.32
  -4  -2   1    4.29    0.19
   3   2  -1   66.69    2.17
   3   2  -1   67.47    2.12
  -3  -2   1   63.74    2.13
  -3  -2   1   55.58    2.19
   2   2  -1    6.38    0.28
   2   2  -1    6.46    0.27
  -2  -2   1    6.13    0.27
   1   2  -1   45.69    1.55
  -1  -2   1   47.49    1.58
  -1  -2   1   45.75    1.58
  -1  -2   1   47.17    1.55
   0  -2   1  129.26    4.32
   0  -2   1  131.50    4.33
  -1   2  -1    8.05    0.32
  -1   2  -1    7.87    0.29
   1  -2   1    8.08    0.30
   1  -2   1    8.07    0.34
  -2   2  -1   52.07    1.86
   2  -2   1   55.32    1.87
   2  -2   1   56.51    1.85
  -3   2  -1   25.05    0.92
   3  -2   1   22.99    0.87
  -4   2  -1    0.33    0.20
   4  -2   1    0.26    0.14
  -5   2  -1    5.29    0.42
   5  -2   1    4.83    0.35
  -6   2  -1    6.45    0.51
   6  -2   1    6.26    0.44
  -7   2  -1    1.74    0.38
   7  -2   1    1.76    0.35
  -8   2  -1    0.21    0.39
   8  -2   1    0.08    0.31
   8   1  -1    0.60    0.34
  -8  -1   1   -0.10    0.34
   7   1  -1   -0.21    0.24
  -7  -1   1   -0.03    0.28
   6   1  -1   41.12    1.58
  -6  -1   1   42.93    1.62
   5   1  -1   12.00    0.56
  -5  -1   1   10.63    0.58
   4   1  -1   54.10    1.87
  -4  -1   1   52.22    1.89
   3   1  -1   14.37    0.56
  -3  -1   1   14.52    0.59
   2   1  -1    0.42    0.08
   2   1  -1    0.44    0.06
  -2  -1   1    0.40    0.06
   1   1  -1   90.23    2.93
   1   1  -1   89.77    2.93
  -1  -1   1   88.33    2.93
  -1  -1   1   85.84    2.93
   0   1  -1   76.23    2.45
   0  -1   1   66.05    2.43
   0  -1   1   78.29    2.45
  -1   1  -1    2.11    0.14
  -1   1  -1    2.05    0.12
  -1   1  -1    1.94    0.11
   1  -1   1    1.73    0.13
   1  -1   1    1.85    0.11
  -2   1  -1  272.32    8.93
   2  -1   1  269.17    8.91
  -3   1  -1    0.94    0.16
   3  -1   1    0.62    0.12
  -4   1  -1   28.53    1.11
   4  -1   1   29.48    1.08
  -5   1  -1    2.01    0.31
   5  -1   1    2.01    0.24
  -6   1  -1    5.02    0.45
   6  -1   1    5.07    0.40
  -7   1  -1    0.80    0.33
   7  -1   1    0.90    0.28
  -8   1  -1   -0.12    0.33
   8  -1   1    0.57    0.33
   8   0  -1   -0.18    0.29
  -8   0   1    0.22    0.34
   7   0  -1    1.10    0.32
  -7   0   1    1.28    0.34
   6   0  -1    0.23    0.21
  -6   0   1    0.33    0.25
   5   0  -1    0.06    0.17
  -5   0   1    0.20    0.20
   4   0  -1   41.84    1.50
  -4   0   1   42.54    1.53
   3   0  -1   36.64    1.28
  -3   0   1   36.19    1.30
   2   0  -1    3.73    0.19
  -2   0   1    4.04    0.21
   1   0  -1  975.17   31.37
  -1   0   1  934.12   31.37
   0   0   1   10.81    0.37
  -1   0  -1    0.38    0.05
   1   0   1    0.31    0.05
  -2   0  -1   58.57    2.03
   2   0   1   61.46    2.02
  -3   0  -1   69.17    2.36
  -3   0  -1   72.35    2.42
   3   0   1   70.36    2.40
  -4   0  -1    1.88    0.23
  -4   0  -1    1.62    0.13
  -4   0  -1    1.78    0.14
   4   0   1    1.88    0.20
  -6   0  -1    5.37    0.46
   6   0   1    5.35    0.41
  -7   0  -1    0.40    0.30
   7   0   1    0.26    0.26
  -8   0  -1    0.13    0.33
   8   0   1    0.10    0.34
   8  -1  -1    0.13    0.31
  -8   1   1   -0.26    0.33
   7  -1  -1    1.49    0.31
  -7   1   1    0.92    0.33
   6  -1  -1    0.34    0.22
  -6   1   1    0.30    0.27
  -5   1   1    2.65    0.30
  -4   1   1    1.95    0.23
  -3   1   1    1.91    0.19
  -3   1   1    1.79    0.09
   2  -1  -1    8.26    0.30
  -2   1   1    8.94    0.35
  -2   1   1    8.51    0.30
   1  -1  -1   37.45    1.22
  -1   1   1   36.33    1.22
  -1   1   1   35.91    1.23
   0  -1  -1   29.28    0.97
   0   1   1   28.46    0.97
  -1  -1  -1    0.27    0.05
  -1  -1  -1    0.41    0.07
   1   1   1    0.32    0.05
  -2  -1  -1   30.70    1.02
   2   1   1   29.04    1.05
  -3  -1  -1   35.16    1.14
   3   1   1   31.26    1.18
  -4  -1  -1    0.06    0.07
  -4  -1  -1    0.27    0.17
   4   1   1    0.06    0.13
  -5  -1  -1    4.50    0.38
  -6  -1  -1   10.59    0.60
   6   1   1   10.19    0.57
  -7  -1  -1    0.48    0.30
   7   1   1    0.25    0.29
  -8  -1  -1    0.02    0.33
   8  -2  -1   -0.38    0.29
  -8   2   1    0.18    0.39
   7  -2  -1    2.72    0.37
  -7   2   1    3.04    0.44
   6  -2  -1    8.18    0.50
  -6   2   1    6.58    0.53
   5  -2  -1   13.59    0.63
  -5   2   1   14.81    0.69
   4  -2  -1    5.21    0.32
  -4   2   1    4.40    0.32
  -4   2   1    4.87    0.23
   3  -2  -1   78.61    2.57
   3  -2  -1   76.50    2.60
  -3   2   1   72.53    2.56
  -3   2   1   79.98    2.62
   2  -2  -1   13.07    0.48
  -2   2   1   13.35    0.50
  -2   2   1   12.40    0.48
   1  -2  -1   13.47    0.47
   1  -2  -1   12.86    0.48
  -1   2   1   12.46    0.47
  -1   2   1   13.56    0.48
   0  -2  -1  125.48    4.48
   0  -2  -1  140.40    4.45
   0   2   1  141.07    4.48
  -1  -2  -1    7.35    0.30
  -1  -2  -1    7.38    0.29
   1   2   1    7.32    0.29
  -2  -2  -1  172.26    5.74
  -2  -2  -1  172.51    5.76
   2   2   1  177.35    5.74
  -3  -2  -1    3.10    0.18
  -3  -2  -1    2.83    0.23
   3   2   1    3.35    0.17
   3   2   1    2.82    0.21
  -4  -2  -1   32.75    1.08
   4   2   1   29.25    1.15
  -6  -2  -1    5.25    0.46
   6   2   1    6.83    0.46
  -7  -2  -1    2.64    0.43
  -8  -2  -1    1.79    0.44
   8  -3  -1    0.18    0.31
  -8   3   1    0.82    0.41
   7  -3  -1    0.73    0.31
  -7   3   1    0.69    0.34
   6  -3  -1   -0.02    0.22
  -6   3   1    0.22    0.25
   5  -3  -1    5.43    0.38
  -5   3   1    6.36    0.42
   4  -3  -1   37.14    1.26
   4  -3  -1   34.50    1.29
  -4   3   1   34.89    1.32
   3  -3  -1    7.69    0.37
   3  -3  -1    8.66    0.36
  -3   3   1    8.40    0.39
   2  -3  -1    9.95    0.40
  -2   3   1    9.60    0.40
   1  -3  -1  336.83   10.72
   1  -3  -1  320.82   10.75
  -1   3   1  322.17   10.74
  -1  -3  -1    9.26    0.36
  -1  -3  -1    8.88    0.38
  -2  -3  -1   71.71    2.43
  -2  -3  -1   72.50    2.44
  -3  -3  -1   50.86    1.79
  -3  -3  -1   51.44    1.75
  -4  -3  -1    3.10    0.29
  -4  -3  -1    3.81    0.23
  -5  -3  -1    0.04    0.05
  -6  -3  -1    1.35    0.33
  -7  -3  -1    0.10    0.28
  -8  -3  -1    0.21    0.34
   8  -4  -1    0.01    0.32
  -8   4   1    0.61    0.41
   7  -4  -1    0.72    0.30
  -7   4   1    0.90    0.36
   6  -4  -1    0.15    0.22
  -6   4   1   -0.06    0.26
   5  -4  -1    0.18    0.19
  -5   4   1    0.47    0.25
   4  -4  -1    2.96    0.25
   4  -4  -1    2.84    0.26
  -4   4   1    3.09    0.30
   3  -4  -1   34.87    1.26
   3  -4  -1   34.38    1.27
  -3   4   1   37.47    1.29
   2  -4  -1   28.93    1.06
   2  -4  -1   30.44    1.10
  -2   4   1   32.25    1.08
   1  -4  -1    6.30    0.25
   1  -4  -1    6.06    0.31
  -1   4   1    5.85    0.25
   0  -4  -1   17.77    0.63
  -1  -4  -1   15.54    0.57
  -2  -4  -1   17.65    0.68
  -3  -4  -1    6.82    0.33
  -4  -4  -1    0.88    0.20
  -4  -4  -1    0.51    0.12
  -5  -4  -1    0.24    0.21
  -6  -4  -1   -0.13    0.25
  -7  -4  -1    0.78    0.33
  -8  -4  -1    0.09    0.35
   7  -5  -1    1.06    0.35
  -7   5   1    0.79    0.37
   6  -5  -1   13.24    0.66
  -6   5   1   12.06    0.68
   5  -5  -1    3.52    0.32
  -5   5   1    3.77    0.38
   4  -5  -1    7.87    0.42
   4  -5  -1    7.62    0.41
  -4   5   1    7.00    0.45
   3  -5  -1   18.27    0.69
   3  -5  -1   17.60    0.73
  -3   5   1   17.96    0.73
   2  -5  -1   34.82    1.25
   2  -5  -1   33.26    1.18
   1  -5  -1  177.85    5.80
   1  -5  -1  173.51    5.88
  -1   5   1  176.55    5.82
  -1  -5  -1    2.70    0.24
  -1  -5  -1    3.10    0.19
  -2  -5  -1   91.78    3.14
  -2  -5  -1   92.46    3.12
  -3  -5  -1    0.26    0.15
  -3  -5  -1    0.17    0.15
  -4  -5  -1   13.39    0.58
  -4  -5  -1   12.69    0.62
  -5  -5  -1   13.93    0.70
  -6  -5  -1    0.01    0.27
  -7  -5  -1    0.03    0.36
  -8  -5  -1    1.64    0.47
   7  -6  -1   -0.14    0.30
   6  -6  -1   -0.15    0.22
  -6   6   1    0.55    0.31
   5  -6  -1   10.18    0.53
  -5   6   1   10.10    0.60
   4  -6  -1   37.66    1.41
   4  -6  -1   37.69    1.37
  -4   6   1   36.98    1.40
   3  -6  -1    8.68    0.48
   3  -6  -1    9.10    0.41
  -3   6   1    8.12    0.46
   2  -6  -1   18.32    0.69
   2  -6  -1   19.32    0.79
  -2   6   1   18.51    0.72
   1  -6  -1   70.41    2.46
   1  -6  -1   70.52    2.36
  -1  -6  -1   18.67    0.71
  -1  -6  -1   18.77    0.77
  -2  -6  -1   50.38    1.78
  -2  -6  -1   49.23    1.74
  -3  -6  -1   -0.09    0.15
  -3  -6  -1    0.26    0.17
  -4  -6  -1    8.57    0.48
  -4  -6  -1    8.70    0.50
  -5  -6  -1   11.48    0.63
  -6  -6  -1   -0.03    0.27
  -7  -6  -1    1.08    0.38
  -8  -6  -1    0.49    0.41
   7  -7  -1    0.31    0.29
   6  -7  -1    0.85    0.27
   5  -7  -1    0.16    0.20
   5  -7  -1    0.07    0.26
  -5   7   1    0.10    0.25
   4  -7  -1    0.76    0.19
   4  -7  -1    0.65    0.24
  -4   7   1    0.50    0.24
   3  -7  -1   31.10    1.21
   3  -7  -1   30.34    1.10
  -3   7   1   29.38    1.15
   2  -7  -1    3.01    0.32
   2  -7  -1    3.29    0.21
  -2   7   1    3.70    0.28
   1  -7  -1   25.26    1.06
  -1   7   1   27.78    0.98
  -1  -7  -1   24.47    1.00
  -1  -7  -1   25.12    0.93
  -2  -7  -1   26.71    1.05
  -2  -7  -1   25.20    0.99
  -3  -7  -1   10.55    0.56
  -3  -7  -1   10.51    0.52
  -4  -7  -1    7.83    0.49
  -4  -7  -1    8.48    0.50
  -5  -7  -1    0.46    0.27
  -6  -7  -1    1.12    0.34
  -7  -7  -1   -0.26    0.38
   7  -8  -1    0.16    0.32
   6  -8  -1    5.77    0.49
   5  -8  -1    2.03    0.39
   5  -8  -1    1.39    0.28
   4  -8  -1    6.85    0.52
   4  -8  -1    6.93    0.40
  -4   8   1    5.54    0.46
   3  -8  -1    3.47    0.26
   3  -8  -1    3.09    0.35
  -3   8   1    3.38    0.31
   2  -8  -1    3.69    0.24
   2  -8  -1    4.42    0.39
  -2   8   1    3.76    0.31
   1  -8  -1   37.83    1.47
  -1   8   1   38.42    1.36
  -1  -8  -1   13.04    0.65
  -1  -8  -1   12.34    0.56
  -2  -8  -1   64.76    2.31
  -2  -8  -1   63.12    2.24
  -3  -8  -1   -0.02    0.20
  -3  -8  -1    0.02    0.23
  -4  -8  -1    5.72    0.46
  -4  -8  -1    5.61    0.43
  -5  -8  -1    0.20    0.32
  -6  -8  -1    0.12    0.33
  -7  -8  -1    1.01    0.41
   5  -9  -1    4.55    0.71
   4  -9  -1    4.92    0.49
   3  -9  -1    5.04    0.48
   2  -9  -1   26.98    1.11
  -2   9   1   23.40    0.96
   1  -9  -1   32.07    1.29
  -1   9   1   30.56    1.16
   0  -9  -1    1.27    0.21
   0  -9  -1    1.18    0.29
  -1  -9  -1   12.70    0.69
  -1  -9  -1   13.04    0.60
  -2  -9  -1    0.42    0.28
  -2  -9  -1    0.15    0.20
  -3  -9  -1    0.11    0.24
  -3  -9  -1    0.08    0.26
  -4  -9  -1    4.50    0.45
  -4  -9  -1    4.78    0.45
  -5  -9  -1    2.16    0.39
  -6  -9  -1    0.45    0.37
  -7  -9  -1    1.06    0.46
   4 -10  -1    1.94    0.37
   3 -10  -1    0.91    0.31
   2 -10  -1    7.52    0.57
   1 -10  -1    0.46    0.28
  -1  10   1    0.11    0.18
   0 -10  -1   -0.01    0.25
   0  10   1    0.14    0.17
  -1 -10  -1    9.93    0.66
  -1 -10  -1   11.76    0.58
  -2 -10  -1    4.94    0.49
  -2 -10  -1    3.97    0.38
  -3 -10  -1    0.13    0.30
  -3 -10  -1    0.14    0.24
  -4 -10  -1    1.03    0.34
  -4 -10  -1    1.16    0.35
  -5 -10  -1    0.39    0.31
  -6 -10  -1    0.64    0.42
   4 -11  -1    1.34    0.37
   3 -11  -1    0.13    0.30
   2 -11  -1    6.23    0.57
   1 -11  -1    5.02    0.52
   0 -11  -1    0.51    0.32
  -1 -11  -1    6.94    0.59
  -1 -11  -1    7.58    0.50
  -2 -11  -1    7.36    0.60
  -2 -11  -1    6.86    0.51
  -3 -11  -1    0.02    0.33
  -3 -11  -1    0.15    0.28
  -4 -11  -1    1.10    0.36
  -4 -11  -1    1.22    0.37
  -5 -11  -1    0.24    0.37
   4 -12  -1    0.47    0.40
   3 -12  -1    0.47    0.40
   2 -12  -1    3.12    0.48
   1 -12  -1    7.66    0.67
   0 -12  -1    0.05    0.32
  -1 -12  -1    5.69    0.58
  -2 -12  -1    1.05    0.30
  -2 -12  -1    0.97    0.41
  -3 -12  -1    0.52    0.31
  -3 -12  -1    0.80    0.39
  -4 -12  -1    3.98    0.48
  -5 -12  -1    0.28    0.39
   1 -13  -1    1.49    0.43
   0 -13  -1    0.84    0.41
  -1 -13  -1    1.35    0.43
  -2 -13  -1    2.78    0.53
  -3 -13  -1    0.33    0.37
  -4 -13  -1    0.06    0.53
  -3 -12   2    1.62    0.42
  -2 -12   2    0.25    0.38
  -2 -12   2    0.25    0.41
   1  12  -2    0.85    0.32
  -1 -12   2    1.35    0.41
  -1 -12   2    1.09    0.43
   0  12  -2    0.94    0.39
   0 -12   2    1.53    0.49
  -4 -11   2    0.72    0.39
  -3 -11   2    3.10    0.51
  -3 -11   2    3.12    0.49
  -2 -11   2    1.04    0.41
  -2 -11   2    0.57    0.36
  -1 -11   2    5.86    0.52
  -1 -11   2    6.59    0.63
   0  11  -2    3.90    0.45
   0 -11   2    4.19    0.54
  -1  11  -2   -0.19    0.29
   1 -11   2   -0.10    0.33
  -2  11  -2    3.62    0.64
   2 -11   2    2.95    0.50
   3 -11   2    1.31    0.42
  -5 -10   2   -0.24    0.41
  -4 -10   2   -0.02    0.33
  -3 -10   2    3.74    0.51
  -3 -10   2    4.09    0.48
  -2 -10   2    0.37    0.28
  -2 -10   2    0.36    0.35
  -1 -10   2    9.60    0.65
  -1 -10   2    9.82    0.70
   0  10  -2   11.51    0.66
   0 -10   2   11.65    0.75
  -1  10  -2   -0.23    0.26
   1 -10   2    0.13    0.30
  -2  10  -2    5.42    0.45
   2 -10   2    5.19    0.55
  -3  10  -2    2.78    0.41
   3 -10   2    3.57    0.51
   4 -10   2    3.46    0.53
   5 -10   2    1.41    0.44
  -6  -9   2    0.06    0.40
  -5  -9   2    0.71    0.42
  -4  -9   2    3.36    0.45
  -3  -9   2    2.98    0.40
  -3  -9   2    2.32    0.39
  -2  -9   2    0.96    0.32
  -2  -9   2    1.78    0.32
  -1  -9   2    9.94    0.65
  -1  -9   2    9.56    0.57
   0   9  -2   11.84    0.58
   0  -9   2   10.22    0.71
   0  -9   2   10.35    0.61
  -1   9  -2    1.81    0.28
   1  -9   2    1.87    0.36
  -2   9  -2    7.06    0.47
   2  -9   2    6.87    0.57
  -3   9  -2    3.45    0.40
   3  -9   2    3.34    0.45
  -4   9  -2    0.07    0.26
   4  -9   2    0.39    0.31
  -5   9  -2    0.53    0.45
   5  -9   2    1.09    0.40
  -6  -8   2    0.01    0.37
  -5  -8   2    2.50    0.47
  -4  -8   2    0.28    0.30
  -3  -8   2    8.37    0.58
  -3  -8   2    7.33    0.54
  -2  -8   2   -0.11    0.25
  -2  -8   2    0.24    0.23
  -1  -8   2   11.87    0.62
  -1  -8   2   11.90    0.67
   0  -8   2   11.14    0.59
   0  -8   2   11.21    0.68
  -1   8  -2   16.32    0.71
   1  -8   2   15.52    0.80
  -2   8  -2    6.60    0.43
   2  -8   2    7.14    0.53
  -3   8  -2    5.24    0.42
   3  -8   2    5.61    0.51
  -4   8  -2    2.18    0.34
   4  -8   2    2.65    0.40
  -5   8  -2    0.42    0.31
  -6   8  -2    0.87    0.41
  -7  -7   2    0.25    0.40
  -6  -7   2    2.37    0.49
  -5  -7   2    0.46    0.31
  -4  -7   2    5.49    0.48
  -3  -7   2    3.47    0.39
  -3  -7   2    3.34    0.37
  -2  -7   2   14.85    0.71
  -2  -7   2   14.44    0.72
  -1  -7   2   15.31    0.75
  -1  -7   2   16.49    0.71
   0  -7   2   18.28    0.76
   0  -7   2   17.65    0.82
  -2   7  -2    9.13    0.49
   2  -7   2    8.56    0.54
  -3   7  -2    5.28    0.42
   3  -7   2    4.54    0.43
  -4   7  -2    2.63    0.37
   4  -7   2    2.17    0.37
  -5   7  -2    2.85    0.43
  -6   7  -2    0.10    0.37
  -7   7  -2   -0.31    0.36
  -7  -6   2    0.28    0.43
  -6  -6   2    0.26    0.32
  -5  -6   2    5.85    0.50
  -4  -6   2    4.61    0.42
  -3  -6   2   10.12    0.56
  -3  -6   2   10.00    0.56
  -2  -6   2   -0.05    0.18
  -2  -6   2    0.20    0.19
  -1  -6   2   50.64    1.81
  -1  -6   2   50.65    1.85
   0  -6   2    6.68    0.39
   0  -6   2    6.04    0.42
  -1   6  -2    0.89    0.17
  -2   6  -2   23.39    0.92
   2  -6   2   23.62    0.83
   2  -6   2   22.76    0.98
  -3   6  -2    1.02    0.22
   3  -6   2    1.28    0.28
   3  -6   2    1.19    0.16
  -4   6  -2    2.73    0.33
   4  -6   2    2.87    0.35
   4  -6   2    3.86    0.29
  -5   6  -2    0.25    0.28
   5  -6   2    0.53    0.21
  -6   6  -2   -0.20    0.34
   6  -6   2    0.07    0.24
  -7   6  -2    0.33    0.38
   7  -6   2    0.50    0.32
  -7  -5   2    0.77    0.39
  -6  -5   2    3.29    0.45
  -5  -5   2    0.41    0.27
  -4  -5   2    0.68    0.25
  -3  -5   2   12.70    0.60
  -3  -5   2   12.09    0.59
  -2  -5   2    6.57    0.39
  -2  -5   2    6.77    0.41
  -1  -5   2   41.66    1.50
  -1  -5   2   42.13    1.53
   0  -5   2    0.68    0.19
   0  -5   2    0.32    0.14
  -1   5  -2   16.98    0.67
   1  -5   2   16.62    0.73
  -2   5  -2   35.41    1.29
   2  -5   2   35.96    1.22
   2  -5   2   34.88    1.34
  -3   5  -2   18.18    0.76
   3  -5   2   17.14    0.79
   3  -5   2   17.78    0.69
  -4   5  -2   31.09    1.22
   4  -5   2   30.08    1.22
   4  -5   2   30.42    1.14
  -5   5  -2    5.62    0.48
   5  -5   2    5.74    0.41
  -6   5  -2   -0.22    0.28
   6  -5   2    0.71    0.26
  -7   5  -2    0.22    0.40
   7  -5   2    0.13    0.31
  -8   5  -2    0.75    0.40
  -8  -4   2    0.14    0.40
  -7  -4   2    0.25    0.36
   6   4  -2    0.81    0.28
  -6  -4   2    0.54    0.32
   5   4  -2    1.88    0.27
  -5  -4   2    1.48    0.31
  -4  -4   2    2.43    0.20
   3   4  -2    4.21    0.26
  -3  -4   2    4.65    0.30
  -3  -4   2    3.02    0.29
   2   4  -2   -0.02    0.07
  -2  -4   2    0.22    0.14
  -2  -4   2    0.22    0.13
  -1  -4   2   59.60    2.04
  -1  -4   2   59.58    2.06
  -1  -4   2   57.71    1.95
   0  -4   2  118.36    4.03
   0  -4   2  122.21    4.07
  -1   4  -2   87.43    2.93
   1  -4   2   86.19    2.98
  -2   4  -2   63.21    2.25
   2  -4   2   67.73    2.21
   2  -4   2   65.51    2.30
  -3   4  -2    1.13    0.21
   3  -4   2    1.04    0.15
   3  -4   2    0.88    0.19
  -4   4  -2    9.86    0.54
   4  -4   2    9.82    0.47
  -5   4  -2    4.56    0.44
   5  -4   2    3.57    0.33
  -6   4  -2    5.07    0.49
   6  -4   2    4.33    0.38
  -7   4  -2    0.12    0.35
   7  -4   2    0.02    0.26
  -8   4  -2    0.41    0.39
   8  -4   2    0.28    0.32
  -8  -3   2   -0.10    0.38
   7   3  -2    0.13    0.26
  -7  -3   2    0.39    0.35
   6   3  -2    1.75    0.29
  -6  -3   2    2.04    0.37
   5   3  -2    2.38    0.28
  -5  -3   2    2.20    0.33
   4   3  -2    5.57    0.33
  -4  -3   2    5.30    0.28
   3   3  -2   24.70    0.91
  -3  -3   2   25.01    0.91
   2   3  -2   22.65    0.84
  -2  -3   2   25.33    0.90
   1   3  -2  152.54    5.20
  -1  -3   2  165.17    5.26
  -1  -3   2  156.48    5.19
   0  -3   2    4.95    0.27
  -1   3  -2    4.79    0.25
  -1   3  -2    5.44    0.20
   1  -3   2    5.83    0.31
  -2   3  -2    2.34    0.20
   2  -3   2    1.97    0.21
   2  -3   2    2.09    0.16
  -3   3  -2   42.57    1.52
   3  -3   2   42.01    1.48
   3  -3   2   42.53    1.53
  -4   3  -2    0.09    0.20
   4  -3   2    0.04    0.14
  -5   3  -2    0.76    0.27
   5  -3   2    0.54    0.19
  -6   3  -2    0.17    0.30
   6  -3   2    0.10    0.23
  -7   3  -2    0.48    0.38
   7  -3   2    0.20    0.29
  -8   3  -2   -0.13    0.42
   8  -3   2    0.05    0.31
   8   2  -2   -0.05    0.34
  -8  -2   2    0.22    0.37
   7   2  -2    0.30    0.30
  -7  -2   2    0.00    0.31
   6   2  -2    3.18    0.36
  -6  -2   2    2.86    0.38
   5   2  -2    4.02    0.34
  -5  -2   2    3.58    0.37
   4   2  -2   13.47    0.58
  -4  -2   2   12.56    0.61
   3   2  -2    0.10    0.10
  -3  -2   2   -0.02    0.14
  -3  -2   2    0.15    0.08
   2   2  -2  103.96    3.35
  -2  -2   2   97.44    3.36
   1   2  -2   60.55    2.01
  -1  -2   2   60.47    2.06
   0   2  -2   12.00    0.39
   0  -2   2   11.45    0.48
   0  -2   2   11.28    0.45
  -1   2  -2   88.76    2.99
  -1   2  -2   88.69    2.95
   1  -2   2   91.26    3.03
  -2   2  -2   61.20    2.17
   2  -2   2   66.94    2.15
   2  -2   2   62.48    2.19
  -3   2  -2   15.43    0.66
   3  -2   2   16.70    0.63
  -4   2  -2    7.97    0.46
   4  -2   2    8.13    0.40
  -5   2  -2    2.64    0.33
   5  -2   2    2.73    0.29
  -6   2  -2    0.54    0.30
   6  -2   2    1.37    0.26
  -7   2  -2    3.54    0.48
   7  -2   2    2.40    0.37
  -8   2  -2    0.72    0.43
   8   1  -2    0.65    0.36
  -8  -1   2    0.29    0.36
   7   1  -2    1.41    0.32
  -7  -1   2    1.46    0.37
   6   1  -2    1.22    0.26
  -6  -1   2    1.23    0.31
   5   1  -2    5.46    0.39
  -5  -1   2    6.62    0.44
   4   1  -2    4.99    0.31
  -4  -1   2    4.56    0.34
   3   1  -2   25.79    0.96
   3   1  -2   27.56    0.90
  -3  -1   2   26.72    1.01
   2   1  -2   40.38    1.38
   2   1  -2   40.46    1.36
   1   1  -2  206.74    6.87
   1   1  -2  209.93    6.89
  -1  -1   2  214.97    6.90
  -1  -1   2  204.65    6.90
   0  -1   2   52.74    1.79
  -1   1  -2   19.89    0.75
  -1   1  -2   22.63    0.73
  -3   1  -2   34.65    1.26
   3  -1   2   34.30    1.22
  -4   1  -2   29.42    1.15
   4  -1   2   30.75    1.12
  -5   1  -2   28.58    1.13
   5  -1   2   27.07    1.08
  -6   1  -2    0.53    0.29
   6  -1   2    0.12    0.21
  -7   1  -2    0.12    0.31
   7  -1   2   -0.07    0.25
  -8   1  -2    1.02    0.40
   8   0  -2    0.21    0.31
  -8   0   2    0.27    0.39
   7   0  -2    0.16    0.27
  -7   0   2    0.64    0.31
   6   0  -2    0.72    0.27
  -6   0   2    0.91    0.28
   5   0  -2   12.01    0.57
  -5   0   2   11.68    0.62
   4   0  -2   33.24    1.22
  -4   0   2   33.59    1.25
   3   0  -2   36.86    1.29
  -3   0   2   36.61    1.31
   2   0  -2    8.75    0.32
   2   0  -2    9.28    0.36
   1   0  -2  107.10    3.58
  -1   0   2  109.44    3.60
   0   0   2   24.36    0.83
  -1   0  -2  150.50    4.97
  -2   0  -2    0.00    0.02
  -3   0  -2   25.07    0.95
   3   0   2   25.46    0.93
  -4   0  -2    1.51    0.23
   4   0   2    1.93    0.20
  -5   0  -2    5.96    0.43
  -5   0  -2    4.83    0.28
   5   0   2    5.88    0.37
  -6   0  -2    1.12    0.30
   6   0   2    0.41    0.22
  -7   0  -2    0.41    0.32
   7   0   2    0.20    0.25
  -8   0  -2    1.24    0.39
  -9   0  -2    0.02    0.39
   8  -1  -2    0.36    0.33
  -8   1   2    0.42    0.35
   7  -1  -2    3.61    0.41
  -7   1   2    4.60    0.47
   6  -1  -2    1.10    0.26
  -6   1   2    0.69    0.27
   5  -1  -2    6.99    0.42
  -5   1   2    7.23    0.45
   4  -1  -2    6.18    0.34
  -4   1   2    5.92    0.38
   3  -1  -2    3.84    0.23
  -3   1   2    3.79    0.26
   2  -1  -2  101.00    3.69
   2  -1  -2  117.35    3.73
  -2   1   2  118.98    3.74
   1  -1  -2  507.79   17.04
   1  -1  -2  526.02   17.08
  -1   1   2  520.70   16.99
   0  -1  -2    1.00    0.12
   0   1   2    0.39    0.09
  -1  -1  -2  595.51   19.67
  -2  -1  -2  231.54    7.59
  -2  -1  -2  228.22    7.57
  -3  -1  -2    0.17    0.08
  -3  -1  -2    0.07    0.10
  -4  -1  -2   14.18    0.62
  -6  -1  -2    0.04    0.26
   6   1   2    0.34    0.21
  -7  -1  -2    0.87    0.32
  -8  -1  -2    1.09    0.38
  -9  -1  -2    0.23    0.40
   8  -2  -2   -0.20    0.30
  -8   2   2    0.76    0.41
   7  -2  -2    0.07    0.26
  -7   2   2    0.58    0.31
   6  -2  -2    7.91    0.50
  -6   2   2    8.03    0.56
   5  -2  -2    1.23    0.21
  -5   2   2    1.09    0.23
   3  -2  -2    0.05    0.04
   3  -2  -2    0.00    0.06
  -3   2   2    0.04    0.06
  -3   2   2    0.01    0.11
   2  -2  -2   69.31    2.29
  -2   2   2   67.15    2.31
  -2   2   2   69.22    2.28
   1  -2  -2  411.54   13.91
   1  -2  -2  424.16   13.99
  -1   2   2  430.49   13.94
  -1   2   2  430.51   13.96
   0  -2  -2    0.58    0.09
   0   2   2    0.80    0.09
  -1  -2  -2   70.01    2.38
   1   2   2   72.40    2.38
  -2  -2  -2  100.40    3.32
  -2  -2  -2   99.19    3.34
  -3  -2  -2   85.64    2.87
  -3  -2  -2   86.01    2.92
  -4  -2  -2   58.19    2.05
  -4  -2  -2   57.76    1.97
  -6  -2  -2    4.60    0.42
  -7  -2  -2    1.28    0.33
  -8  -2  -2    0.46    0.35
  -9  -2  -2    0.08    0.40
   8  -3  -2    0.70    0.39
  -8   3   2   -0.05    0.37
   7  -3  -2    0.45    0.28
  -7   3   2   -0.02    0.28
   6  -3  -2    1.45    0.28
  -6   3   2    0.78    0.29
   5  -3  -2   13.39    0.61
  -5   3   2   12.12    0.63
   4  -3  -2   11.78    0.45
   4  -3  -2   11.66    0.52
  -4   3   2   11.03    0.53
   3  -3  -2   25.81    0.93
   3  -3  -2   26.05    0.96
  -3   3   2   27.28    0.97
   2  -3  -2    0.41    0.10
   2  -3  -2    0.51    0.09
  -2   3   2    0.42    0.10
   1  -3  -2  108.77    3.58
   1  -3  -2  109.02    3.56
  -1   3   2  104.12    3.54
   0  -3  -2    1.78    0.16
   0  -3  -2    1.56    0.07
   0   3   2    1.62    0.08
  -1  -3  -2   45.20    1.57
  -1  -3  -2   46.62    1.55
  -2  -3  -2   55.96    1.92
  -2  -3  -2   56.97    1.92
  -3  -3  -2    3.51    0.22
  -3  -3  -2    3.27    0.26
  -4  -3  -2    1.12    0.15
  -4  -3  -2    1.46    0.21
  -5  -3  -2    2.76    0.24
  -6  -3  -2    5.43    0.48
  -7  -3  -2    1.94    0.37
  -8  -3  -2    0.58    0.36
  -8   4   2   -0.07    0.37
   7  -4  -2    3.96    0.46
  -7   4   2    4.24    0.47
   6  -4  -2    1.58    0.29
  -6   4   2    1.62    0.32
   5  -4  -2    1.15    0.23
  -5   4   2    1.19    0.26
   4  -4  -2    7.98    0.38
   4  -4  -2    8.26    0.42
  -4   4   2    8.69    0.45
   3  -4  -2   10.63    0.46
   3  -4  -2   10.68    0.45
  -3   4   2   10.52    0.48
   2  -4  -2   57.79    1.98
   2  -4  -2   58.63    1.96
  -2   4   2   56.99    1.96
   1  -4  -2  111.96    3.72
  -1   4   2  109.84    3.66
   0  -4  -2   65.75    2.18
   0  -4  -2   61.95    2.11
  -1  -4  -2   93.52    3.11
  -2  -4  -2   57.05    1.95
  -3  -4  -2   25.53    0.96
  -4  -4  -2   28.94    1.11
  -5  -4  -2   -0.02    0.05
  -5  -4  -2    0.29    0.21
  -6  -4  -2    6.33    0.52
  -7  -4  -2   -0.05    0.28
  -8  -4  -2    0.28    0.39
   7  -5  -2    0.29    0.32
  -7   5   2    0.15    0.28
   6  -5  -2    2.49    0.33
  -6   5   2    2.55    0.37
   5  -5  -2    0.23    0.19
  -5   5   2    0.09    0.22
   4  -5  -2   13.14    0.57
   4  -5  -2   13.52    0.58
  -4   5   2   12.72    0.61
   3  -5  -2   17.07    0.68
   3  -5  -2   17.38    0.71
  -3   5   2   17.76    0.69
   2  -5  -2   28.00    0.97
   2  -5  -2   26.59    1.02
  -2   5   2   27.16    0.97
   1  -5  -2   20.45    0.80
  -1   5   2   21.06    0.73
   0  -5  -2    0.48    0.15
   0  -5  -2    0.78    0.08
  -1  -5  -2  224.55    7.49
  -1  -5  -2  226.63    7.44
  -2  -5  -2   13.34    0.57
  -2  -5  -2   12.98    0.53
  -3  -5  -2   73.25    2.55
  -3  -5  -2   74.71    2.55
  -4  -5  -2   24.09    0.94
  -4  -5  -2   24.79    0.97
  -5  -5  -2    2.37    0.33
  -6  -5  -2    0.01    0.25
  -7  -5  -2    1.52    0.40
  -8  -5  -2    0.63    0.38
   7  -6  -2    0.32    0.30
   6  -6  -2    2.84    0.35
  -6   6   2    2.88    0.39
   5  -6  -2    2.99    0.32
  -5   6   2    3.23    0.36
   4  -6  -2    1.89    0.25
   4  -6  -2    1.91    0.24
  -4   6   2    1.55    0.26
   3  -6  -2    6.37    0.33
   3  -6  -2    5.48    0.38
  -3   6   2    5.86    0.36
   2  -6  -2    5.85    0.29
   2  -6  -2    5.68    0.37
  -2   6   2    5.97    0.30
   1  -6  -2  120.35    4.07
  -1   6   2  120.11    3.99
   0  -6  -2   13.51    0.60
   0  -6  -2   13.56    0.51
  -1  -6  -2   50.66    1.76
  -1  -6  -2   51.93    1.83
  -2  -6  -2    0.35    0.14
  -2  -6  -2    0.67    0.19
  -3  -6  -2    0.01    0.17
  -3  -6  -2    0.17    0.15
  -4  -6  -2    1.30    0.24
  -4  -6  -2    1.14    0.23
  -5  -6  -2    0.09    0.24
  -6  -6  -2   -0.13    0.27
  -7  -6  -2    0.32    0.33
  -8  -6  -2    0.24    0.39
   7  -7  -2   -0.36    0.32
   6  -7  -2    0.24    0.25
   5  -7  -2    1.03    0.24
  -5   7   2    1.57    0.34
   4  -7  -2   17.87    0.80
   4  -7  -2   17.96    0.74
  -4   7   2   18.07    0.79
   3  -7  -2    0.14    0.20
   3  -7  -2    0.22    0.14
  -3   7   2    0.14    0.18
   2  -7  -2   56.69    1.92
   2  -7  -2   55.63    2.02
   1  -7  -2   14.69    0.55
   1  -7  -2   14.02    0.66
  -1   7   2   14.61    0.55
   0  -7  -2    2.03    0.17
   0  -7  -2    1.20    0.20
  -1  -7  -2   26.81    0.96
  -1  -7  -2   25.74    1.05
  -2  -7  -2   22.61    0.89
  -2  -7  -2   24.87    0.97
  -3  -7  -2    9.36    0.53
  -3  -7  -2    9.22    0.49
  -4  -7  -2    1.03    0.25
  -4  -7  -2    0.61    0.23
  -5  -7  -2    0.34    0.29
  -6  -7  -2    3.36    0.42
  -7  -7  -2    0.38    0.35
  -8  -7  -2    0.81    0.43
   7  -8  -2    0.68    0.36
   6  -8  -2    0.83    0.31
   5  -8  -2    2.04    0.30
   4  -8  -2    1.17    0.28
   4  -8  -2    0.94    0.20
   3  -8  -2    0.30    0.24
   3  -8  -2    0.18    0.14
  -3   8   2    0.53    0.20
   2  -8  -2   12.31    0.52
   2  -8  -2   12.91    0.64
  -2   8   2   12.77    0.54
   1  -8  -2    8.46    0.36
   1  -8  -2    7.75    0.49
  -1   8   2    8.55    0.39
  -1  -8  -2   44.54    1.66
  -1  -8  -2   44.08    1.56
  -2  -8  -2    7.95    0.42
  -2  -8  -2    7.87    0.49
  -3  -8  -2   23.03    0.90
  -3  -8  -2   21.60    0.96
  -4  -8  -2   11.64    0.63
  -4  -8  -2   11.71    0.64
  -5  -8  -2    4.07    0.44
  -6  -8  -2    0.97    0.37
  -7  -8  -2    0.41    0.38
   6  -9  -2    0.15    0.28
   5  -9  -2    0.21    0.24
   4  -9  -2    4.03    0.33
   4  -9  -2    3.63    0.41
   3  -9  -2    4.15    0.42
   3  -9  -2    3.91    0.30
   2  -9  -2    0.30    0.13
   2  -9  -2    0.22    0.24
   1  -9  -2   18.76    0.70
   1  -9  -2   18.32    0.86
  -1   9   2   18.63    0.73
   0  -9  -2    4.04    0.29
   0   9   2    4.00    0.28
  -1  -9  -2    5.28    0.34
  -1  -9  -2    5.54    0.45
  -2  -9  -2    8.18    0.54
  -2  -9  -2    7.77    0.45
  -3  -9  -2    2.25    0.36
  -3  -9  -2    2.08    0.29
  -4  -9  -2    3.11    0.37
  -4  -9  -2    2.99    0.34
  -5  -9  -2   -0.14    0.26
  -6  -9  -2    0.86    0.40
  -7  -9  -2    0.34    0.38
   4 -10  -2    2.30    0.37
   3 -10  -2    0.75    0.29
   2 -10  -2    6.79    0.57
   1 -10  -2   16.14    0.83
   0 -10  -2    1.70    0.34
   0  10   2    1.85    0.23
  -1 -10  -2   16.27    0.85
  -1 -10  -2   16.27    0.70
  -2 -10  -2    1.38    0.32
  -2 -10  -2    1.57    0.26
  -3 -10  -2    3.11    0.33
  -3 -10  -2    3.21    0.42
  -4 -10  -2    1.05    0.28
  -4 -10  -2    0.79    0.30
  -5 -10  -2   -0.11    0.31
  -6 -10  -2    0.01    0.31
   4 -11  -2    0.39    0.34
   3 -11  -2    0.65    0.32
   2 -11  -2    9.19    0.65
   1 -11  -2    2.57    0.41
   0 -11  -2    8.28    0.62
  -1 -11  -2   15.67    0.72
  -1 -11  -2   14.27    0.83
  -2 -11  -2   -0.06    0.31
  -2 -11  -2    0.12    0.23
  -3 -11  -2    7.55    0.53
  -3 -11  -2    7.94    0.66
  -4 -11  -2    4.07    0.44
  -4 -11  -2    3.40    0.48
  -5 -11  -2    0.75    0.36
  -6 -11  -2    0.42    0.40
   4 -12  -2    3.01    0.52
   3 -12  -2    0.29    0.36
   2 -12  -2    3.54    0.52
   1 -12  -2    1.85    0.41
   0 -12  -2    2.87    0.45
  -1 -12  -2    5.92    0.59
  -2 -12  -2    0.62    0.35
  -3 -12  -2    3.12    0.48
  -3 -12  -2    2.31    0.36
  -4 -12  -2    0.51    0.35
  -4 -12  -2   -0.06    0.28
  -5 -12  -2    0.65    0.37
   3 -13  -2    0.35    0.46
   2 -13  -2    3.25    0.51
   1 -13  -2    1.75    0.48
   0 -13  -2    1.65    0.44
  -1 -13  -2    7.12    0.69
  -2 -13  -2    0.17    0.36
  -3 -13  -2    1.11    0.43
  -4 -13  -2    2.20    0.54
   1  12  -3    0.63    0.34
   0  12  -3    0.69    0.38
  -3 -11   3   -0.12    0.34
  -2 -11   3    2.32    0.47
  -2 -11   3    1.64    0.41
  -1 -11   3    2.19    0.44
  -1 -11   3    2.41    0.51
   0  11  -3    0.71    0.35
   0 -11   3   -0.19    0.34
  -1  11  -3    2.61    0.44
   1 -11   3    2.88    0.54
  -2  11  -3    2.43    0.40
   2 -11   3    3.39    0.55
  -4 -10   3    1.80    0.47
  -3 -10   3    0.97    0.41
  -3 -10   3    0.66    0.37
  -2 -10   3   -0.21    0.29
  -2 -10   3    0.00    0.36
  -1 -10   3    3.69    0.49
  -1 -10   3    3.51    0.44
   0  10  -3    1.48    0.31
   0 -10   3    0.73    0.36
  -1  10  -3    3.45    0.44
   1 -10   3    3.77    0.52
  -2  10  -3    4.05    0.43
   2 -10   3    4.69    0.57
  -3  10  -3    0.36    0.33
   3 -10   3    0.55    0.38
  -4  10  -3    0.14    0.35
   4 -10   3    0.81    0.42
  -5  -9   3    0.73    0.44
  -4  -9   3    0.39    0.34
  -3  -9   3    1.44    0.41
  -3  -9   3    1.74    0.38
  -2  -9   3    2.27    0.43
  -2  -9   3    1.80    0.38
  -1  -9   3   10.35    0.64
  -1  -9   3   10.80    0.70
   0   9  -3    1.19    0.28
   0  -9   3    0.89    0.34
  -1   9  -3    2.47    0.34
   1  -9   3    2.73    0.42
  -2   9  -3    9.63    0.60
   2  -9   3    8.57    0.66
  -3   9  -3    0.19    0.30
   3  -9   3    0.78    0.38
  -4   9  -3    0.50    0.35
   4  -9   3    1.11    0.38
  -5   9  -3    0.23    0.39
  -6  -8   3    0.05    0.40
  -5  -8   3    0.54    0.37
  -4  -8   3    2.55    0.42
  -3  -8   3    0.19    0.28
  -3  -8   3    0.09    0.24
  -2  -8   3    2.33    0.37
  -2  -8   3    2.39    0.38
  -1  -8   3   15.30    0.81
  -1  -8   3   15.90    0.76
   0  -8   3    0.33    0.26
   0  -8   3   -0.03    0.21
  -1   8  -3    1.93    0.30
   1  -8   3    2.06    0.36
  -2   8  -3    9.62    0.55
   2  -8   3    9.77    0.68
  -3   8  -3    0.21    0.24
   3  -8   3    0.12    0.28
  -4   8  -3    6.82    0.54
   4  -8   3    7.48    0.64
  -5   8  -3    2.29    0.44
  -6   8  -3   -0.23    0.41
  -6  -7   3   -0.37    0.34
  -5  -7   3    0.47    0.34
  -4  -7   3    2.58    0.39
  -3  -7   3   -0.18    0.27
  -3  -7   3    0.26    0.24
  -2  -7   3    0.30    0.27
  -2  -7   3    0.22    0.26
  -1  -7   3    0.09    0.22
  -1  -7   3    0.27    0.21
   0  -7   3    6.66    0.45
   0  -7   3    5.96    0.48
  -1   7  -3   12.79    0.61
   1  -7   3   13.53    0.71
  -2   7  -3   19.94    0.85
   2  -7   3   19.49    0.92
  -3   7  -3    0.90    0.27
   3  -7   3    0.54    0.28
  -4   7  -3    3.36    0.41
   4  -7   3    3.78    0.44
  -5   7  -3    1.33    0.35
  -6   7  -3    0.43    0.40
  -7   7  -3    0.60    0.46
  -7  -6   3    0.23    0.40
  -6  -6   3    0.36    0.40
  -5  -6   3    0.99    0.33
  -4  -6   3    1.35    0.32
  -3  -6   3    7.71    0.51
  -3  -6   3    7.80    0.50
  -2  -6   3   30.87    1.25
  -2  -6   3   31.18    1.22
  -1  -6   3   26.68    1.09
  -1  -6   3   25.84    1.04
   0  -6   3    2.41    0.28
   0  -6   3    1.90    0.28
  -2   6  -3    7.64    0.44
   2  -6   3    7.77    0.50
  -3   6  -3    8.77    0.52
   3  -6   3    8.15    0.54
  -4   6  -3    1.57    0.29
  -5   6  -3    0.40    0.30
  -6   6  -3    1.93    0.45
  -7   6  -3    0.26    0.38
  -7  -5   3    0.37    0.38
  -6  -5   3    0.34    0.33
  -5  -5   3    0.16    0.27
   4   5  -3   12.96    0.59
  -4  -5   3   13.03    0.68
  -3  -5   3    2.49    0.29
  -3  -5   3    1.89    0.28
  -2  -5   3   35.55    1.36
  -2  -5   3   36.16    1.35
  -1  -5   3   51.74    1.82
  -1  -5   3   47.40    1.77
   0  -5   3    0.52    0.18
   0  -5   3    0.34    0.18
  -2   5  -3   38.01    1.41
   2  -5   3   39.12    1.47
  -3   5  -3   31.23    1.19
   3  -5   3   29.63    1.22
  -4   5  -3   19.61    0.88
   4  -5   3   20.34    0.80
  -5   5  -3   -0.15    0.26
   5  -5   3   -0.29    0.17
  -6   5  -3   -0.23    0.30
  -7   5  -3    0.93    0.44
  -8   5  -3    1.07    0.50
   7   4  -3    0.48    0.31
  -7  -4   3    0.68    0.40
   6   4  -3    2.04    0.33
  -6  -4   3    1.51    0.38
   5   4  -3    1.39    0.25
  -5  -4   3    1.23    0.31
   4   4  -3    3.68    0.30
  -4  -4   3    3.84    0.37
   3   4  -3    4.49    0.28
  -3  -4   3    5.17    0.34
   2   4  -3   13.25    0.52
  -2  -4   3   13.66    0.61
  -2  -4   3   14.08    0.61
  -1  -4   3   18.14    0.74
  -1  -4   3   18.18    0.75
   0  -4   3   14.12    0.63
   0  -4   3   14.32    0.59
  -1   4  -3   48.29    1.69
  -1   4  -3   48.60    1.60
  -2   4  -3   12.09    0.53
   2  -4   3   12.28    0.59
  -3   4  -3    0.88    0.20
   3  -4   3    0.46    0.22
  -4   4  -3   22.95    0.96
   4  -4   3   22.40    0.89
  -5   4  -3    9.95    0.62
   5  -4   3   10.61    0.53
  -6   4  -3   -0.23    0.29
   6  -4   3    0.05    0.24
  -7   4  -3   -0.58    0.37
  -8   4  -3    0.47    0.42
   7   3  -3    0.27    0.27
  -7  -3   3    0.50    0.40
   6   3  -3   -0.10    0.24
  -6  -3   3   -0.13    0.28
   5   3  -3   10.46    0.56
  -5  -3   3   10.58    0.62
   4   3  -3   10.97    0.53
  -4  -3   3   11.97    0.60
   3   3  -3    1.90    0.18
  -3  -3   3    0.83    0.15
   2   3  -3   38.90    1.33
  -2  -3   3   38.07    1.39
   1   3  -3   16.13    0.59
  -1  -3   3   17.50    0.69
  -1  -3   3   17.34    0.67
   0  -3   3   20.69    0.78
   0  -3   3   20.50    0.82
  -1   3  -3  102.36    3.38
  -1   3  -3  103.13    3.45
  -2   3  -3   66.40    2.33
   2  -3   3   69.50    2.38
  -3   3  -3    0.94    0.21
  -4   3  -3    1.15    0.27
   4  -3   3    1.04    0.17
  -5   3  -3    0.51    0.28
   5  -3   3    0.09    0.17
  -6   3  -3    4.69    0.50
   6  -3   3    4.44    0.41
  -7   3  -3    0.43    0.40
  -8   3  -3    0.38    0.44
   8   2  -3    0.55    0.35
  -8  -2   3   -0.10    0.38
   7   2  -3    2.61    0.41
  -7  -2   3    4.48    0.53
   6   2  -3    0.81    0.28
  -6  -2   3    0.94    0.32
   5   2  -3    0.66    0.22
  -5  -2   3    0.55    0.26
   4   2  -3    1.74    0.20
  -4  -2   3    2.23    0.28
   3   2  -3   14.29    0.60
  -3  -2   3   16.54    0.67
   2   2  -3   83.54    2.74
  -2  -2   3   80.24    2.79
  -1  -2   3   16.09    0.70
  -1  -2   3   21.78    0.73
  -1   2  -3   87.64    2.85
  -1   2  -3   82.07    2.81
  -2   2  -3   80.43    2.73
  -3   2  -3   33.26    1.23
  -4   2  -3   63.81    2.33
   4  -2   3   67.53    2.29
  -5   2  -3    1.09    0.32
   5  -2   3    1.47    0.23
  -6   2  -3    4.14    0.46
   6  -2   3    4.50    0.39
  -7   2  -3    0.52    0.36
  -8   2  -3    0.22    0.38
   8   1  -3    0.57    0.38
  -8  -1   3    0.56    0.38
   7   1  -3    0.74    0.32
  -7  -1   3    0.75    0.34
   6   1  -3    0.45    0.23
  -6  -1   3    0.31    0.30
   5   1  -3    0.23    0.20
  -5  -1   3   -0.14    0.21
   4   1  -3    1.10    0.19
  -4  -1   3    1.18    0.22
   3   1  -3    2.87    0.17
   3   1  -3    3.20    0.22
  -3  -1   3    3.38    0.26
   2   1  -3   25.91    0.93
  -2  -1   3   27.18    0.98
   0  -1   3    0.13    0.07
  -2   1  -3    0.19    0.09
  -3   1  -3    4.31    0.30
  -4   1  -3   22.19    0.91
  -5   1  -3    2.80    0.34
  -6   1  -3    2.08    0.37
  -7   1  -3    0.64    0.38
  -8   1  -3    0.37    0.36
   8   0  -3    0.02    0.33
  -8   0   3    0.10    0.40
   7   0  -3    1.13    0.32
  -7   0   3    1.51    0.40
   6   0  -3    0.85    0.26
  -6   0   3    1.15    0.31
   5   0  -3   25.77    1.04
  -5   0   3   26.93    1.08
   4   0  -3   17.49    0.70
  -4   0   3   16.62    0.73
   3   0  -3    0.71    0.07
   3   0  -3    0.64    0.13
   3   0  -3    0.69    0.06
  -3   0   3    0.72    0.15
   2   0  -3   43.14    1.42
   2   0  -3   41.11    1.41
  -2   0   3   40.11    1.44
   1   0  -3   64.02    2.17
  -1   0   3   66.48    2.20
   0   0   3   15.25    0.55
  -1   0  -3    1.80    0.14
  -2   0  -3    9.25    0.40
  -4   0  -3    0.49    0.20
  -5   0  -3    7.82    0.50
  -6   0  -3   -0.24    0.29
  -7   0  -3    0.38    0.36
  -8   0  -3    0.32    0.37
  -9   0  -3   -0.01    0.44
   8  -1  -3    1.43    0.48
  -8   1   3    1.80    0.43
   7  -1  -3    0.03    0.28
  -7   1   3    0.11    0.33
   6  -1  -3    0.84    0.26
  -6   1   3    0.97    0.28
   5  -1  -3    2.85    0.29
  -5   1   3    3.03    0.34
   4  -1  -3   10.65    0.51
  -4   1   3   10.57    0.51
   3  -1  -3   29.12    1.00
   3  -1  -3   29.62    1.08
  -3   1   3   32.00    1.10
   2  -1  -3  169.66    5.46
   2  -1  -3  170.87    5.49
  -2   1   3  156.66    5.49
   1  -1  -3    0.28    0.07
   1  -1  -3    0.32    0.06
  -1   1   3    0.43    0.08
  -1  -1  -3  227.90    7.50
  -2  -1  -3    1.12    0.14
  -3  -1  -3   13.12    0.56
  -5  -1  -3    2.07    0.19
  -6  -1  -3    6.81    0.52
  -7  -1  -3   -0.01    0.30
  -8  -1  -3    0.14    0.35
  -9  -1  -3    0.25    0.39
  -8   2   3    1.84    0.47
   7  -2  -3   -0.20    0.26
  -7   2   3    0.01    0.32
   6  -2  -3   -0.10    0.22
  -6   2   3    0.21    0.27
   5  -2  -3    0.34    0.20
  -5   2   3    0.01    0.19
  -4   2   3    0.74    0.19
   3  -2  -3    6.06    0.26
   3  -2  -3    6.26    0.33
  -3   2   3    7.00    0.33
   2  -2  -3   42.66    1.39
   2  -2  -3   40.31    1.41
  -2   2   3   41.65    1.41
  -2   2   3   38.91    1.38
   1  -2  -3  102.67    3.33
  -1   2   3  105.27    3.32
  -1   2   3   92.99    3.33
   0  -2  -3  265.55    8.60
   0  -2  -3  257.15    8.60
  -1  -2  -3  649.97   20.91
  -1  -2  -3  617.81   20.92
  -2  -2  -3   26.50    0.95
  -2  -2  -3   26.46    0.94
  -3  -2  -3   15.39    0.63
  -3  -2  -3   15.55    0.59
  -4  -2  -3   38.00    1.40
  -5  -2  -3    0.12    0.06
  -5  -2  -3   -0.07    0.06
  -6  -2  -3    0.55    0.28
  -7  -2  -3   -0.11    0.29
  -8  -2  -3    0.03    0.33
  -9  -2  -3    0.07    0.39
  -8   3   3    0.28    0.38
   7  -3  -3    0.95    0.35
  -7   3   3    1.66    0.37
   6  -3  -3    2.12    0.31
  -6   3   3    2.34    0.35
   5  -3  -3    7.20    0.43
  -5   3   3    6.00    0.44
   4  -3  -3    6.06    0.26
  -4   3   3    5.79    0.37
   3  -3  -3   16.90    0.64
   3  -3  -3   15.91    0.60
  -3   3   3   16.52    0.64
   2  -3  -3   40.70    1.42
   2  -3  -3   41.02    1.43
  -2   3   3   42.35    1.42
   1  -3  -3   99.08    3.37
  -1   3   3  102.95    3.33
   0  -3  -3    0.42    0.03
   0  -3  -3    0.36    0.03
   0  -3  -3    0.53    0.10
  -1  -3  -3    1.52    0.15
  -1  -3  -3    1.49    0.12
  -2  -3  -3    2.24    0.17
  -2  -3  -3    2.18    0.17
  -3  -3  -3    1.46    0.14
  -4  -3  -3    4.97    0.34
  -5  -3  -3    1.48    0.26
  -5  -3  -3    0.85    0.16
  -6  -3  -3   13.77    0.71
  -7  -3  -3    0.20    0.27
  -8  -3  -3   -0.20    0.36
  -9  -3  -3    1.10    0.49
   7  -4  -3    0.82    0.34
  -7   4   3    0.01    0.27
   6  -4  -3   -0.09    0.26
  -6   4   3   -0.08    0.24
   5  -4  -3    5.14    0.40
  -5   4   3    4.95    0.40
   4  -4  -3    2.49    0.24
   4  -4  -3    3.20    0.22
  -4   4   3    2.61    0.25
   3  -4  -3   27.06    0.97
   3  -4  -3   28.61    0.99
  -3   4   3   24.76    0.97
   2  -4  -3  109.92    3.65
   2  -4  -3  109.04    3.67
  -2   4   3  109.01    3.63
   1  -4  -3    1.30    0.17
  -1   4   3    1.40    0.09
   0  -4  -3   20.10    0.76
  -2  -4  -3   40.76    1.41
  -3  -4  -3  118.41    4.25
  -3  -4  -3  135.51    4.27
  -4  -4  -3   27.20    1.04
  -4  -4  -3   26.92    1.00
  -5  -4  -3    2.22    0.23
  -5  -4  -3    2.22    0.29
  -6  -4  -3    0.18    0.26
  -7  -4  -3    2.02    0.38
  -8  -4  -3    0.29    0.36
   7  -5  -3   -0.09    0.28
   6  -5  -3    0.40    0.25
  -6   5   3    0.77    0.25
   5  -5  -3    4.15    0.35
  -5   5   3    4.68    0.38
   4  -5  -3    0.63    0.16
   4  -5  -3    0.25    0.16
  -4   5   3    0.63    0.20
   3  -5  -3    1.01    0.15
   3  -5  -3    1.11    0.18
  -3   5   3    0.75    0.14
   2  -5  -3   21.45    0.85
   2  -5  -3   22.63    0.81
  -2   5   3   22.08    0.79
   1  -5  -3    0.71    0.16
  -1   5   3    1.07    0.08
   0  -5  -3   83.70    2.80
   0  -5  -3   80.26    2.70
  -1  -5  -3   45.33    1.63
  -1  -5  -3   46.53    1.56
  -2  -5  -3   -0.02    0.09
  -2  -5  -3    0.11    0.14
  -3  -5  -3    0.63    0.16
  -3  -5  -3    0.85    0.18
  -4  -5  -3   20.47    0.85
  -4  -5  -3   22.01    0.87
  -5  -5  -3    2.83    0.28
  -5  -5  -3    3.00    0.33
  -6  -5  -3    0.96    0.31
  -7  -5  -3    0.27    0.31
  -8  -5  -3    0.31    0.36
   7  -6  -3    0.97    0.35
   6  -6  -3   -0.01    0.27
   5  -6  -3    3.24    0.33
  -5   6   3    3.77    0.35
   4  -6  -3   14.07    0.63
   4  -6  -3   15.00    0.63
  -4   6   3   13.49    0.62
   3  -6  -3    8.58    0.46
   3  -6  -3    9.39    0.42
  -3   6   3    8.60    0.42
   2  -6  -3   24.37    0.88
   2  -6  -3   24.11    0.93
  -2   6   3   23.40    0.86
   1  -6  -3    0.31    0.16
  -1   6   3    0.61    0.09
   0  -6  -3   25.24    0.98
   0  -6  -3   25.18    0.87
  -1  -6  -3   43.58    1.48
  -1  -6  -3   42.90    1.57
  -2  -6  -3    1.79    0.25
  -2  -6  -3    1.87    0.17
  -3  -6  -3    3.03    0.26
  -3  -6  -3    2.92    0.29
  -4  -6  -3    0.76    0.21
  -4  -6  -3    0.74    0.21
  -5  -6  -3    0.19    0.20
  -5  -6  -3    0.08    0.22
  -6  -6  -3    2.94    0.38
  -7  -6  -3    0.46    0.36
  -8  -6  -3    0.14    0.37
   7  -7  -3    0.33    0.34
   6  -7  -3    2.18    0.36
   5  -7  -3    3.14    0.34
   4  -7  -3    0.14    0.21
   4  -7  -3   -0.13    0.18
  -4   7   3    0.12    0.19
   3  -7  -3   39.41    1.46
   3  -7  -3   38.49    1.39
  -3   7   3   38.54    1.39
   2  -7  -3   67.38    2.39
   2  -7  -3   68.24    2.31
  -2   7   3   67.25    2.29
   1  -7  -3    2.04    0.26
  -1   7   3    2.12    0.15
   0  -7  -3    7.29    0.43
   0  -7  -3    7.10    0.30
  -1  -7  -3  104.35    3.50
  -1  -7  -3  105.08    3.60
  -2  -7  -3    1.55    0.27
  -2  -7  -3    1.89    0.20
  -3  -7  -3   26.91    1.02
  -3  -7  -3   26.02    1.06
  -4  -7  -3   28.89    1.13
  -4  -7  -3   28.50    1.14
  -5  -7  -3   10.19    0.56
  -5  -7  -3   10.19    0.59
  -6  -7  -3    2.25    0.40
  -7  -7  -3    0.17    0.33
  -8  -7  -3   -0.24    0.42
   7  -8  -3    0.41    0.35
   6  -8  -3    0.04    0.29
   5  -8  -3   -0.03    0.23
   4  -8  -3    2.21    0.31
   4  -8  -3    1.30    0.22
   3  -8  -3    1.84    0.30
   3  -8  -3    1.51    0.20
   2  -8  -3   11.48    0.59
   2  -8  -3   10.40    0.47
   1  -8  -3   -0.19    0.18
   1  -8  -3   -0.05    0.10
  -1   8   3   -0.05    0.09
   0  -8  -3   24.45    0.88
  -1  -8  -3   36.36    1.37
  -1  -8  -3   34.59    1.25
  -2  -8  -3    3.72    0.38
  -2  -8  -3    4.08    0.28
  -3  -8  -3   24.17    0.97
  -3  -8  -3   24.73    1.04
  -4  -8  -3    6.80    0.50
  -4  -8  -3    6.43    0.46
  -5  -8  -3    0.39    0.26
  -5  -8  -3    0.45    0.29
  -6  -8  -3    1.89    0.36
  -7  -8  -3    0.15    0.35
   6  -9  -3   -0.03    0.27
   5  -9  -3    3.48    0.38
   4  -9  -3   -0.02    0.20
   4  -9  -3    0.06    0.24
   3  -9  -3    0.07    0.16
   3  -9  -3   -0.02    0.25
   2  -9  -3    8.80    0.57
   2  -9  -3   10.61    0.45
   1  -9  -3    1.04    0.15
   1  -9  -3    1.34    0.30
  -1  -9  -3   17.71    0.71
  -1  -9  -3   18.59    0.87
  -2  -9  -3    5.82    0.48
  -2  -9  -3    6.30    0.37
  -3  -9  -3   15.67    0.71
  -3  -9  -3   16.61    0.82
  -4  -9  -3    0.69    0.29
  -4  -9  -3    0.33    0.23
  -5  -9  -3    0.47    0.31
  -6  -9  -3    0.50    0.32
  -7  -9  -3   -0.07    0.39
   6 -10  -3    0.89    0.52
   5 -10  -3    0.44    0.27
   4 -10  -3    0.69    0.30
   4 -10  -3   -0.04    0.21
   3 -10  -3   11.45    0.55
   3 -10  -3   12.48    0.69
   2 -10  -3   20.21    0.79
   2 -10  -3   20.29    0.98
   1 -10  -3    1.44    0.17
   1 -10  -3    1.08    0.30
   0 -10  -3   18.37    0.88
  -1 -10  -3    5.90    0.52
  -1 -10  -3    5.09    0.34
  -2 -10  -3    5.75    0.38
  -2 -10  -3    5.30    0.50
  -3 -10  -3    0.42    0.23
  -3 -10  -3    0.33    0.27
  -4 -10  -3    2.67    0.35
  -4 -10  -3    2.73    0.41
  -5 -10  -3    1.40    0.35
  -6 -10  -3    1.91    0.43
  -7 -10  -3    1.29    0.45
   4 -11  -3   -0.18    0.27
   3 -11  -3    7.10    0.61
   2 -11  -3    0.16    0.30
   1 -11  -3    3.66    0.45
   0 -11  -3    5.07    0.52
  -1 -11  -3    2.25    0.39
  -2 -11  -3    2.46    0.40
  -2 -11  -3    3.23    0.33
  -3 -11  -3    9.69    0.70
  -3 -11  -3    9.22    0.56
  -4 -11  -3    0.68    0.29
  -4 -11  -3    0.54    0.35
  -5 -11  -3    0.02    0.31
  -6 -11  -3   -0.13    0.35
   4 -12  -3   -0.27    0.33
   3 -12  -3    0.97    0.38
   2 -12  -3    1.53    0.38
   1 -12  -3    0.65    0.34
   0 -12  -3    8.29    0.66
  -1 -12  -3    1.31    0.38
  -2 -12  -3    0.24    0.32
  -3 -12  -3    0.97    0.36
  -4 -12  -3    0.08    0.28
  -4 -12  -3    0.80    0.39
  -5 -12  -3    0.15    0.30
   4 -13  -3    0.77    0.42
   3 -13  -3    1.47    0.41
   2 -13  -3    2.08    0.44
   1 -13  -3   -0.14    0.34
   0 -13  -3    4.72    0.57
  -1 -13  -3    1.61    0.43
  -2 -13  -3    0.70    0.39
  -3 -13  -3    4.67    0.59
  -4 -13  -3    0.18    0.35
  -1 -14  -3    1.38    0.75
  -2 -11   4    1.39    0.47
   1  11  -4    0.88    0.35
  -1 -11   4    0.78    0.38
   0  11  -4    0.85    0.39
  -1  11  -4    2.11    0.45
  -2  11  -4    0.59    0.35
  -3  11  -4    0.19    0.47
  -3 -10   4    0.04    0.40
  -2 -10   4    2.95    0.50
  -2 -10   4    2.95    0.47
  -1 -10   4    1.43    0.42
  -1 -10   4    1.94    0.40
   0  10  -4    1.34    0.38
   0 -10   4    1.40    0.45
  -1  10  -4    3.65    0.45
   1 -10   4    3.42    0.52
  -2  10  -4    0.86    0.33
   2 -10   4    0.84    0.41
  -3  10  -4    0.18    0.36
   3 -10   4    0.33    0.39
  -4  10  -4    0.63    0.41
  -4  -9   4    0.59    0.40
  -3  -9   4   -0.12    0.37
  -2  -9   4    8.79    0.72
  -2  -9   4    6.33    0.57
  -1  -9   4    4.78    0.56
  -1  -9   4    5.49    0.54
   0   9  -4    1.21    0.34
   0  -9   4    1.28    0.37
  -1   9  -4   10.25    0.66
   1  -9   4    9.75    0.72
  -2   9  -4    1.65    0.37
   2  -9   4    1.50    0.40
  -3   9  -4    1.58    0.38
   3  -9   4    2.37    0.44
  -4   9  -4    2.79    0.47
  -5   9  -4   -0.55    0.39
  -5  -8   4   -0.26    0.42
  -4  -8   4    0.33    0.35
  -3  -8   4    0.70    0.35
  -3  -8   4    1.12    0.36
  -2  -8   4    7.22    0.60
  -2  -8   4    7.61    0.63
  -1  -8   4    2.82    0.38
  -1  -8   4    2.92    0.42
   0   8  -4    2.84    0.34
   0  -8   4    3.01    0.38
   0  -8   4    3.10    0.43
  -1   8  -4   10.91    0.61
   1  -8   4   12.36    0.77
  -2   8  -4    3.45    0.41
   2  -8   4    3.61    0.49
  -3   8  -4    5.69    0.49
   3  -8   4    5.52    0.55
  -4   8  -4    2.48    0.43
  -5   8  -4   -0.04    0.36
  -6   8  -4    0.30    0.40
  -6  -7   4   -0.39    0.44
  -5  -7   4    0.13    0.40
  -4  -7   4    1.91    0.40
  -3  -7   4    0.04    0.28
  -3  -7   4   -0.36    0.25
  -2  -7   4    2.13    0.34
  -2  -7   4    1.98    0.34
  -1  -7   4    9.57    0.61
  -1  -7   4    9.51    0.56
   0  -7   4   13.90    0.75
   0  -7   4   13.97    0.71
  -1   7  -4   10.90    0.60
   1  -7   4   12.13    0.72
  -2   7  -4    0.47    0.23
   2  -7   4    0.16    0.26
  -3   7  -4    0.85    0.29
   3  -7   4    0.64    0.30
  -4   7  -4    2.08    0.36
  -5   7  -4    0.08    0.32
  -6   7  -4   -0.39    0.41
  -7   7  -4   -0.01    0.46
  -6  -6   4    0.15    0.38
  -5  -6   4    1.22    0.41
  -4  -6   4    6.58    0.54
  -3  -6   4    7.26    0.52
  -3  -6   4    6.41    0.51
  -2  -6   4   15.58    0.76
  -2  -6   4   14.02    0.75
  -1  -6   4   -0.03    0.23
  -1  -6   4    0.10    0.20
   0  -6   4   16.16    0.79
   0  -6   4   16.30    0.73
  -1   6  -4    6.44    0.40
   1  -6   4    5.37    0.44
  -2   6  -4    5.81    0.44
   2  -6   4    5.43    0.50
  -3   6  -4    9.32    0.56
   3  -6   4    8.49    0.59
  -4   6  -4    2.13    0.34
  -5   6  -4    0.08    0.30
  -6   6  -4    1.09    0.44
  -7   6  -4   -0.84    0.42
  -7  -5   4   -0.30    0.44
  -6  -5   4    0.11    0.35
  -5  -5   4    0.88    0.36
  -4  -5   4    1.39    0.34
  -3  -5   4    1.28    0.26
  -3  -5   4    1.52    0.28
  -2  -5   4   31.98    1.25
  -2  -5   4   32.30    1.28
  -1  -5   4    5.68    0.42
  -1  -5   4    5.78    0.39
   0  -5   4   39.74    1.48
   0  -5   4   40.65    1.54
  -2   5  -4    0.64    0.20
   2  -5   4    0.56    0.22
  -3   5  -4    7.40    0.48
  -4   5  -4    1.91    0.31
  -5   5  -4    0.49    0.33
  -6   5  -4    1.94    0.42
  -7   5  -4    0.30    0.45
  -7  -4   4    0.16    0.37
   6   4  -4    0.02    0.25
  -6  -4   4    0.09    0.32
   5   4  -4    0.18    0.20
  -5  -4   4    0.02    0.28
   4   4  -4    3.33    0.29
  -4  -4   4    3.05    0.36
   3   4  -4    3.90    0.26
  -3  -4   4    2.51    0.28
   2   4  -4    2.12    0.16
  -2  -4   4    2.29    0.27
   1   4  -4    1.62    0.11
  -1  -4   4    2.28    0.28
  -1  -4   4    1.64    0.22
   0  -4   4    8.79    0.50
   0  -4   4   10.12    0.47
  -1   4  -4   18.87    0.74
  -1   4  -4   18.86    0.61
   1  -4   4   16.65    0.78
  -2   4  -4    0.39    0.16
   2  -4   4    0.31    0.19
  -3   4  -4   12.72    0.60
  -4   4  -4    9.16    0.54
  -5   4  -4    0.76    0.30
  -6   4  -4   -0.05    0.31
  -7   4  -4   -0.14    0.36
  -8   4  -4    0.59    0.44
   7   3  -4    0.59    0.29
  -7  -3   4    0.73    0.39
   6   3  -4    1.38    0.31
  -6  -3   4    1.23    0.36
   5   3  -4    1.08    0.22
  -5  -3   4    0.85    0.29
   4   3  -4    5.01    0.35
  -4  -3   4    5.06    0.42
   3   3  -4    1.17    0.16
  -3  -3   4    0.75    0.18
   2   3  -4   36.43    1.26
  -2  -3   4   36.09    1.34
   1   3  -4   36.14    1.24
  -1  -3   4   37.29    1.37
   0   3  -4   68.77    2.39
   0  -3   4   75.03    2.50
   0  -3   4   74.54    2.54
  -1   3  -4   45.41    1.56
  -1   3  -4   42.86    1.47
  -2   3  -4    7.30    0.40
  -3   3  -4   14.34    0.64
  -4   3  -4    8.60    0.51
  -5   3  -4    0.80    0.30
  -6   3  -4    1.26    0.36
  -7   3  -4   -0.07    0.35
  -8   3  -4    0.34    0.42
   7   2  -4    1.23    0.34
  -7  -2   4    1.33    0.43
   6   2  -4    0.24    0.25
  -6  -2   4    0.39    0.33
   5   2  -4    1.24    0.25
  -5  -2   4    1.78    0.34
   4   2  -4    1.71    0.22
  -4  -2   4    2.57    0.32
   3   2  -4    4.78    0.28
  -3  -2   4    5.04    0.34
   2   2  -4   33.09    1.15
  -2  -2   4   32.80    1.22
   1   2  -4    7.00    0.28
  -1  -2   4    7.27    0.36
  -2   2  -4    1.08    0.17
  -3   2  -4   22.73    0.90
  -4   2  -4   12.21    0.64
  -5   2  -4    0.88    0.29
  -6   2  -4    4.14    0.47
  -7   2  -4    0.81    0.38
  -8   2  -4   -0.06    0.44
  -8  -1   4    1.14    0.47
   7   1  -4    1.50    0.36
  -7  -1   4    1.39    0.37
   6   1  -4    0.22    0.23
  -6  -1   4    0.01    0.30
   5   1  -4    0.41    0.19
  -5  -1   4    0.06    0.23
   4   1  -4    0.74    0.17
  -4  -1   4    0.54    0.23
   3   1  -4    4.77    0.29
  -3  -1   4    5.53    0.34
   2   1  -4    9.77    0.40
  -2  -1   4   10.26    0.45
   1   1  -4   16.55    0.59
  -1  -1   4   16.04    0.63
   0  -1   4   66.59    2.26
  -1   1  -4    6.53    0.31
  -3   1  -4   17.49    0.72
  -4   1  -4    2.35    0.29
  -5   1  -4    6.07    0.50
  -6   1  -4    0.51    0.31
  -7   1  -4    0.25    0.35
  -8   1  -4    0.32    0.39
  -8   0   4    1.11    0.41
   7   0  -4   -0.04    0.27
  -7   0   4    0.64    0.34
   6   0  -4    4.61    0.41
  -6   0   4    4.97    0.46
   5   0  -4   11.17    0.58
  -5   0   4   12.91    0.66
   4   0  -4    1.00    0.20
  -4   0   4    1.14    0.22
   3   0  -4    5.90    0.26
   3   0  -4    5.55    0.30
   3   0  -4    6.07    0.26
  -3   0   4    6.33    0.35
   2   0  -4  135.67    4.54
  -2   0   4  137.41    4.56
   1   0  -4   22.99    0.81
   0   0   4   65.08    2.20
  -1   0  -4   20.53    0.75
  -2   0  -4   21.24    0.80
  -3   0  -4   12.02    0.54
  -4   0  -4    0.06    0.08
  -5   0  -4   -0.02    0.12
  -6   0  -4   14.78    0.83
  -7   0  -4   -0.03    0.31
  -8   0  -4    0.13    0.37
  -9   0  -4    0.09    0.41
  -8   1   4    0.20    0.36
   7  -1  -4    0.93    0.35
  -7   1   4    0.90    0.37
   6  -1  -4    0.39    0.24
  -6   1   4    0.06    0.25
   5  -1  -4    6.61    0.43
  -5   1   4    7.34    0.46
   4  -1  -4    9.14    0.44
  -4   1   4    8.05    0.45
   3  -1  -4   41.42    1.43
   3  -1  -4   42.08    1.44
   3  -1  -4   42.97    1.49
  -3   1   4   43.53    1.52
   2  -1  -4   46.54    1.56
   2  -1  -4   45.35    1.54
  -2   1   4   44.33    1.58
  -1   1   4    6.27    0.28
   0   1   4  147.97    4.89
  -1  -1  -4    9.23    0.37
  -2  -1  -4    2.80    0.20
  -3  -1  -4  179.45    6.00
  -4  -1  -4   33.95    1.28
  -6  -1  -4    0.34    0.29
  -7  -1  -4    2.25    0.41
  -8  -1  -4    0.65    0.39
  -9  -1  -4    0.31    0.41
  -8   2   4    0.46    0.36
   7  -2  -4    1.08    0.35
  -7   2   4    0.71    0.36
   6  -2  -4   -0.13    0.22
  -6   2   4    0.32    0.29
   5  -2  -4    2.40    0.29
  -5   2   4    1.52    0.27
   4  -2  -4    0.25    0.15
  -4   2   4    0.59    0.19
   3  -2  -4    5.72    0.25
   3  -2  -4    5.71    0.30
  -3   2   4    5.55    0.31
   2  -2  -4    0.96    0.11
   2  -2  -4    1.10    0.13
  -2   2   4    0.86    0.12
   1  -2  -4   52.98    1.79
  -1   2   4   52.32    1.77
   0  -2  -4 1000.00   32.97
  -3  -2  -4    7.98    0.41
  -3  -2  -4    8.48    0.39
  -4  -2  -4    3.92    0.27
  -4  -2  -4    3.68    0.32
  -5  -2  -4    2.82    0.23
  -5  -2  -4    0.52    0.18
  -6  -2  -4   -0.12    0.26
  -7  -2  -4    0.12    0.31
  -8  -2  -4   -0.06    0.36
  -9  -2  -4    0.61    0.42
  -8   3   4    1.45    0.45
   7  -3  -4   -0.30    0.30
  -7   3   4   -0.39    0.30
   6  -3  -4    0.64    0.25
  -6   3   4    0.76    0.28
   5  -3  -4    9.28    0.52
  -5   3   4    9.96    0.54
  -4   3   4    2.43    0.24
   3  -3  -4   40.57    1.58
   3  -3  -4   48.44    1.55
  -3   3   4   46.41    1.58
   2  -3  -4  180.75    6.16
  -2   3   4  191.92    6.16
   1  -3  -4   45.48    1.60
  -1   3   4   48.03    1.57
   0  -3  -4    7.91    0.36
   0  -3  -4    8.41    0.30
  -2  -3  -4   24.05    0.87
  -3  -3  -4   42.06    1.46
  -3  -3  -4   40.65    1.48
  -4  -3  -4   -0.02    0.18
  -4  -3  -4    0.15    0.13
  -5  -3  -4   16.18    0.74
  -5  -3  -4   15.55    0.65
  -6  -3  -4    8.12    0.56
  -7  -3  -4    0.08    0.33
  -8  -3  -4    0.39    0.36
  -9  -3  -4    0.19    0.40
   7  -4  -4    0.16    0.28
  -7   4   4    0.08    0.31
   6  -4  -4    3.42    0.37
  -6   4   4    2.88    0.35
   5  -4  -4    1.90    0.26
  -5   4   4    1.83    0.26
   4  -4  -4    1.18    0.15
  -4   4   4    1.21    0.21
   3  -4  -4    8.93    0.41
   3  -4  -4    9.80    0.42
  -3   4   4    8.45    0.40
   2  -4  -4   61.41    1.98
   2  -4  -4   56.36    1.98
  -2   4   4   55.54    1.94
   1  -4  -4    0.75    0.14
  -1   4   4    0.66    0.06
   0  -4  -4  135.73    4.53
  -2  -4  -4   53.71    1.85
  -2  -4  -4   54.63    1.88
  -3  -4  -4   50.27    1.73
  -3  -4  -4   48.24    1.72
  -4  -4  -4    8.68    0.43
  -4  -4  -4    9.69    0.48
  -5  -4  -4    0.31    0.23
  -5  -4  -4    0.19    0.16
  -6  -4  -4    9.71    0.59
  -7  -4  -4    1.75    0.37
  -8  -4  -4    1.19    0.39
   7  -5  -4   -0.12    0.32
   6  -5  -4    0.27    0.25
  -6   5   4    0.01    0.25
   5  -5  -4    0.37    0.21
  -5   5   4    0.42    0.22
   4  -5  -4    1.11    0.20
   4  -5  -4    1.19    0.18
  -4   5   4    1.44    0.21
   3  -5  -4   15.41    0.63
   3  -5  -4   15.98    0.65
   2  -5  -4    1.59    0.15
   2  -5  -4    1.27    0.18
  -2   5   4    1.39    0.12
   1  -5  -4   32.60    1.11
   1  -5  -4   33.09    1.23
  -1   5   4   34.57    1.11
   0  -5  -4   57.56    2.01
  -1  -5  -4   29.89    1.00
  -1  -5  -4   28.56    1.08
  -2  -5  -4    0.10    0.10
  -2  -5  -4    0.27    0.14
  -3  -5  -4   19.59    0.76
  -3  -5  -4   19.56    0.78
  -4  -5  -4    5.23    0.35
  -4  -5  -4    5.30    0.35
  -5  -5  -4    0.00    0.20
  -5  -5  -4   -0.07    0.17
  -6  -5  -4    0.16    0.26
  -7  -5  -4    0.43    0.32
  -8  -5  -4   -0.05    0.36
   7  -6  -4   -0.43    0.28
   6  -6  -4    1.28    0.30
   5  -6  -4    8.01    0.49
   4  -6  -4    2.43    0.26
   4  -6  -4    2.26    0.25
  -4   6   4    2.69    0.26
   3  -6  -4    3.03    0.24
   3  -6  -4    3.45    0.29
   2  -6  -4   25.86    0.94
   2  -6  -4   25.82    1.00
  -2   6   4   25.63    0.90
   1  -6  -4   15.40    0.68
  -1   6   4   15.74    0.53
   0  -6  -4   82.51    2.85
   0   6   4   82.80    2.72
  -1  -6  -4    1.47    0.22
  -1  -6  -4    1.55    0.12
  -2  -6  -4   32.44    1.23
  -2  -6  -4   33.05    1.16
  -3  -6  -4   11.26    0.56
  -3  -6  -4   11.16    0.50
  -4  -6  -4    0.23    0.20
  -4  -6  -4    0.49    0.20
  -5  -6  -4   10.07    0.55
  -5  -6  -4    9.25    0.54
  -6  -6  -4    0.20    0.26
  -7  -6  -4    0.06    0.30
  -8  -6  -4    0.47    0.37
   7  -7  -4    0.13    0.35
   6  -7  -4   -0.20    0.25
   5  -7  -4   -0.03    0.21
   4  -7  -4    0.45    0.19
   4  -7  -4    1.17    0.23
   3  -7  -4   14.78    0.69
   3  -7  -4   15.70    0.64
   2  -7  -4    6.36    0.33
   2  -7  -4    6.70    0.42
  -2   7   4    6.71    0.30
   1  -7  -4    1.13    0.23
  -1   7   4    1.21    0.10
   0  -7  -4  164.97    5.39
   0   7   4  154.00    5.24
  -1  -7  -4    1.91    0.15
  -1  -7  -4    2.08    0.27
  -2  -7  -4   29.60    1.14
  -2  -7  -4   28.57    1.05
  -3  -7  -4   28.55    1.07
  -3  -7  -4   28.55    1.14
  -4  -7  -4    3.10    0.34
  -4  -7  -4    2.55    0.28
  -5  -7  -4    0.55    0.24
  -5  -7  -4    0.48    0.24
  -6  -7  -4    4.02    0.44
  -7  -7  -4    0.12    0.35
  -8  -7  -4    0.06    0.37
   7  -8  -4    0.15    0.52
   6  -8  -4   -0.37    0.28
   5  -8  -4   -0.13    0.24
   4  -8  -4    0.80    0.22
   4  -8  -4    0.61    0.24
   3  -8  -4   10.56    0.50
   3  -8  -4   10.29    0.56
   2  -8  -4   11.30    0.51
   2  -8  -4   12.00    0.63
   1  -8  -4   23.89    1.00
  -1   8   4   24.38    0.88
   0  -8  -4    9.48    0.53
   0   8   4    8.62    0.34
  -1  -8  -4    3.34    0.33
  -1  -8  -4    4.17    0.24
  -2  -8  -4    4.29    0.26
  -2  -8  -4    3.74    0.37
  -3  -8  -4    5.19    0.44
  -3  -8  -4    5.17    0.35
  -4  -8  -4    0.77    0.24
  -4  -8  -4    0.77    0.27
  -5  -8  -4    1.33    0.32
  -5  -8  -4    1.41    0.31
  -6  -8  -4   -0.35    0.26
  -7  -8  -4    0.19    0.33
  -8  -8  -4   -0.01    0.42
   6  -9  -4    2.54    0.40
   5  -9  -4    1.10    0.29
   4  -9  -4    0.01    0.18
   4  -9  -4   -0.20    0.22
   3  -9  -4    0.38    0.27
   3  -9  -4    0.57    0.19
   2  -9  -4    2.53    0.23
   2  -9  -4    2.53    0.34
   1  -9  -4    1.00    0.31
   0  -9  -4   14.97    0.74
  -1  -9  -4    1.00    0.15
  -1  -9  -4    0.21    0.20
  -2  -9  -4   24.72    1.07
  -2  -9  -4   24.72    0.93
  -3  -9  -4    4.46    0.45
  -3  -9  -4    3.77    0.32
  -4  -9  -4    0.45    0.24
  -4  -9  -4    0.29    0.29
  -5  -9  -4   -0.15    0.26
  -5  -9  -4    0.04    0.28
  -6  -9  -4    1.50    0.35
  -7  -9  -4    0.06    0.34
   6 -10  -4   -0.02    0.31
   5 -10  -4   -0.37    0.25
   4 -10  -4   -0.11    0.18
   4 -10  -4    0.45    0.29
   3 -10  -4    7.89    0.59
   3 -10  -4    7.22    0.43
   2 -10  -4    0.31    0.29
   2 -10  -4    0.05    0.15
   1 -10  -4    5.27    0.31
   1 -10  -4    4.10    0.44
   0 -10  -4   15.53    0.80
  -1 -10  -4    0.36    0.16
  -1 -10  -4    0.65    0.29
  -2 -10  -4   -0.14    0.26
  -2 -10  -4    0.14    0.16
  -3 -10  -4   17.70    0.87
  -3 -10  -4   16.81    0.74
  -4 -10  -4    0.56    0.33
  -4 -10  -4    0.68    0.23
  -5 -10  -4    3.24    0.43
  -5 -10  -4    3.06    0.40
  -6 -10  -4   -0.01    0.32
  -7 -10  -4    0.12    0.39
   4 -11  -4    3.11    0.44
   3 -11  -4    0.08    0.28
   2 -11  -4    3.23    0.45
   1 -11  -4    3.14    0.44
   0 -11  -4   11.19    0.69
  -1 -11  -4    1.23    0.33
  -2 -11  -4   11.16    0.71
  -3 -11  -4    0.36    0.22
  -3 -11  -4    0.08    0.29
  -4 -11  -4    0.18    0.29
  -4 -11  -4   -0.03    0.24
  -5 -11  -4    0.65    0.30
  -6 -11  -4    0.97    0.38
   4 -12  -4    0.26    0.35
   3 -12  -4    2.87    0.46
   2 -12  -4    1.65    0.42
   1 -12  -4    7.39    0.62
   0 -12  -4    3.12    0.48
  -1 -12  -4    0.50    0.33
  -2 -12  -4    4.77    0.52
  -3 -12  -4    2.95    0.45
  -4 -12  -4    0.25    0.33
  -5 -12  -4    0.00    0.31
  -6 -12  -4    0.39    0.37
   4 -13  -4    0.66    0.40
   3 -13  -4    2.62    0.48
   2 -13  -4    0.43    0.36
   1 -13  -4    4.39    0.54
   0 -13  -4    7.09    0.65
  -1 -13  -4    0.31    0.36
  -2 -13  -4    5.61    0.59
  -3 -13  -4    0.36    0.42
  -4 -13  -4    0.51    0.41
   1 -14  -4    1.70    0.50
   0 -14  -4    2.79    0.54
  -1 -14  -4   -0.34    0.41
  -2 -14  -4    2.84    0.52
  -3 -14  -4    1.34    0.54
   0  11  -5    0.22    0.35
  -1  11  -5    1.79    0.50
  -2  11  -5    0.12    0.36
  -2 -10   5    1.07    0.46
  -2 -10   5    0.56    0.39
  -1 -10   5    0.72    0.44
  -1 -10   5   -0.10    0.35
   0  10  -5    1.55    0.38
   0 -10   5    1.64    0.50
  -1  10  -5    2.46    0.47
   1 -10   5    2.62    0.51
  -2  10  -5    0.40    0.38
  -3  10  -5    0.90    0.42
  -4  10  -5    0.24    0.43
  -4  -9   5    0.30    0.46
  -3  -9   5   -0.22    0.40
  -2  -9   5    2.17    0.43
  -2  -9   5    2.07    0.45
  -1  -9   5    0.30    0.37
  -1  -9   5    0.18    0.40
   0   9  -5    2.57    0.43
   0  -9   5    3.64    0.51
  -1   9  -5    3.99    0.48
   1  -9   5    4.19    0.54
  -2   9  -5    0.18    0.31
   2  -9   5    0.24    0.36
  -3   9  -5    2.28    0.43
  -4   9  -5    0.80    0.42
  -5   9  -5    0.51    0.46
  -4  -8   5    1.02    0.41
  -3  -8   5    0.35    0.35
  -2  -8   5    1.78    0.43
  -2  -8   5    1.92    0.39
  -1  -8   5    0.12    0.34
  -1  -8   5    0.13    0.31
   0   8  -5    6.60    0.50
   0  -8   5    4.10    0.52
  -1   8  -5    6.76    0.56
   1  -8   5    7.78    0.67
  -2   8  -5    0.81    0.31
   2  -8   5    1.63    0.39
  -3   8  -5    2.21    0.40
  -4   8  -5    1.37    0.38
  -5   8  -5    0.44    0.43
  -6   8  -5    0.22    0.41
  -5  -7   5    0.51    0.39
  -4  -7   5    0.31    0.39
  -3  -7   5    3.11    0.44
  -2  -7   5    3.16    0.41
  -2  -7   5    3.55    0.46
  -1  -7   5    0.27    0.27
  -1  -7   5    0.12    0.29
   0   7  -5    2.42    0.32
   0  -7   5    2.98    0.42
   0  -7   5    2.53    0.35
  -1   7  -5    4.78    0.43
   1  -7   5    4.12    0.48
  -2   7  -5   -0.37    0.23
   2  -7   5   -0.01    0.28
  -3   7  -5    3.11    0.38
  -4   7  -5    1.11    0.33
  -5   7  -5    0.21    0.38
  -6   7  -5   -0.15    0.39
  -6  -6   5    1.83    0.47
  -5  -6   5    1.58    0.41
  -4  -6   5   -0.23    0.29
  -3  -6   5    0.09    0.28
  -2  -6   5    2.02    0.36
  -2  -6   5    2.03    0.36
  -1  -6   5    1.13    0.28
  -1  -6   5    1.18    0.29
   0  -6   5    1.73    0.32
   0  -6   5    1.43    0.28
  -1   6  -5   24.73    1.02
   1  -6   5   25.80    1.14
  -2   6  -5    9.04    0.53
  -3   6  -5    5.59    0.44
  -4   6  -5    5.54    0.48
  -5   6  -5    1.35    0.36
  -6   6  -5    0.56    0.40
  -7   6  -5    0.75    0.49
  -6  -5   5    0.35    0.42
  -5  -5   5    0.23    0.33
  -4  -5   5   -0.07    0.27
  -3  -5   5    5.58    0.47
  -2  -5   5    7.82    0.54
  -1  -5   5   12.37    0.66
  -1  -5   5   11.88    0.63
   0  -5   5   19.27    0.84
   0  -5   5   20.51    0.92
  -1   5  -5   21.26    0.89
   1  -5   5   21.76    0.98
  -2   5  -5    3.54    0.34
  -3   5  -5    8.48    0.54
  -4   5  -5    2.72    0.38
  -5   5  -5    0.06    0.33
  -6   5  -5    0.60    0.42
  -7   5  -5   -0.06    0.38
  -6  -4   5    0.15    0.35
  -5  -4   5    1.96    0.37
  -4  -4   5    2.30    0.36
   3   4  -5    5.56    0.38
  -3  -4   5    5.98    0.45
   2   4  -5   10.01    0.42
   1   4  -5    0.36    0.12
  -1   4  -5    3.06    0.28
  -2   4  -5    0.96    0.22
  -3   4  -5   20.96    0.88
  -4   4  -5    4.54    0.42
  -5   4  -5    1.06    0.33
  -6   4  -5    0.12    0.34
  -7   4  -5   -0.38    0.41
  -8   4  -5    0.17    0.49
  -7  -3   5    0.02    0.36
   6   3  -5    0.54    0.28
  -6  -3   5    0.15    0.32
   5   3  -5    9.88    0.55
  -5  -3   5    9.15    0.62
   4   3  -5    0.40    0.18
  -4  -3   5    0.34    0.25
   3   3  -5   13.45    0.57
  -3  -3   5   13.84    0.67
  -2  -3   5    7.84    0.42
   1   3  -5    3.35    0.17
  -1  -3   5    2.34    0.26
   0   3  -5   36.08    1.21
  -1   3  -5    8.30    0.42
  -2   3  -5   29.95    1.13
  -3   3  -5   23.88    0.96
  -4   3  -5    8.55    0.53
  -5   3  -5    4.80    0.49
  -6   3  -5    5.26    0.56
  -7   3  -5    1.10    0.41
  -8   3  -5    1.14    0.51
   7   2  -5    0.32    0.32
  -7  -2   5    0.09    0.34
   6   2  -5    0.95    0.27
  -6  -2   5    1.50    0.38
   5   2  -5   -0.34    0.20
  -5  -2   5   -0.02    0.25
   4   2  -5    0.39    0.18
  -4  -2   5    0.53    0.24
   3   2  -5   14.79    0.62
  -3  -2   5   15.86    0.70
   2   2  -5    3.10    0.20
  -2  -2   5    3.73    0.30
   1   2  -5    4.56    0.22
  -1  -2   5    4.96    0.31
   0  -2   5   47.00    1.66
  -2   2  -5    5.74    0.31
  -3   2  -5   36.27    1.35
  -4   2  -5    4.47    0.39
  -5   2  -5    6.92    0.54
  -6   2  -5    0.95    0.35
  -7   2  -5    0.15    0.41
  -8   2  -5    0.02    0.40
   7   1  -5    0.30    0.32
  -7  -1   5    0.07    0.35
   6   1  -5    1.19    0.31
  -6  -1   5    1.09    0.37
   5   1  -5    0.02    0.19
  -5  -1   5   -0.17    0.26
   4   1  -5    4.29    0.32
  -4  -1   5    5.52    0.39
   3   1  -5   11.34    0.50
  -3  -1   5   11.84    0.55
   2   1  -5    8.97    0.39
  -2  -1   5    9.63    0.47
   1   1  -5    5.46    0.25
  -1  -1   5    5.71    0.31
   0  -1   5   54.24    1.88
  -1   1  -5   31.63    1.13
  -2   1  -5   51.50    1.81
  -3   1  -5   -0.01    0.03
  -4   1  -5    0.01    0.07
  -5   1  -5    2.50    0.36
  -6   1  -5   -0.20    0.30
  -7   1  -5    1.31    0.41
  -8   1  -5    0.07    0.40
   7   0  -5    0.31    0.32
  -7   0   5    0.22    0.37
   6   0  -5    1.57    0.30
  -6   0   5    1.14    0.32
   5   0  -5    0.35    0.22
  -5   0   5   -0.15    0.22
   4   0  -5    1.53    0.23
  -4   0   5    1.49    0.25
   3   0  -5   24.62    0.90
  -3   0   5   23.48    0.93
   2   0  -5   19.99    0.74
  -2   0   5   20.13    0.78
   1   0  -5   65.94    2.16
  -1   0   5   61.92    2.19
   0   0   5   38.72    1.36
  -1   0  -5   23.77    0.87
  -2   0  -5   38.49    1.37
  -3   0  -5   41.67    1.51
  -4   0  -5   -0.01    0.05
  -6   0  -5    0.33    0.34
  -7   0  -5    3.29    0.51
  -8   0  -5   -0.12    0.36
   7  -1  -5   -0.09    0.31
  -7   1   5   -0.22    0.30
   6  -1  -5    0.84    0.28
  -6   1   5    0.96    0.30
   5  -1  -5    2.21    0.31
  -5   1   5    2.89    0.33
   4  -1  -5   22.83    0.89
  -4   1   5   21.43    0.91
   3  -1  -5    6.03    0.27
   3  -1  -5    5.62    0.31
  -3   1   5    5.51    0.35
   2  -1  -5    6.65    0.31
   2  -1  -5    6.32    0.30
  -2   1   5    6.11    0.32
   0   1   5   48.52    1.66
  -1  -1  -5    4.16    0.24
  -2  -1  -5   38.78    1.37
  -3  -1  -5   23.39    0.91
  -4  -1  -5    8.98    0.50
  -5  -1  -5   -0.02    0.14
  -6  -1  -5   10.14    0.66
  -7  -1  -5   -0.14    0.37
  -8  -1  -5   -0.03    0.41
  -9  -1  -5    0.61    0.44
   7  -2  -5    0.69    0.36
  -7   2   5    1.94    0.38
   6  -2  -5    0.56    0.26
  -6   2   5    0.35    0.28
   5  -2  -5    0.98    0.26
  -5   2   5    0.95    0.26
   4  -2  -5    2.82    0.26
  -4   2   5    2.82    0.28
   3  -2  -5   19.95    0.76
   3  -2  -5   19.52    0.71
  -3   2   5   19.28    0.77
   2  -2  -5    0.77    0.12
   2  -2  -5    0.74    0.12
  -2   2   5    0.84    0.12
   1  -2  -5  192.97    6.22
  -1   2   5  182.18    6.20
   0  -2  -5    6.11    0.31
   0   2   5    6.37    0.27
  -1  -2  -5   30.61    1.07
  -2  -2  -5   23.65    0.87
  -3  -2  -5   25.08    0.95
  -3  -2  -5   24.18    0.93
  -4  -2  -5    0.60    0.15
  -4  -2  -5    0.80    0.22
  -5  -2  -5    0.48    0.19
  -5  -2  -5    0.72    0.30
  -6  -2  -5    2.31    0.37
  -7  -2  -5    0.43    0.33
  -8  -2  -5    0.33    0.37
  -9  -2  -5    0.62    0.44
   7  -3  -5    1.24    0.34
  -7   3   5    2.00    0.37
   6  -3  -5    7.01    0.54
  -6   3   5    7.30    0.54
   5  -3  -5    0.36    0.24
  -5   3   5    0.80    0.24
   4  -3  -5    0.97    0.19
  -4   3   5    0.83    0.20
   3  -3  -5   13.06    0.53
   3  -3  -5   13.59    0.57
  -3   3   5   14.00    0.57
   2  -3  -5    6.31    0.31
   2  -3  -5    6.57    0.31
  -2   3   5    6.23    0.29
   1  -3  -5    3.55    0.23
  -1   3   5    3.51    0.18
   0  -3  -5  192.17    6.31
   0  -3  -5  191.55    6.37
  -1  -3  -5   83.59    2.79
  -2  -3  -5   60.24    2.08
  -2  -3  -5   60.11    2.06
  -3  -3  -5   29.16    1.09
  -3  -3  -5   29.93    1.10
  -4  -3  -5    0.43    0.16
  -4  -3  -5    0.56    0.22
  -5  -3  -5   17.55    0.78
  -5  -3  -5   15.75    0.69
  -6  -3  -5    0.14    0.27
  -7  -3  -5    0.20    0.31
  -8  -3  -5    0.34    0.41
  -9  -3  -5   -0.01    0.39
   7  -4  -5    0.90    0.34
   6  -4  -5    0.37    0.26
  -6   4   5    0.35    0.24
   5  -4  -5   -0.30    0.21
  -5   4   5    0.45    0.22
   4  -4  -5    0.12    0.15
  -4   4   5    0.11    0.16
   3  -4  -5   18.71    0.72
  -3   4   5   18.75    0.72
   2  -4  -5    3.27    0.25
  -2   4   5    3.99    0.21
   1  -4  -5    0.50    0.13
  -1   4   5    0.55    0.07
   0  -4  -5   26.20    0.88
   0  -4  -5   25.69    0.96
  -1  -4  -5   -0.09    0.05
  -1  -4  -5   -0.05    0.07
  -2  -4  -5    5.70    0.29
  -2  -4  -5    5.20    0.31
  -3  -4  -5   38.71    1.39
  -3  -4  -5   38.65    1.40
  -4  -4  -5    4.74    0.34
  -4  -4  -5    3.96    0.31
  -5  -4  -5    6.69    0.50
  -5  -4  -5    6.90    0.43
  -6  -4  -5   17.00    0.83
  -7  -4  -5    0.23    0.36
  -8  -4  -5    0.85    0.38
   7  -5  -5    0.39    0.32
   6  -5  -5   -0.23    0.24
   5  -5  -5    0.49    0.22
  -5   5   5    1.09    0.24
   4  -5  -5    7.88    0.43
  -4   5   5    7.62    0.40
   3  -5  -5    1.41    0.19
   3  -5  -5    1.26    0.19
   2  -5  -5    0.21    0.11
   2  -5  -5    0.06    0.15
  -2   5   5    0.17    0.08
   1  -5  -5   22.31    0.87
  -1   5   5   22.96    0.76
   0  -5  -5   26.22    0.99
  -2  -5  -5   16.00    0.61
  -2  -5  -5   15.31    0.65
  -3  -5  -5   26.28    1.00
  -3  -5  -5   27.38    1.02
  -4  -5  -5    1.22    0.22
  -4  -5  -5    1.08    0.21
  -5  -5  -5    0.70    0.22
  -5  -5  -5    0.44    0.26
  -6  -5  -5    6.53    0.55
  -7  -5  -5   -0.09    0.29
  -8  -5  -5    0.52    0.38
   7  -6  -5    0.33    0.32
   6  -6  -5    4.38    0.45
   5  -6  -5    1.38    0.26
   4  -6  -5    0.57    0.19
   3  -6  -5   28.27    1.07
   3  -6  -5   28.46    1.09
   2  -6  -5    2.70    0.27
   2  -6  -5    2.80    0.23
  -2   6   5    2.64    0.16
   1  -6  -5   15.75    0.68
   0  -6  -5   33.53    1.25
  -1  -6  -5    1.11    0.10
  -2  -6  -5   40.36    1.42
  -2  -6  -5   41.61    1.50
  -3  -6  -5    3.81    0.28
  -3  -6  -5    3.94    0.33
  -4  -6  -5    0.29    0.21
  -4  -6  -5    0.18    0.19
  -5  -6  -5    1.04    0.25
  -5  -6  -5    1.15    0.25
  -6  -6  -5    3.59    0.42
  -7  -6  -5   -0.24    0.29
  -8  -6  -5    0.91    0.45
   6  -7  -5    0.30    0.27
   5  -7  -5   -0.08    0.21
   4  -7  -5    1.00    0.23
   4  -7  -5    0.93    0.23
   3  -7  -5    8.02    0.42
   3  -7  -5    8.34    0.50
   2  -7  -5   -0.09    0.19
   2  -7  -5    0.13    0.14
   1  -7  -5   46.18    1.69
   0  -7  -5    9.77    0.55
  -2  -7  -5   23.36    0.85
  -2  -7  -5   22.83    0.95
  -3  -7  -5   12.44    0.55
  -3  -7  -5   13.02    0.63
  -4  -7  -5    0.14    0.19
  -4  -7  -5    0.23    0.23
  -5  -7  -5   14.62    0.73
  -5  -7  -5   14.88    0.71
  -6  -7  -5    1.38    0.32
  -7  -7  -5    0.24    0.31
  -8  -7  -5    0.27    0.36
   6  -8  -5    0.07    0.30
   5  -8  -5    1.36    0.27
   4  -8  -5    9.14    0.53
   4  -8  -5    9.23    0.49
   3  -8  -5    6.98    0.49
   3  -8  -5    7.90    0.41
   2  -8  -5   12.98    0.64
   2  -8  -5   12.66    0.56
   1  -8  -5    4.69    0.40
   0  -8  -5   39.11    1.50
  -1  -8  -5   -0.02    0.05
  -1  -8  -5    0.12    0.09
  -2  -8  -5   23.88    1.01
  -2  -8  -5   23.09    0.87
  -3  -8  -5    2.37    0.25
  -3  -8  -5    2.28    0.32
  -4  -8  -5    3.51    0.38
  -4  -8  -5    3.99    0.35
  -5  -8  -5    0.65    0.28
  -5  -8  -5    0.79    0.28
  -6  -8  -5    0.84    0.33
  -7  -8  -5    1.17    0.36
  -8  -8  -5    0.44    0.38
   6  -9  -5    0.03    0.32
   5  -9  -5   -0.12    0.26
   4  -9  -5    0.24    0.25
   4  -9  -5   -0.06    0.21
   3  -9  -5    9.36    0.58
   3  -9  -5    8.26    0.45
   2  -9  -5    3.60    0.28
   2  -9  -5    3.59    0.41
   1  -9  -5   22.68    0.99
   0  -9  -5    9.76    0.62
  -2  -9  -5   10.19    0.46
  -2  -9  -5   10.54    0.62
  -3  -9  -5   10.95    0.52
  -3  -9  -5   10.55    0.64
  -4  -9  -5    7.09    0.53
  -4  -9  -5    8.00    0.48
  -5  -9  -5    2.73    0.39
  -5  -9  -5    2.63    0.36
  -6  -9  -5    1.55    0.37
  -7  -9  -5    0.14    0.33
   6 -10  -5    0.29    0.30
   5 -10  -5    0.14    0.28
   4 -10  -5    4.76    0.46
   4 -10  -5    4.24    0.37
   3 -10  -5    0.43    0.18
   3 -10  -5    0.08    0.28
   2 -10  -5    0.57    0.30
   2 -10  -5    0.65    0.19
   1 -10  -5    9.05    0.64
   0 -10  -5    6.55    0.53
  -1 -10  -5    4.96    0.48
  -2 -10  -5   32.06    1.21
  -2 -10  -5   35.48    1.40
  -3 -10  -5    7.82    0.59
  -3 -10  -5    7.21    0.42
  -4 -10  -5    2.91    0.33
  -4 -10  -5    3.30    0.45
  -5 -10  -5    2.12    0.38
  -5 -10  -5    2.23    0.35
  -6 -10  -5    0.84    0.32
  -7 -10  -5   -0.27    0.32
   5 -11  -5    1.32    0.31
   4 -11  -5    0.22    0.31
   4 -11  -5    0.81    0.26
   3 -11  -5    7.60    0.62
   3 -11  -5    6.30    0.44
   2 -11  -5   10.59    0.71
   2 -11  -5    9.97    0.51
   1 -11  -5    8.78    0.66
   1 -11  -5    8.91    0.45
   0 -11  -5    2.40    0.39
  -1 -11  -5    6.89    0.58
  -2 -11  -5    0.50    0.32
  -3 -11  -5   -0.15    0.34
  -4 -11  -5    0.11    0.22
  -4 -11  -5   -0.17    0.29
  -5 -11  -5    0.48    0.30
  -5 -11  -5    0.41    0.36
  -6 -11  -5    0.79    0.32
   4 -12  -5    3.57    0.72
   3 -12  -5    0.78    0.34
   2 -12  -5    2.77    0.43
   1 -12  -5    1.06    0.36
   0 -12  -5    0.97    0.35
  -1 -12  -5    1.11    0.36
  -2 -12  -5    3.42    0.51
  -3 -12  -5    0.03    0.32
  -4 -12  -5    1.10    0.37
  -5 -12  -5    0.94    0.47
  -6 -12  -5   -0.21    0.33
   3 -13  -5    0.55    0.40
   2 -13  -5    0.99    0.38
   1 -13  -5    4.38    0.53
   0 -13  -5    0.40    0.35
  -1 -13  -5    3.79    0.54
  -2 -13  -5    5.91    0.63
  -3 -13  -5    0.58    0.41
  -4 -13  -5    1.33    0.40
   2 -14  -5    0.67    0.40
   1 -14  -5    1.92    0.51
   0 -14  -5    0.60    0.40
  -1 -14  -5    1.36    0.45
  -2 -14  -5    1.43    0.45
  -3 -14  -5    0.56    0.40
   1  10  -6    0.88    0.38
   0  10  -6    0.86    0.38
  -1  10  -6    0.00    0.36
  -2  10  -6   -0.02    0.35
  -3  -9   6    1.56    0.51
  -2  -9   6    1.41    0.44
  -1  -9   6    1.63    0.42
   0   9  -6    3.74    0.51
  -1   9  -6   -0.51    0.36
  -2   9  -6    1.70    0.44
  -3   9  -6    2.15    0.43
  -4   9  -6   -0.26    0.40
  -4  -8   6   -0.12    0.39
  -3  -8   6    0.99    0.38
  -2  -8   6    0.23    0.34
  -1  -8   6    2.92    0.44
   0   8  -6    5.35    0.51
  -1   8  -6    0.24    0.30
  -2   8  -6    2.52    0.41
  -3   8  -6    4.64    0.49
  -4   8  -6    0.25    0.39
  -5   8  -6    0.69    0.46
  -4  -7   6    0.35    0.37
  -3  -7   6    1.02    0.38
  -2  -7   6    1.06    0.35
  -1  -7   6    2.17    0.38
   0   7  -6   11.57    0.69
  -1   7  -6    1.01    0.29
  -2   7  -6    1.36    0.33
  -3   7  -6    1.63    0.38
  -4   7  -6   -0.14    0.35
  -5   7  -6    0.54    0.42
  -6   7  -6   -0.10    0.40
  -5  -6   6    0.57    0.38
  -4  -6   6    0.09    0.33
  -3  -6   6    7.85    0.62
  -2  -6   6    1.15    0.32
  -1  -6   6    1.21    0.34
   0   6  -6   16.63    0.79
   0  -6   6   16.96    0.81
  -1   6  -6    1.58    0.29
  -2   6  -6    6.19    0.48
  -3   6  -6    3.90    0.41
  -4   6  -6   -0.12    0.28
  -5   6  -6    1.61    0.40
  -6   6  -6    1.29    0.48
  -6  -5   6    0.68    0.40
  -5  -5   6    0.33    0.41
  -4  -5   6    1.60    0.40
  -3  -5   6    2.40    0.38
  -2  -5   6    2.34    0.35
  -1  -5   6   17.30    0.81
   0  -5   6    0.81    0.27
  -1   5  -6    5.12    0.40
  -2   5  -6   11.31    0.63
  -3   5  -6    3.19    0.37
  -4   5  -6   -0.08    0.30
  -5   5  -6    1.70    0.38
  -6   5  -6   -0.20    0.40
  -7   5  -6    0.53    0.43
  -6  -4   6    0.11    0.38
  -5  -4   6    0.34    0.37
  -4  -4   6    0.62    0.35
  -3  -4   6    1.97    0.36
  -2  -4   6    1.37    0.31
  -1  -4   6   33.30    1.29
   0  -4   6    0.03    0.05
  -1   4  -6    4.29    0.35
  -2   4  -6    9.54    0.53
  -3   4  -6    0.18    0.24
  -4   4  -6   -0.04    0.24
  -5   4  -6   -0.05    0.33
  -6   4  -6    0.03    0.39
  -7   4  -6    0.78    0.43
  -6  -3   6    0.68    0.37
  -5  -3   6    0.79    0.37
   4   3  -6    0.86    0.20
  -4  -3   6    0.46    0.32
   3   3  -6    7.95    0.41
  -3  -3   6    7.69    0.51
   2   3  -6    0.55    0.13
  -2  -3   6    0.82    0.24
  -1   3  -6    0.06    0.04
  -2   3  -6   -0.01    0.05
  -3   3  -6   23.70    0.99
  -4   3  -6    3.93    0.41
  -5   3  -6   14.86    0.83
  -6   3  -6    2.42    0.44
  -7   3  -6    0.50    0.45
  -8   3  -6    0.05    0.49
   7   2  -6    0.50    0.33
  -7  -2   6   -0.25    0.39
   6   2  -6    0.87    0.30
  -6  -2   6    1.07    0.40
   5   2  -6   -0.26    0.21
  -5  -2   6    0.10    0.30
   4   2  -6    2.98    0.28
  -4  -2   6    2.37    0.37
   3   2  -6    0.21    0.16
  -3  -2   6    0.63    0.23
   2   2  -6    0.69    0.13
  -2  -2   6    1.25    0.23
   1   2  -6   13.75    0.52
  -1  -2   6   13.97    0.63
   0  -2   6   13.07    0.58
  -1   2  -6   33.25    1.22
  -2   2  -6   -0.02    0.04
  -3   2  -6   -0.07    0.04
  -4   2  -6    0.99    0.29
  -5   2  -6    0.68    0.34
  -6   2  -6    0.33    0.34
  -7   2  -6    0.16    0.38
  -8   2  -6    0.22    0.48
   7   1  -6    0.95    0.35
  -7  -1   6    0.51    0.36
   6   1  -6    0.35    0.28
  -6  -1   6    0.11    0.29
   5   1  -6    1.03    0.26
  -5  -1   6    0.79    0.32
   4   1  -6    0.33    0.17
  -4  -1   6    0.82    0.27
   3   1  -6    7.59    0.40
  -3  -1   6    8.35    0.47
   2   1  -6    4.46    0.26
  -2  -1   6    4.27    0.32
   1   1  -6   61.89    2.13
  -1  -1   6   64.68    2.21
   0  -1   6   16.52    0.68
  -1   1  -6    1.34    0.18
  -2   1  -6    0.54    0.16
  -4   1  -6    0.01    0.06
  -5   1  -6    0.08    0.28
  -6   1  -6    1.50    0.38
  -7   1  -6    0.39    0.38
  -8   1  -6   -0.53    0.39
   7   0  -6    1.18    0.37
  -7   0   6    1.04    0.37
   6   0  -6    2.44    0.34
  -6   0   6    2.05    0.37
   5   0  -6    2.70    0.31
  -5   0   6    2.96    0.37
   4   0  -6    1.38    0.23
  -4   0   6    1.05    0.24
   3   0  -6    7.63    0.40
  -3   0   6    7.75    0.43
   2   0  -6    5.23    0.28
  -2   0   6    4.70    0.34
   1   0  -6    9.73    0.39
  -1   0   6    9.07    0.43
   0   0   6   39.87    1.42
  -1   0  -6    1.06    0.15
  -2   0  -6   49.38    1.74
  -3   0  -6   11.03    0.54
  -4   0  -6    0.06    0.08
  -5   0  -6    9.00    0.60
  -6   0  -6   15.84    0.89
  -7   0  -6   -0.10    0.36
  -8   0  -6    0.30    0.47
   7  -1  -6    0.88    0.36
  -7   1   6    0.31    0.33
   6  -1  -6   -0.10    0.24
  -6   1   6    0.46    0.32
   5  -1  -6    9.18    0.54
  -5   1   6   10.26    0.58
   4  -1  -6    1.90    0.24
  -4   1   6    1.91    0.26
   3  -1  -6    2.34    0.23
   3  -1  -6    2.56    0.20
  -3   1   6    2.45    0.25
   2  -1  -6    0.00    0.10
  -2   1   6    0.03    0.14
  -1   1   6   84.19    2.86
   0   1   6    9.84    0.43
  -1  -1  -6   16.58    0.64
  -2  -1  -6   34.28    1.24
  -3  -1  -6    1.53    0.22
  -4  -1  -6    0.51    0.25
  -5  -1  -6   10.36    0.61
  -6  -1  -6    1.15    0.35
  -6  -1  -6    1.29    0.25
  -7  -1  -6   -0.23    0.33
  -8  -1  -6    0.49    0.45
   7  -2  -6    0.30    0.31
  -7   2   6   -0.01    0.30
   6  -2  -6    1.38    0.32
  -6   2   6    1.24    0.34
   5  -2  -6    1.72    0.30
  -5   2   6    2.35    0.30
   4  -2  -6   16.48    0.72
  -4   2   6   16.29    0.71
   3  -2  -6   15.41    0.66
   3  -2  -6   16.83    0.63
  -3   2   6   16.48    0.67
   2  -2  -6    2.39    0.20
   2  -2  -6    2.49    0.21
  -2   2   6    2.66    0.21
  -1   2   6   19.97    0.74
  -1  -2  -6    5.30    0.28
  -2  -2  -6    8.79    0.42
  -3  -2  -6    7.61    0.42
  -4  -2  -6   11.46    0.59
  -4  -2  -6   11.52    0.57
  -5  -2  -6    4.01    0.43
  -5  -2  -6    3.53    0.33
  -6  -2  -6    3.41    0.34
  -6  -2  -6    2.96    0.41
  -7  -2  -6    0.76    0.37
  -8  -2  -6    0.08    0.38
   7  -3  -6    0.51    0.33
   6  -3  -6    0.60    0.27
  -6   3   6    0.15    0.28
   5  -3  -6    3.14    0.33
  -5   3   6    3.30    0.35
   4  -3  -6    0.15    0.17
  -4   3   6   -0.34    0.16
   3  -3  -6    8.71    0.44
   3  -3  -6    8.80    0.40
  -3   3   6    8.35    0.42
   2  -3  -6    3.10    0.23
   2  -3  -6    3.26    0.24
  -2   3   6    2.64    0.20
   1  -3  -6  113.77    3.83
  -1   3   6  113.67    3.79
   0  -3  -6   84.28    2.83
   0  -3  -6   85.38    2.89
  -1  -3  -6   44.74    1.57
  -1  -3  -6   42.89    1.50
  -2  -3  -6  231.24    7.82
  -2  -3  -6  240.84    7.86
  -3  -3  -6    6.38    0.37
  -3  -3  -6    6.50    0.37
  -4  -3  -6    2.59    0.30
  -4  -3  -6    2.66    0.28
  -5  -3  -6    3.57    0.41
  -5  -3  -6    3.97    0.34
  -6  -3  -6    7.50    0.58
  -6  -3  -6    8.28    0.50
  -7  -3  -6    0.41    0.38
  -8  -3  -6    1.32    0.43
   7  -4  -6    0.16    0.32
   6  -4  -6   -0.20    0.25
   5  -4  -6    1.77    0.28
  -5   4   6    1.63    0.28
   4  -4  -6    6.10    0.39
  -4   4   6    6.25    0.38
   3  -4  -6    0.36    0.15
   3  -4  -6    0.23    0.11
  -3   4   6    0.57    0.15
   2  -4  -6    0.62    0.15
   2  -4  -6    0.69    0.14
  -2   4   6    0.87    0.12
   1  -4  -6  147.09    4.95
  -1   4   6  148.90    4.89
   0  -4  -6   33.86    1.14
   0  -4  -6   32.61    1.21
  -1  -4  -6   17.29    0.71
  -1  -4  -6   17.82    0.64
  -2  -4  -6   45.32    1.65
  -2  -4  -6   47.11    1.61
  -3  -4  -6    4.92    0.34
  -3  -4  -6    4.80    0.32
  -4  -4  -6    1.84    0.23
  -4  -4  -6    2.69    0.31
  -5  -4  -6   17.60    0.77
  -5  -4  -6   18.02    0.84
  -6  -4  -6    2.67    0.31
  -6  -4  -6    3.35    0.40
  -7  -4  -6    3.18    0.46
  -8  -4  -6    0.50    0.38
   7  -5  -6    1.03    0.41
   6  -5  -6   -0.17    0.28
   5  -5  -6    0.15    0.21
   4  -5  -6    5.63    0.38
  -4   5   6    5.91    0.37
   3  -5  -6    6.92    0.40
  -3   5   6    7.03    0.34
   2  -5  -6   10.49    0.51
  -2   5   6   10.98    0.42
   1  -5  -6   46.23    1.65
  -1   5   6   46.35    1.55
   0  -5  -6    8.86    0.41
   0  -5  -6    7.55    0.29
  -1  -5  -6    2.48    0.24
  -1  -5  -6    2.33    0.16
  -2  -5  -6    9.86    0.44
  -2  -5  -6   10.49    0.49
  -3  -5  -6    2.74    0.24
  -3  -5  -6    3.22    0.29
  -4  -5  -6   13.32    0.62
  -4  -5  -6   12.09    0.60
  -5  -5  -6    1.46    0.25
  -5  -5  -6    1.55    0.30
  -6  -5  -6    0.94    0.31
  -7  -5  -6    0.97    0.35
  -8  -5  -6    0.35    0.37
   6  -6  -6    0.40    0.28
   5  -6  -6    0.13    0.22
   4  -6  -6    6.16    0.42
   3  -6  -6   -0.02    0.18
   3  -6  -6   -0.12    0.15
   2  -6  -6    2.50    0.28
   2  -6  -6    1.96    0.21
  -2   6   6    2.38    0.14
   1  -6  -6   39.64    1.46
   0  -6  -6    7.94    0.44
  -1  -6  -6   26.08    0.89
  -1  -6  -6   25.83    1.01
  -2  -6  -6   24.52    0.96
  -2  -6  -6   24.10    0.88
  -3  -6  -6   22.85    0.92
  -3  -6  -6   22.67    0.87
  -4  -6  -6    3.08    0.30
  -4  -6  -6    3.87    0.35
  -5  -6  -6   18.38    0.80
  -5  -6  -6   16.75    0.79
  -6  -6  -6   -0.02    0.25
  -7  -6  -6    0.22    0.31
  -8  -6  -6    0.20    0.36
   6  -7  -6   -0.04    0.27
   5  -7  -6    0.34    0.27
   4  -7  -6    3.10    0.31
   3  -7  -6    0.41    0.17
   3  -7  -6    0.61    0.23
   2  -7  -6    8.00    0.40
   2  -7  -6    7.88    0.49
   1  -7  -6    4.67    0.40
   0  -7  -6    6.94    0.44
  -1  -7  -6   83.73    2.78
  -2  -7  -6   24.64    1.00
  -2  -7  -6   24.41    0.89
  -3  -7  -6    8.53    0.50
  -3  -7  -6    8.07    0.41
  -4  -7  -6    3.01    0.28
  -4  -7  -6    3.33    0.34
  -5  -7  -6    0.44    0.25
  -5  -7  -6    0.21    0.25
  -6  -7  -6    0.42    0.30
  -7  -7  -6    0.95    0.34
  -8  -7  -6    0.47    0.38
   6  -8  -6    0.10    0.28
   5  -8  -6   -0.20    0.25
   4  -8  -6   -0.15    0.21
   3  -8  -6    1.16    0.21
   3  -8  -6    1.09    0.27
   2  -8  -6    6.79    0.38
   2  -8  -6    7.68    0.48
   1  -8  -6   52.74    1.95
   0  -8  -6    0.36    0.24
  -2  -8  -6    1.72    0.17
  -2  -8  -6    2.33    0.31
  -3  -8  -6    3.05    0.26
  -3  -8  -6    3.11    0.35
  -4  -8  -6    3.77    0.40
  -4  -8  -6    3.79    0.31
  -5  -8  -6    0.26    0.28
  -5  -8  -6    0.89    0.27
  -6  -8  -6    2.98    0.40
  -7  -8  -6    0.27    0.31
  -8  -8  -6    0.60    0.39
   6  -9  -6    0.40    0.30
   5  -9  -6    0.53    0.28
   4  -9  -6    5.87    0.45
   3  -9  -6    3.26    0.30
   3  -9  -6    3.25    0.37
   2  -9  -6    8.61    0.46
   2  -9  -6    9.05    0.59
   1  -9  -6   16.36    0.82
   0  -9  -6    0.88    0.29
  -1  -9  -6    0.03    0.07
  -2  -9  -6   27.20    1.13
  -2  -9  -6   24.59    0.93
  -3  -9  -6    6.27    0.53
  -3  -9  -6    5.63    0.35
  -4  -9  -6    0.02    0.26
  -4  -9  -6   -0.07    0.20
  -5  -9  -6    6.47    0.49
  -5  -9  -6    5.68    0.52
  -6  -9  -6    0.70    0.32
  -7  -9  -6    0.15    0.36
   6 -10  -6   -0.23    0.34
   5 -10  -6    1.89    0.32
   4 -10  -6    0.65    0.25
   3 -10  -6    0.22    0.19
   3 -10  -6   -0.11    0.27
   2 -10  -6    0.00    0.18
   2 -10  -6    0.16    0.30
   1 -10  -6    3.00    0.40
   0 -10  -6    9.40    0.66
  -1 -10  -6   26.15    1.14
  -2 -10  -6    6.23    0.54
  -3 -10  -6    0.27    0.19
  -3 -10  -6   -0.32    0.27
  -4 -10  -6    5.05    0.51
  -4 -10  -6    4.38    0.37
  -5 -10  -6    0.74    0.35
  -5 -10  -6    0.78    0.29
  -6 -10  -6    0.41    0.29
  -7 -10  -6    0.72    0.35
   5 -11  -6    0.80    0.32
   4 -11  -6    1.58    0.30
   3 -11  -6    3.70    0.35
   3 -11  -6    3.87    0.45
   2 -11  -6    2.29    0.40
   2 -11  -6    1.84    0.26
   1 -11  -6    4.27    0.48
   0 -11  -6   -0.24    0.29
  -1 -11  -6    0.50    0.32
  -2 -11  -6    0.41    0.33
  -3 -11  -6    2.32    0.45
  -4 -11  -6    1.60    0.39
  -5 -11  -6    0.29    0.37
  -5 -11  -6    0.30    0.27
  -6 -11  -6    1.24    0.37
  -7 -11  -6    0.50    0.40
   5 -12  -6    0.78    0.41
   4 -12  -6    0.24    0.27
   3 -12  -6    0.37    0.24
   3 -12  -6    0.50    0.32
   2 -12  -6    0.68    0.38
   2 -12  -6    0.78    0.23
   1 -12  -6    7.80    0.63
   1 -12  -6    7.36    0.44
   0 -12  -6    1.63    0.43
  -1 -12  -6    4.05    0.50
  -2 -12  -6    3.08    0.49
  -3 -12  -6    3.15    0.47
  -4 -12  -6    0.41    0.40
  -5 -12  -6    0.48    0.39
   3 -13  -6   -0.06    0.33
   2 -13  -6    2.72    0.48
   1 -13  -6    1.57    0.44
   0 -13  -6    3.23    0.52
  -1 -13  -6    9.41    0.77
  -2 -13  -6    1.10    0.40
  -3 -13  -6    0.87    0.40
  -4 -13  -6    1.14    0.40
  -5 -13  -6   -0.02    0.39
   2 -14  -6    2.42    0.48
   1 -14  -6    0.98    0.46
   0 -14  -6    0.13    0.38
  -1 -14  -6    2.27    0.51
  -2 -14  -6    0.44    0.44
  -3 -14  -6    0.59    0.41
  -4 -14  -6    0.96    0.51
   1   9  -7    1.08    0.44
   0   9  -7    0.41    0.36
  -1   9  -7    2.07    0.48
  -2   9  -7    3.07    0.48
  -3   9  -7   -0.08    0.40
  -3  -8   7    0.04    0.40
  -2  -8   7    0.01    0.38
  -1  -8   7    1.59    0.46
   0   8  -7    1.46    0.39
  -1   8  -7    1.25    0.37
  -2   8  -7    1.93    0.44
  -3   8  -7    0.13    0.34
  -4   8  -7    0.57    0.39
  -4  -7   7   -0.21    0.38
  -3  -7   7    0.18    0.40
  -2  -7   7    0.15    0.34
  -1  -7   7    4.48    0.50
   0   7  -7    2.83    0.41
  -1   7  -7    0.02    0.28
  -2   7  -7    2.83    0.42
  -3   7  -7    1.04    0.38
  -4   7  -7    1.01    0.42
  -5   7  -7   -0.19    0.36
  -4  -6   7    3.05    0.50
  -3  -6   7    0.41    0.35
  -2  -6   7    0.28    0.31
  -1  -6   7    2.19    0.39
   0   6  -7    0.89    0.33
  -1   6  -7    3.02    0.38
  -2   6  -7    5.48    0.49
  -3   6  -7    1.39    0.34
  -4   6  -7    0.59    0.37
  -5   6  -7    1.38    0.44
  -6   6  -7    0.24    0.46
  -5  -5   7    0.35    0.38
  -4  -5   7   -0.52    0.35
  -3  -5   7   -0.10    0.30
  -2  -5   7    0.72    0.33
  -1  -5   7    0.68    0.29
   0   5  -7    4.85    0.44
   0  -5   7    4.97    0.46
  -1   5  -7    2.47    0.33
  -2   5  -7    7.17    0.55
  -3   5  -7   -0.09    0.24
  -4   5  -7    1.30    0.37
  -5   5  -7    0.85    0.36
  -6   5  -7   -0.13    0.37
  -7   5  -7   -0.67    0.47
  -5  -4   7    0.31    0.37
  -4  -4   7    0.37    0.32
  -3  -4   7    6.54    0.56
  -2  -4   7    3.28    0.39
  -1  -4   7   16.61    0.79
   0  -4   7   11.05    0.60
  -1   4  -7    3.73    0.35
  -2   4  -7    3.56    0.38
  -3   4  -7    4.55    0.44
  -4   4  -7    1.97    0.38
  -5   4  -7    0.90    0.34
  -6   4  -7    0.35    0.37
  -7   4  -7   -0.13    0.41
  -6  -3   7    0.22    0.37
  -5  -3   7    0.16    0.31
  -4  -3   7    7.48    0.58
  -3  -3   7    0.08    0.28
  -2  -3   7    0.76    0.26
  -1  -3   7   11.41    0.62
   0  -3   7    4.19    0.36
  -2   3  -7   34.71    1.34
  -3   3  -7    1.15    0.26
  -4   3  -7    7.31    0.52
  -5   3  -7   -0.07    0.33
  -6   3  -7    0.29    0.37
  -7   3  -7    0.29    0.40
  -6  -2   7    1.03    0.38
   5   2  -7    0.39    0.24
  -5  -2   7    0.13    0.30
   4   2  -7    0.14    0.19
  -4  -2   7    0.09    0.26
   3   2  -7    3.05    0.26
  -3  -2   7    3.50    0.39
   2   2  -7    6.47    0.33
  -2  -2   7    6.70    0.45
   1   2  -7   18.67    0.68
  -1  -2   7   18.39    0.81
   0  -2   7    1.41    0.25
  -1   2  -7   24.10    0.95
  -2   2  -7    0.05    0.05
  -3   2  -7   -0.12    0.15
  -4   2  -7    5.25    0.46
  -5   2  -7    8.08    0.60
  -6   2  -7    1.17    0.39
  -7   2  -7    0.43    0.39
  -8   2  -7    0.17    0.46
   6   1  -7    0.73    0.32
  -6  -1   7    0.46    0.36
   5   1  -7    0.36    0.22
  -5  -1   7   -0.06    0.27
   4   1  -7    7.93    0.47
  -4  -1   7    7.66    0.52
   3   1  -7    4.17    0.31
  -3  -1   7    5.18    0.42
   2   1  -7    9.93    0.43
  -2  -1   7    9.29    0.51
   1   1  -7   12.71    0.51
  -1  -1   7   13.23    0.59
   0  -1   7   38.75    1.42
  -1   1  -7    0.53    0.18
  -2   1  -7   52.24    1.87
  -3   1  -7   -0.02    0.13
  -4   1  -7    8.88    0.54
  -5   1  -7    1.17    0.33
  -6   1  -7   -0.28    0.36
  -7   1  -7    0.43    0.40
  -8   1  -7   -0.01    0.43
   7   0  -7    0.33    0.36
  -7   0   7    0.99    0.42
   6   0  -7    0.48    0.31
  -6   0   7   -0.33    0.32
   5   0  -7    2.23    0.33
  -5   0   7    1.84    0.33
   4   0  -7    1.91    0.27
  -4   0   7    1.52    0.28
   3   0  -7    1.49    0.21
  -3   0   7    2.08    0.29
   2   0  -7    1.32    0.17
  -2   0   7    0.97    0.20
   1   0  -7    2.13    0.17
  -1   0   7    1.87    0.22
   0   0   7    0.24    0.14
  -1   0  -7   47.84    1.69
  -2   0  -7   35.07    1.29
  -3   0  -7    0.69    0.23
  -4   0  -7   10.53    0.59
  -5   0  -7    2.13    0.37
  -6   0  -7    0.29    0.37
  -7   0  -7    0.80    0.44
  -8   0  -7    0.71    0.43
   7  -1  -7    0.03    0.30
  -7   1   7    0.08    0.36
   6  -1  -7    0.40    0.29
  -6   1   7    0.05    0.27
   5  -1  -7    0.19    0.22
  -5   1   7    0.38    0.28
   4  -1  -7    0.72    0.20
  -4   1   7    0.79    0.25
   3  -1  -7    1.58    0.22
   3  -1  -7    1.52    0.20
  -3   1   7    1.33    0.22
   2  -1  -7   22.43    0.84
  -2   1   7   22.21    0.88
  -1   1   7   14.02    0.59
   0   1   7    3.94    0.27
  -1  -1  -7   98.17    3.32
  -2  -1  -7    0.06    0.14
  -3  -1  -7    0.15    0.18
  -4  -1  -7   11.33    0.61
  -5  -1  -7   -0.06    0.31
  -6  -1  -7    0.12    0.24
  -6  -1  -7   -0.12    0.29
  -7  -1  -7    0.67    0.38
  -8  -1  -7    0.26    0.42
   7  -2  -7   -0.01    0.42
  -7   2   7    0.64    0.34
   6  -2  -7    0.09    0.29
  -6   2   7    0.12    0.29
   5  -2  -7    1.66    0.31
  -5   2   7    0.71    0.27
   4  -2  -7   20.58    0.83
  -4   2   7   19.14    0.84
   3  -2  -7    0.71    0.17
   3  -2  -7    0.70    0.16
  -3   2   7    1.01    0.22
   2  -2  -7   12.41    0.55
   2  -2  -7   13.13    0.53
  -2   2   7   12.17    0.55
   1  -2  -7   59.57    2.03
  -1   2   7   55.77    1.99
   0  -2  -7   12.60    0.51
  -1  -2  -7    3.14    0.22
  -2  -2  -7   15.59    0.64
  -3  -2  -7    9.19    0.48
  -4  -2  -7   31.87    1.26
  -5  -2  -7    1.66    0.28
  -5  -2  -7    1.98    0.34
  -6  -2  -7    0.28    0.31
  -6  -2  -7   -0.01    0.23
  -7  -2  -7   -0.07    0.36
  -8  -2  -7    1.42    0.45
   6  -3  -7    0.16    0.30
  -6   3   7    0.10    0.28
   5  -3  -7    0.89    0.25
  -5   3   7    1.07    0.26
   4  -3  -7    3.42    0.32
  -4   3   7    3.50    0.30
   3  -3  -7    0.07    0.14
   3  -3  -7    0.13    0.15
  -3   3   7    0.03    0.15
   2  -3  -7    9.02    0.42
   2  -3  -7    8.27    0.42
  -2   3   7    9.66    0.42
   1  -3  -7    3.08    0.25
  -1   3   7    2.96    0.20
   0  -3  -7    9.83    0.42
   0  -3  -7   10.76    0.49
  -1  -3  -7  194.25    6.54
  -1  -3  -7  200.64    6.61
  -2  -3  -7    0.29    0.14
  -2  -3  -7    0.44    0.19
  -3  -3  -7    0.09    0.17
  -3  -3  -7    0.08    0.16
  -4  -3  -7    0.69    0.23
  -4  -3  -7    0.42    0.23
  -5  -3  -7   11.89    0.66
  -5  -3  -7   11.72    0.62
  -6  -3  -7    0.01    0.22
  -6  -3  -7    0.25    0.34
  -7  -3  -7    0.13    0.35
  -8  -3  -7    0.85    0.42
   6  -4  -7   -0.24    0.26
   5  -4  -7    0.75    0.27
  -5   4   7    0.67    0.24
   4  -4  -7    3.89    0.33
  -4   4   7    3.87    0.32
   3  -4  -7    2.56    0.26
   3  -4  -7    2.42    0.24
  -3   4   7    2.54    0.23
   2  -4  -7   43.37    1.51
   2  -4  -7   42.80    1.52
  -2   4   7   41.72    1.48
   1  -4  -7   11.87    0.55
  -1   4   7   12.93    0.49
   0  -4  -7    1.45    0.20
   0  -4  -7    1.01    0.12
  -1  -4  -7   70.48    2.48
  -1  -4  -7   71.71    2.41
  -2  -4  -7   30.67    1.14
  -2  -4  -7   32.41    1.20
  -3  -4  -7    1.13    0.22
  -3  -4  -7    1.25    0.22
  -4  -4  -7   11.16    0.55
  -4  -4  -7    9.79    0.55
  -5  -4  -7    0.93    0.25
  -5  -4  -7    0.86    0.31
  -6  -4  -7    1.97    0.31
  -6  -4  -7    1.98    0.37
  -7  -4  -7    0.07    0.34
  -8  -4  -7   -0.29    0.43
   6  -5  -7   -0.48    0.24
   5  -5  -7    0.05    0.22
   4  -5  -7    6.59    0.42
   3  -5  -7    0.94    0.20
   3  -5  -7    0.91    0.19
  -3   5   7    1.46    0.18
   2  -5  -7    1.97    0.24
  -2   5   7    2.09    0.17
   1  -5  -7   88.82    3.15
  -1   5   7   95.14    3.06
   0  -5  -7    4.79    0.33
   0  -5  -7    4.08    0.20
  -1  -5  -7   10.25    0.42
  -1  -5  -7   10.63    0.52
  -2  -5  -7    8.07    0.44
  -2  -5  -7    8.13    0.39
  -3  -5  -7    3.01    0.27
  -3  -5  -7    2.80    0.29
  -4  -5  -7   16.61    0.73
  -4  -5  -7   16.68    0.74
  -5  -5  -7    4.46    0.39
  -5  -5  -7    4.38    0.41
  -6  -5  -7    2.76    0.35
  -6  -5  -7    2.87    0.39
  -7  -5  -7    2.44    0.46
  -8  -5  -7    0.74    0.44
   6  -6  -7   -0.25    0.26
   5  -6  -7    2.64    0.33
   4  -6  -7    1.20    0.26
   3  -6  -7    0.82    0.23
   3  -6  -7    1.32    0.22
   2  -6  -7    0.38    0.20
   1  -6  -7    0.26    0.05
   1  -6  -7    0.01    0.16
   0  -6  -7    0.16    0.05
   0  -6  -7    0.24    0.17
  -1  -6  -7   41.22    1.50
  -1  -6  -7   40.20    1.38
  -2  -6  -7   35.09    1.32
  -2  -6  -7   34.64    1.23
  -3  -6  -7    8.38    0.50
  -3  -6  -7    8.36    0.43
  -4  -6  -7    7.05    0.48
  -4  -6  -7    6.61    0.44
  -5  -6  -7    0.72    0.26
  -5  -6  -7    0.60    0.24
  -6  -6  -7    4.19    0.41
  -6  -6  -7    3.56    0.42
  -7  -6  -7    0.17    0.32
  -8  -6  -7    0.48    0.37
   6  -7  -7    0.17    0.29
   5  -7  -7    0.49    0.25
   4  -7  -7    0.70    0.22
   3  -7  -7    1.08    0.25
   3  -7  -7    0.96    0.20
   2  -7  -7    9.24    0.46
   2  -7  -7    9.27    0.54
   1  -7  -7    5.76    0.43
   0  -7  -7   38.64    1.45
  -1  -7  -7   20.80    0.88
  -1  -7  -7   20.81    0.72
  -2  -7  -7    1.12    0.14
  -2  -7  -7    0.91    0.22
  -3  -7  -7    1.16    0.19
  -3  -7  -7    1.06    0.27
  -4  -7  -7    1.24    0.26
  -4  -7  -7    0.77    0.23
  -5  -7  -7    1.33    0.31
  -5  -7  -7    1.06    0.26
  -6  -7  -7    0.86    0.29
  -6  -7  -7    1.57    0.32
  -7  -7  -7    0.20    0.31
  -8  -7  -7    0.03    0.41
   6  -8  -7    0.23    0.30
   5  -8  -7    0.53    0.26
   4  -8  -7   11.70    0.60
   3  -8  -7    1.03    0.28
   3  -8  -7    1.68    0.26
   2  -8  -7   17.01    0.78
   2  -8  -7   15.06    0.67
   1  -8  -7    3.69    0.37
   0  -8  -7    0.62    0.27
  -1  -8  -7   -0.04    0.06
  -2  -8  -7    2.79    0.34
  -2  -8  -7    2.81    0.21
  -3  -8  -7    8.94    0.55
  -3  -8  -7    8.46    0.43
  -4  -8  -7    8.93    0.50
  -4  -8  -7    9.98    0.61
  -5  -8  -7    0.24    0.25
  -5  -8  -7    0.45    0.29
  -6  -8  -7    0.83    0.32
  -7  -8  -7    0.22    0.36
  -8  -8  -7    0.44    0.35
   6  -9  -7   -0.23    0.49
   5  -9  -7    3.70    0.41
   4  -9  -7    0.19    0.25
   3  -9  -7    2.69    0.29
   3  -9  -7    2.40    0.35
   2  -9  -7    5.96    0.38
   2  -9  -7    5.99    0.51
   1  -9  -7   -0.03    0.25
   0  -9  -7    0.26    0.27
  -2  -9  -7    3.58    0.42
  -3  -9  -7    1.30    0.31
  -3  -9  -7    1.30    0.20
  -4  -9  -7    8.67    0.49
  -4  -9  -7    9.72    0.65
  -5  -9  -7    0.38    0.25
  -5  -9  -7    1.15    0.36
  -6  -9  -7    0.14    0.26
  -7  -9  -7   -0.13    0.29
   5 -10  -7   -0.04    0.26
   4 -10  -7   -0.05    0.22
   3 -10  -7   -0.04    0.19
   3 -10  -7    0.23    0.29
   2 -10  -7    2.85    0.30
   2 -10  -7    3.03    0.40
   1 -10  -7    5.33    0.51
   0 -10  -7   13.97    0.80
  -1 -10  -7    6.79    0.56
  -2 -10  -7    0.85    0.36
  -3 -10  -7    5.53    0.54
  -4 -10  -7    0.69    0.23
  -4 -10  -7    1.01    0.38
  -5 -10  -7    0.83    0.25
  -5 -10  -7    0.98    0.34
  -6 -10  -7    1.72    0.36
  -7 -10  -7    0.09    0.37
   5 -11  -7    0.83    0.30
   4 -11  -7   -0.15    0.26
   3 -11  -7    0.06    0.31
   3 -11  -7   -0.33    0.22
   2 -11  -7    3.49    0.48
   2 -11  -7    3.29    0.31
   1 -11  -7    0.18    0.30
   0 -11  -7    1.12    0.38
  -1 -11  -7    3.25    0.44
  -2 -11  -7    4.13    0.49
  -3 -11  -7   10.84    0.72
  -4 -11  -7    8.41    0.71
  -5 -11  -7    0.66    0.38
  -6 -11  -7    0.19    0.32
  -7 -11  -7   -0.05    0.37
   4 -12  -7    0.05    0.27
   3 -12  -7    1.23    0.29
   3 -12  -7    1.43    0.40
   2 -12  -7    3.84    0.36
   2 -12  -7    3.80    0.50
   1 -12  -7    0.49    0.38
   0 -12  -7    4.94    0.54
  -1 -12  -7    9.68    0.72
  -2 -12  -7    2.51    0.44
  -3 -12  -7    0.62    0.37
  -4 -12  -7    0.11    0.40
  -5 -12  -7   -0.37    0.38
   3 -13  -7    2.86    0.47
   2 -13  -7    1.04    0.41
   1 -13  -7    0.31    0.40
   0 -13  -7    2.71    0.49
  -1 -13  -7    0.54    0.37
  -2 -13  -7    0.27    0.37
  -3 -13  -7    2.95    0.53
  -4 -13  -7   -0.10    0.41
  -5 -13  -7    0.77    0.45
   3 -14  -7    0.91    0.46
   2 -14  -7    1.33    0.46
   1 -14  -7    0.08    0.38
   0 -14  -7    1.95    0.46
  -1 -14  -7    0.12    0.39
  -2 -14  -7    0.59    0.42
  -3 -14  -7    1.14    0.44
  -4 -14  -7    1.88    0.58
   1   8  -8    2.42    0.45
   0   8  -8    0.26    0.35
  -1   8  -8    1.05    0.44
  -2   8  -8    0.82    0.40
  -3   8  -8    0.27    0.38
  -3  -7   8    0.09    0.39
  -2  -7   8    1.13    0.43
  -1  -7   8    0.50    0.37
   0   7  -8    0.19    0.33
  -1   7  -8    1.93    0.40
  -2   7  -8    2.85    0.45
  -3   7  -8    0.17    0.39
  -4   7  -8    0.31    0.43
  -5   7  -8    0.35    0.42
  -4  -6   8    0.56    0.42
  -3  -6   8    0.38    0.37
  -2  -6   8    0.48    0.36
  -1  -6   8    1.79    0.39
   0   6  -8    0.79    0.32
  -1   6  -8    3.05    0.41
  -2   6  -8    4.02    0.46
  -3   6  -8    0.18    0.31
  -4   6  -8   -0.13    0.33
  -5   6  -8    0.02    0.36
  -4  -5   8    0.23    0.37
  -3  -5   8    0.29    0.35
  -2  -5   8    2.25    0.40
  -1  -5   8   11.43    0.70
   0   5  -8    0.35    0.31
  -1   5  -8    3.64    0.40
  -2   5  -8    0.24    0.27
  -3   5  -8    0.16    0.29
  -4   5  -8    2.91    0.43
  -5   5  -8    1.14    0.38
  -6   5  -8    0.01    0.41
  -5  -4   8    0.47    0.42
  -4  -4   8    3.80    0.49
  -3  -4   8   -0.10    0.29
  -2  -4   8    4.28    0.45
  -1  -4   8    0.62    0.29
   0   4  -8    8.64    0.54
  -1   4  -8   -0.09    0.23
  -2   4  -8    5.99    0.48
  -3   4  -8    5.08    0.46
  -4   4  -8    1.45    0.34
  -5   4  -8    0.47    0.34
  -6   4  -8    0.22    0.38
  -7   4  -8    0.20    0.46
  -5  -3   8    1.17    0.42
  -4  -3   8    0.66    0.33
  -3  -3   8    1.00    0.33
  -2  -3   8    2.20    0.34
  -1  -3   8    3.59    0.38
   0   3  -8   12.26    0.62
   0  -3   8   11.74    0.63
  -1   3  -8   12.93    0.64
  -2   3  -8    0.55    0.24
  -3   3  -8    0.20    0.24
  -4   3  -8    1.55    0.37
  -5   3  -8    0.42    0.33
  -6   3  -8   -0.35    0.36
  -7   3  -8   -0.01    0.43
  -6  -2   8    0.54    0.37
  -5  -2   8    0.18    0.37
  -4  -2   8    2.44    0.41
  -3  -2   8    0.27    0.26
  -2  -2   8   11.57    0.63
  -1  -2   8    7.36    0.48
   0  -2   8    0.07    0.20
  -1   2  -8    7.90    0.49
  -2   2  -8    0.20    0.22
  -3   2  -8    1.53    0.30
  -4   2  -8   23.06    1.02
  -5   2  -8    0.89    0.37
  -6   2  -8    1.30    0.45
  -7   2  -8   -0.25    0.43
  -6  -1   8    0.38    0.39
   5   1  -8    0.23    0.25
  -5  -1   8    0.33    0.30
   4   1  -8    3.16    0.33
  -4  -1   8    3.18    0.39
   3   1  -8    0.54    0.19
  -3  -1   8    0.16    0.24
   2   1  -8    1.52    0.19
  -2  -1   8    1.92    0.30
   1   1  -8    4.80    0.28
  -1  -1   8    4.88    0.37
   0  -1   8    4.49    0.37
  -1   1  -8   11.23    0.54
  -2   1  -8    0.56    0.21
  -3   1  -8   13.39    0.68
  -4   1  -8    3.95    0.40
  -5   1  -8   -0.25    0.29
  -6   1  -8    0.11    0.36
  -7   1  -8    0.01    0.40
  -8   1  -8   -0.05    0.44
   6   0  -8    0.14    0.31
  -6   0   8    0.72    0.38
   5   0  -8    0.33    0.26
  -5   0   8    0.27    0.32
   4   0  -8    0.20    0.21
  -4   0   8   -0.06    0.26
   3   0  -8    0.17    0.15
  -3   0   8    0.14    0.21
   2   0  -8    1.22    0.18
  -2   0   8    1.19    0.25
   1   0  -8    0.14    0.12
  -1   0   8    0.01    0.18
   0   0   8    6.84    0.40
  -1   0  -8   22.07    0.88
  -2   0  -8    4.52    0.36
  -3   0  -8    0.49    0.22
  -4   0  -8    3.36    0.37
  -5   0  -8    0.30    0.31
  -6   0  -8    0.28    0.35
  -7   0  -8   -0.11    0.38
  -8   0  -8    1.18    0.49
   6  -1  -8    0.62    0.31
  -6   1   8   -0.15    0.32
   5  -1  -8    0.24    0.26
  -5   1   8    0.13    0.26
   4  -1  -8    0.62    0.20
  -4   1   8    0.16    0.25
   3  -1  -8   -0.22    0.14
  -3   1   8   -0.07    0.21
   2  -1  -8   40.89    1.46
  -2   1   8   40.76    1.50
  -1   1   8    3.66    0.28
   0  -1  -8   23.70    0.91
   0   1   8   23.88    0.92
  -1  -1  -8    1.46    0.20
  -2  -1  -8   11.15    0.53
  -3  -1  -8    5.92    0.41
  -4  -1  -8   16.68    0.82
  -5  -1  -8   12.53    0.73
  -6  -1  -8    0.99    0.37
  -7  -1  -8    0.21    0.38
  -8  -1  -8    1.16    0.48
   6  -2  -8    0.10    0.30
  -6   2   8    0.43    0.33
   5  -2  -8    4.25    0.40
  -5   2   8    4.21    0.42
   4  -2  -8    0.59    0.21
  -4   2   8    0.72    0.25
   3  -2  -8    0.14    0.17
  -3   2   8    0.47    0.19
   2  -2  -8    7.01    0.37
   2  -2  -8    6.52    0.40
  -2   2   8    7.77    0.42
   1  -2  -8    5.67    0.38
  -1   2   8    5.48    0.33
   0  -2  -8    1.71    0.19
  -1  -2  -8    5.03    0.32
  -2  -2  -8   -0.12    0.14
  -3  -2  -8   10.16    0.54
  -4  -2  -8    2.79    0.34
  -5  -2  -8    0.08    0.25
  -5  -2  -8   -0.10    0.28
  -6  -2  -8    3.09    0.39
  -6  -2  -8    3.59    0.50
  -7  -2  -8    0.87    0.46
  -8  -2  -8   -0.44    0.40
   6  -3  -8    0.40    0.29
   5  -3  -8    0.87    0.28
  -5   3   8    0.49    0.25
   4  -3  -8    2.48    0.28
  -4   3   8    2.45    0.30
   3  -3  -8    6.22    0.36
   3  -3  -8    5.74    0.37
  -3   3   8    5.46    0.37
   2  -3  -8    0.02    0.14
   2  -3  -8    0.09    0.16
  -2   3   8    0.48    0.16
   1  -3  -8   -0.08    0.14
  -1   3   8    0.09    0.12
   0  -3  -8   11.64    0.58
   0  -3  -8   11.94    0.49
  -1  -3  -8    8.08    0.39
  -1  -3  -8    7.78    0.46
  -2  -3  -8    0.13    0.06
  -2  -3  -8    0.15    0.14
  -3  -3  -8    0.43    0.21
  -3  -3  -8    0.86    0.23
  -4  -3  -8    2.30    0.31
  -4  -3  -8    2.14    0.31
  -5  -3  -8    9.43    0.60
  -5  -3  -8   10.61    0.62
  -6  -3  -8    0.44    0.34
  -6  -3  -8    0.34    0.27
  -7  -3  -8    0.34    0.39
  -8  -3  -8    0.90    0.44
   6  -4  -8   -0.14    0.30
   5  -4  -8    0.66    0.25
   4  -4  -8    0.00    0.19
  -4   4   8    0.11    0.18
   3  -4  -8    0.19    0.17
   3  -4  -8    0.14    0.17
  -3   4   8    0.31    0.17
   2  -4  -8   22.06    0.90
   2  -4  -8   23.07    0.88
  -2   4   8   22.70    0.86
   1  -4  -8   40.27    1.44
  -1   4   8   38.45    1.38
   0  -4  -8   85.96    2.97
   0  -4  -8   91.02    3.06
  -1  -4  -8  124.11    4.23
  -1  -4  -8  123.90    4.15
  -2  -4  -8    2.06    0.24
  -2  -4  -8    2.87    0.24
  -3  -4  -8   15.83    0.70
  -3  -4  -8   15.64    0.72
  -4  -4  -8   24.24    1.01
  -4  -4  -8   23.54    1.00
  -5  -4  -8    9.86    0.58
  -5  -4  -8   10.74    0.66
  -6  -4  -8    1.25    0.29
  -6  -4  -8    1.21    0.35
  -7  -4  -8   -0.24    0.35
  -8  -4  -8   -0.45    0.38
   6  -5  -8    0.73    0.31
   5  -5  -8    2.83    0.34
   4  -5  -8    4.46    0.37
   3  -5  -8    0.04    0.19
   3  -5  -8    0.07    0.18
   2  -5  -8   52.14    1.81
   2  -5  -8   50.25    1.82
   1  -5  -8   14.32    0.66
  -1   5   8   14.99    0.56
   0  -5  -8    0.45    0.10
   0  -5  -8    0.25    0.18
  -1  -5  -8   12.69    0.61
  -1  -5  -8   12.63    0.51
  -2  -5  -8    2.97    0.28
  -3  -5  -8   28.33    1.14
  -3  -5  -8   28.41    1.08
  -4  -5  -8    4.00    0.35
  -4  -5  -8    3.40    0.35
  -5  -5  -8    3.40    0.35
  -5  -5  -8    3.60    0.41
  -6  -5  -8    4.85    0.45
  -6  -5  -8    4.51    0.51
  -7  -5  -8    0.99    0.38
  -8  -5  -8   -0.08    0.39
   6  -6  -8    0.04    0.29
   5  -6  -8    0.27    0.25
   4  -6  -8    1.69    0.26
   3  -6  -8    0.30    0.18
   3  -6  -8    0.24    0.22
   2  -6  -8    0.22    0.13
   2  -6  -8    0.22    0.20
   1  -6  -8    0.15    0.19
   1  -6  -8    0.02    0.08
   0  -6  -8   17.06    0.74
   0  -6  -8   17.18    0.61
  -1  -6  -8    7.97    0.35
  -1  -6  -8    7.71    0.48
  -3  -6  -8    0.58    0.25
  -3  -6  -8    0.90    0.20
  -4  -6  -8    4.30    0.40
  -4  -6  -8    3.96    0.37
  -5  -6  -8   -0.26    0.22
  -5  -6  -8    0.28    0.27
  -6  -6  -8    0.27    0.27
  -6  -6  -8    0.20    0.32
  -7  -6  -8    1.23    0.43
  -8  -6  -8    0.06    0.38
   6  -7  -8    0.01    0.29
   5  -7  -8   -0.04    0.23
   4  -7  -8    0.07    0.20
   3  -7  -8    9.49    0.55
   3  -7  -8    8.22    0.48
   2  -7  -8   20.97    0.84
   2  -7  -8   20.86    0.90
   1  -7  -8    1.28    0.25
   0  -7  -8   17.05    0.76
  -1  -7  -8   10.53    0.40
  -1  -7  -8   10.37    0.56
  -2  -7  -8    0.35    0.14
  -3  -7  -8    8.16    0.43
  -3  -7  -8    7.71    0.50
  -4  -7  -8   26.05    1.07
  -4  -7  -8   23.80    0.99
  -5  -7  -8    2.41    0.36
  -5  -7  -8    2.09    0.31
  -6  -7  -8    0.39    0.28
  -6  -7  -8    0.34    0.29
  -7  -7  -8    0.17    0.36
  -8  -7  -8    0.59    0.39
   5  -8  -8    3.17    0.37
   4  -8  -8    0.25    0.22
   3  -8  -8    0.17    0.25
   3  -8  -8    0.42    0.20
   2  -8  -8    3.28    0.29
   2  -8  -8    3.24    0.38
   1  -8  -8    2.09    0.31
   0  -8  -8   15.85    0.78
  -1  -8  -8    0.89    0.26
  -2  -8  -8    4.96    0.27
  -3  -8  -8   19.11    0.76
  -3  -8  -8   19.18    0.88
  -4  -8  -8    1.43    0.34
  -4  -8  -8    1.85    0.26
  -5  -8  -8    3.90    0.42
  -5  -8  -8    4.82    0.41
  -6  -8  -8    0.76    0.32
  -6  -8  -8    0.53    0.28
  -7  -8  -8    0.78    0.36
  -8  -8  -8    0.35    0.37
   5  -9  -8    0.42    0.30
   4  -9  -8    0.10    0.25
   3  -9  -8    0.75    0.22
   3  -9  -8    0.81    0.31
   2  -9  -8    1.09    0.24
   2  -9  -8    0.85    0.28
   1  -9  -8   -0.11    0.28
   0  -9  -8   20.41    0.96
  -1  -9  -8    8.11    0.55
  -2  -9  -8    6.26    0.52
  -3  -9  -8    0.30    0.27
  -3  -9  -8    0.73    0.18
  -4  -9  -8   13.61    0.78
  -4  -9  -8   12.96    0.62
  -5  -9  -8   -0.02    0.32
  -5  -9  -8    0.36    0.24
  -6  -9  -8   -0.05    0.28
  -6  -9  -8    0.17    0.33
  -7  -9  -8   -0.15    0.33
   5 -10  -8   -0.06    0.30
   4 -10  -8    0.11    0.23
   3 -10  -8    3.69    0.43
   3 -10  -8    2.67    0.33
   2 -10  -8   32.52    1.23
   2 -10  -8   31.68    1.33
   1 -10  -8    1.52    0.37
   0 -10  -8    4.21    0.46
  -1 -10  -8    2.34    0.38
  -2 -10  -8    0.04    0.30
  -3 -10  -8    1.02    0.38
  -4 -10  -8    8.66    0.69
  -5 -10  -8    0.04    0.35
  -5 -10  -8    0.14    0.23
  -6 -10  -8    0.00    0.28
  -7 -10  -8    0.33    0.36
   5 -11  -8    0.61    0.31
   4 -11  -8    0.29    0.26
   3 -11  -8    0.01    0.22
   3 -11  -8    0.93    0.35
   2 -11  -8    0.07    0.32
   2 -11  -8    0.14    0.20
   1 -11  -8    0.03    0.32
   0 -11  -8    4.18    0.48
  -1 -11  -8    1.17    0.36
  -2 -11  -8    9.65    0.69
  -3 -11  -8    8.73    0.67
  -4 -11  -8    1.54    0.44
  -5 -11  -8    0.15    0.39
   4 -12  -8   -0.08    0.28
   3 -12  -8   -0.15    0.24
   3 -12  -8    0.85    0.36
   2 -12  -8    2.50    0.46
   2 -12  -8    2.12    0.32
   1 -12  -8    2.86    0.49
   0 -12  -8    1.96    0.45
  -1 -12  -8    0.15    0.32
  -2 -12  -8    0.88    0.38
  -3 -12  -8    0.14    0.35
  -4 -12  -8    0.38    0.36
  -5 -12  -8    0.47    0.42
   4 -13  -8    0.94    0.33
   3 -13  -8    0.19    0.25
   3 -13  -8    0.23    0.34
   2 -13  -8    6.49    0.46
   2 -13  -8    6.50    0.64
   1 -13  -8    0.33    0.22
   1 -13  -8    0.33    0.36
   0 -13  -8    1.26    0.42
  -1 -13  -8    4.59    0.57
  -2 -13  -8    1.96    0.46
  -3 -13  -8    0.19    0.38
  -4 -13  -8   -0.13    0.42
  -5 -13  -8    0.91    0.47
   3 -14  -8    1.45    0.53
   2 -14  -8    1.26    0.46
   1 -14  -8    3.09    0.51
   0 -14  -8    1.58    0.47
  -1 -14  -8   -0.03    0.43
  -2 -14  -8    2.39    0.50
  -3 -14  -8    6.62    0.68
   1   7  -9   -0.07    0.35
   0   7  -9    0.77    0.42
  -1   7  -9    1.32    0.45
  -2   7  -9   -0.86    0.37
  -3   7  -9    0.38    0.38
  -3  -6   9    0.07    0.44
  -2  -6   9    1.03    0.43
  -1  -6   9    2.14    0.45
   0   6  -9    0.11    0.32
  -1   6  -9    3.54    0.47
  -2   6  -9   -0.12    0.33
  -3   6  -9    0.10    0.33
  -4   6  -9    0.55    0.42
  -5   6  -9   -0.15    0.38
  -3  -5   9    0.41    0.37
  -2  -5   9    2.70    0.46
  -1  -5   9    0.30    0.37
   0   5  -9    1.31    0.38
  -1   5  -9    2.29    0.39
  -2   5  -9    0.26    0.32
  -3   5  -9    1.09    0.35
  -4   5  -9    2.52    0.45
  -5   5  -9    0.33    0.43
  -4  -4   9   -0.65    0.33
  -3  -4   9    0.10    0.37
  -2  -4   9    0.81    0.34
  -1  -4   9    2.00    0.37
   0   4  -9    0.66    0.30
  -1   4  -9    4.42    0.43
  -2   4  -9    1.74    0.35
  -3   4  -9    1.38    0.34
  -4   4  -9    0.11    0.32
  -5   4  -9    1.47    0.41
  -6   4  -9    0.13    0.40
  -5  -3   9   -0.33    0.36
  -4  -3   9    0.15    0.39
  -3  -3   9    0.59    0.36
  -2  -3   9    4.07    0.45
  -1  -3   9    2.39    0.40
   0   3  -9    6.66    0.50
  -1   3  -9    5.02    0.43
  -2   3  -9    0.78    0.28
  -3   3  -9    1.13    0.31
  -4   3  -9    0.54    0.35
  -5   3  -9    0.67    0.36
  -6   3  -9   -0.53    0.41
  -7   3  -9   -0.28    0.43
  -5  -2   9    0.48    0.40
  -4  -2   9   -0.10    0.30
  -3  -2   9    2.48    0.41
  -2  -2   9    7.91    0.58
  -1  -2   9    7.06    0.51
   0   2  -9   25.07    1.04
  -1   2  -9    6.33    0.45
  -2   2  -9    0.37    0.28
  -3   2  -9   14.39    0.73
  -4   2  -9    4.58    0.46
  -5   2  -9   -0.19    0.32
  -6   2  -9   -0.40    0.37
  -7   2  -9    0.40    0.49
  -5  -1   9    0.65    0.35
  -4  -1   9    1.38    0.34
  -3  -1   9    0.09    0.27
   2   1  -9   -0.03    0.16
  -2  -1   9    0.03    0.25
   1   1  -9    6.84    0.36
  -1  -1   9    6.69    0.46
   0   1  -9    1.77    0.29
  -1   1  -9    1.61    0.26
  -2   1  -9   10.41    0.57
  -3   1  -9    2.36    0.32
  -4   1  -9   -0.01    0.26
  -5   1  -9    4.21    0.48
  -6   1  -9    2.03    0.46
  -7   1  -9    0.56    0.44
   6   0  -9    0.00    0.54
  -6   0   9    0.48    0.39
   5   0  -9   -0.16    0.26
  -5   0   9    0.27    0.30
   4   0  -9    0.19    0.22
  -4   0   9    0.40    0.30
   3   0  -9    4.43    0.34
  -3   0   9    4.61    0.44
   2   0  -9    3.75    0.29
  -2   0   9    3.69    0.36
   1   0  -9    6.75    0.36
  -1   0   9    5.98    0.42
   0   0  -9    6.55    0.41
  -1   0  -9   18.46    0.79
  -2   0  -9    0.24    0.20
  -3   0  -9    3.87    0.37
  -4   0  -9    2.41    0.35
  -5   0  -9    0.26    0.32
  -6   0  -9    0.02    0.36
  -7   0  -9    0.21    0.41
  -8   0  -9    0.00    0.46
   6  -1  -9    3.02    0.44
  -6   1   9    2.73    0.47
   5  -1  -9    1.14    0.31
  -5   1   9    0.74    0.34
   4  -1  -9    0.15    0.21
  -4   1   9    0.00    0.23
   3  -1  -9    5.79    0.38
  -3   1   9    6.34    0.47
   2  -1  -9    3.90    0.29
  -2   1   9    4.52    0.38
  -1   1   9   -0.09    0.17
   0  -1  -9   18.64    0.78
  -1  -1  -9   29.63    1.14
  -2  -1  -9    2.76    0.31
  -3  -1  -9   18.79    0.83
  -4  -1  -9   26.66    1.12
  -5  -1  -9    0.06    0.28
  -6  -1  -9    1.99    0.43
  -7  -1  -9    0.10    0.45
  -8  -1  -9    0.40    0.47
   6  -2  -9    0.11    0.28
   5  -2  -9    0.28    0.27
  -5   2   9    0.09    0.25
   4  -2  -9    0.20    0.23
  -4   2   9    0.10    0.25
   3  -2  -9    0.30    0.20
  -3   2   9    0.41    0.22
   2  -2  -9    1.09    0.19
   2  -2  -9    1.44    0.24
  -2   2   9    1.23    0.24
   1  -2  -9   25.12    1.06
  -1   2   9   27.22    1.02
   0  -2  -9    4.50    0.30
  -1  -2  -9    0.60    0.19
  -2  -2  -9    1.74    0.23
  -3  -2  -9    9.05    0.51
  -4  -2  -9   11.88    0.65
  -5  -2  -9   11.79    0.73
  -5  -2  -9   12.30    0.72
  -6  -2  -9   -0.32    0.27
  -6  -2  -9   -0.20    0.38
  -7  -2  -9    1.08    0.42
  -8  -2  -9   -0.18    0.43
   6  -3  -9    0.00    0.33
   5  -3  -9    2.26    0.35
   4  -3  -9    7.23    0.49
  -4   3   9    7.04    0.48
   3  -3  -9    6.82    0.41
  -3   3   9    6.93    0.44
   2  -3  -9    2.79    0.26
   2  -3  -9    3.40    0.32
  -2   3   9    3.51    0.30
   1  -3  -9   15.17    0.70
  -1   3   9   15.55    0.65
   0  -3  -9   23.94    1.03
   0  -3  -9   25.81    0.94
  -1  -3  -9    1.06    0.24
  -1  -3  -9    0.84    0.18
  -2  -3  -9    3.26    0.28
  -3  -3  -9    3.60    0.33
  -3  -3  -9    3.54    0.37
  -4  -3  -9   11.11    0.65
  -4  -3  -9   11.03    0.66
  -5  -3  -9    1.19    0.30
  -5  -3  -9    1.72    0.39
  -6  -3  -9    2.28    0.39
  -6  -3  -9    1.78    0.45
  -7  -3  -9    0.20    0.39
  -8  -3  -9    0.07    0.44
   6  -4  -9    1.36    0.38
   5  -4  -9    0.07    0.24
   4  -4  -9    1.85    0.30
   3  -4  -9   11.24    0.55
  -3   4   9   11.06    0.54
   2  -4  -9   24.13    0.95
   2  -4  -9   22.24    0.92
  -2   4   9   24.23    0.91
   1  -4  -9   19.10    0.84
  -1   4   9   20.92    0.78
   0  -4  -9   30.02    1.08
   0  -4  -9   29.77    1.18
  -1  -4  -9    1.18    0.18
  -1  -4  -9    0.62    0.22
  -3  -4  -9   28.54    1.15
  -3  -4  -9   30.22    1.21
  -4  -4  -9   42.38    1.60
  -4  -4  -9   41.96    1.62
  -5  -4  -9    0.20    0.32
  -5  -4  -9    0.12    0.24
  -6  -4  -9    0.33    0.34
  -6  -4  -9   -0.12    0.28
  -7  -4  -9    0.13    0.42
  -8  -4  -9   -0.16    0.41
   6  -5  -9    0.05    0.31
   5  -5  -9    0.20    0.25
   4  -5  -9   -0.11    0.20
   3  -5  -9    0.08    0.18
   2  -5  -9   40.72    1.51
   2  -5  -9   40.28    1.47
   1  -5  -9    2.32    0.19
   1  -5  -9    1.75    0.28
   0  -5  -9    3.25    0.32
   0  -5  -9    2.93    0.23
  -1  -5  -9    4.18    0.27
  -1  -5  -9    4.98    0.38
  -2  -5  -9    2.92    0.27
  -3  -5  -9    6.39    0.43
  -3  -5  -9    6.36    0.46
  -4  -5  -9    8.51    0.55
  -4  -5  -9    9.03    0.52
  -5  -5  -9    9.40    0.62
  -5  -5  -9    9.49    0.60
  -6  -5  -9    0.14    0.32
  -6  -5  -9    0.32    0.30
  -7  -5  -9    0.30    0.36
  -8  -5  -9    0.16    0.44
   5  -6  -9    0.28    0.28
   4  -6  -9    0.36    0.22
   3  -6  -9    2.01    0.26
   2  -6  -9    3.27    0.30
   2  -6  -9    3.76    0.35
   1  -6  -9   10.60    0.57
   0  -6  -9    8.15    0.48
   0  -6  -9    7.83    0.34
  -1  -6  -9    0.09    0.13
  -1  -6  -9    0.03    0.22
  -2  -6  -9    1.63    0.21
  -3  -6  -9    2.03    0.33
  -3  -6  -9    1.54    0.25
  -4  -6  -9    3.46    0.38
  -4  -6  -9    2.95    0.33
  -5  -6  -9    0.00    0.28
  -5  -6  -9    0.12    0.28
  -6  -6  -9    3.32    0.46
  -6  -6  -9    3.32    0.43
  -7  -6  -9    0.56    0.40
  -8  -6  -9    0.36    0.40
   5  -7  -9    0.32    0.26
   4  -7  -9    0.68    0.24
   3  -7  -9    2.75    0.30
   3  -7  -9    3.18    0.50
   2  -7  -9   11.17    0.60
   2  -7  -9   10.29    0.53
   1  -7  -9    1.61    0.29
   0  -7  -9   20.68    0.89
  -1  -7  -9    5.19    0.45
  -3  -7  -9   31.68    1.27
  -3  -7  -9   31.11    1.17
  -4  -7  -9   21.43    0.91
  -4  -7  -9   22.14    0.97
  -5  -7  -9    1.42    0.31
  -5  -7  -9    1.38    0.31
  -6  -7  -9    0.08    0.29
  -6  -7  -9    0.11    0.28
  -7  -7  -9    0.25    0.33
  -8  -7  -9    0.46    0.43
   5  -8  -9   -0.06    0.28
   4  -8  -9    0.13    0.22
   3  -8  -9    0.32    0.30
   3  -8  -9    0.92    0.25
   2  -8  -9   11.05    0.65
   2  -8  -9   11.41    0.56
   1  -8  -9   10.43    0.59
   0  -8  -9    0.10    0.24
  -1  -8  -9    0.05    0.25
  -2  -8  -9    7.15    0.50
  -3  -8  -9    0.27    0.28
  -3  -8  -9    0.27    0.17
  -4  -8  -9    7.39    0.57
  -4  -8  -9    6.89    0.46
  -5  -8  -9    0.17    0.24
  -5  -8  -9   -0.10    0.26
  -6  -8  -9    0.48    0.35
  -6  -8  -9    1.28    0.31
  -7  -8  -9    0.19    0.35
  -8  -8  -9    0.79    0.44
   5  -9  -9    0.16    0.30
   4  -9  -9   -0.05    0.26
   3  -9  -9    0.53    0.29
   3  -9  -9    0.79    0.24
   2  -9  -9    2.41    0.29
   2  -9  -9    2.99    0.40
   1  -9  -9   -0.22    0.27
   0  -9  -9    2.86    0.38
  -1  -9  -9    0.21    0.27
  -2  -9  -9    1.17    0.32
  -3  -9  -9    0.06    0.30
  -4  -9  -9    0.26    0.19
  -4  -9  -9   -0.36    0.31
  -5  -9  -9    0.57    0.35
  -5  -9  -9    0.79    0.25
  -6  -9  -9    0.31    0.30
  -6  -9  -9    0.34    0.36
  -7  -9  -9    0.36    0.36
   5 -10  -9    0.09    0.46
   4 -10  -9    2.53    0.36
   3 -10  -9    8.51    0.55
   3 -10  -9    8.83    0.64
   2 -10  -9    0.23    0.21
   2 -10  -9    0.24    0.28
   1 -10  -9    1.02    0.33
   0 -10  -9   18.29    0.92
  -1 -10  -9    5.99    0.52
  -2 -10  -9    4.28    0.47
  -3 -10  -9   19.96    0.98
  -4 -10  -9    2.40    0.44
  -5 -10  -9   -0.02    0.36
  -6 -10  -9    0.16    0.38
  -6 -10  -9    0.56    0.30
  -7 -10  -9    0.82    0.38
   4 -11  -9    0.02    0.25
   3 -11  -9    0.48    0.36
   3 -11  -9   -0.16    0.25
   2 -11  -9   -0.29    0.33
   2 -11  -9   -0.11    0.23
   1 -11  -9    4.75    0.53
   0 -11  -9    3.00    0.47
  -1 -11  -9    2.27    0.42
  -2 -11  -9    0.30    0.37
  -3 -11  -9    4.67    0.53
  -4 -11  -9    8.70    0.69
  -5 -11  -9    2.90    0.51
  -6 -11  -9    0.20    0.36
   4 -12  -9    0.45    0.32
   3 -12  -9   -0.01    0.24
   3 -12  -9   -0.07    0.47
   2 -12  -9    0.19    0.36
   2 -12  -9    0.12    0.23
   1 -12  -9    1.08    0.38
   0 -12  -9    0.89    0.40
  -1 -12  -9   -0.22    0.33
  -2 -12  -9    5.18    0.56
  -3 -12  -9   -0.06    0.35
  -4 -12  -9   -0.09    0.40
  -5 -12  -9   -0.19    0.40
   3 -13  -9    5.84    0.50
   2 -13  -9   -0.20    0.22
   2 -13  -9    0.38    0.41
   1 -13  -9    6.73    0.66
   0 -13  -9    5.45    0.60
  -1 -13  -9    0.47    0.38
  -2 -13  -9    0.65    0.40
  -3 -13  -9    1.16    0.46
  -4 -13  -9    2.57    0.49
  -5 -13  -9    0.17    0.45
   2 -14  -9    2.51    0.49
   2 -14  -9    3.74    0.41
   1 -14  -9    1.07    0.31
   1 -14  -9    1.80    0.46
   0 -14  -9    0.02    0.43
  -1 -14  -9    0.23    0.41
  -2 -14  -9    1.49    0.47
  -3 -14  -9    0.23    0.43
   1   6 -10   -0.22    0.37
   0   6 -10    1.66    0.45
  -1   6 -10    0.91    0.41
  -2   6 -10   -0.29    0.36
  -3   6 -10    1.72    0.44
  -2  -5  10   -0.38    0.36
   1   5 -10    1.57    0.40
  -1  -5  10    1.10    0.40
   0   5 -10    4.67    0.52
  -1   5 -10    1.02    0.37
  -2   5 -10    0.68    0.40
  -3   5 -10    1.17    0.38
  -4   5 -10   -0.18    0.40
  -5   5 -10    0.90    0.42
  -3  -4  10    0.18    0.42
  -2  -4  10    0.03    0.35
  -1  -4  10   -0.46    0.31
   0   4 -10    0.72    0.36
  -1   4 -10    0.07    0.34
  -2   4 -10    1.64    0.38
  -3   4 -10    0.57    0.32
  -4   4 -10    0.32    0.36
  -5   4 -10    0.91    0.40
  -4  -3  10    0.51    0.42
  -3  -3  10    1.76    0.40
  -2  -3  10    4.31    0.52
  -1  -3  10    2.17    0.39
   0   3 -10   -0.11    0.27
  -1   3 -10    0.19    0.29
  -2   3 -10    2.18    0.38
  -3   3 -10    2.22    0.38
  -4   3 -10    2.34    0.41
  -5   3 -10    0.35    0.37
  -6   3 -10    0.42    0.42
  -4  -2  10    0.25    0.37
  -3  -2  10   -0.10    0.33
  -2  -2  10    0.12    0.33
  -1  -2  10   17.12    0.85
   0   2 -10    5.65    0.50
  -1   2 -10    0.93    0.32
  -2   2 -10    2.05    0.38
  -3   2 -10    0.50    0.29
  -4   2 -10    0.26    0.34
  -5   2 -10    0.31    0.35
  -6   2 -10    0.58    0.41
  -7   2 -10   -0.22    0.44
  -5  -1  10   -0.06    0.33
  -4  -1  10   -0.01    0.32
  -3  -1  10    1.04    0.32
  -2  -1  10    1.28    0.31
  -1  -1  10    0.07    0.28
   0   1 -10    0.12    0.23
  -1   1 -10    0.64    0.26
  -2   1 -10    0.53    0.26
  -3   1 -10    1.33    0.30
  -4   1 -10    2.79    0.41
  -5   1 -10    8.77    0.68
  -6   1 -10    0.19    0.38
  -7   1 -10   -0.25    0.48
  -5   0  10    0.73    0.38
  -4   0  10    1.25    0.37
   3   0 -10    1.16    0.24
  -3   0  10    1.20    0.33
   2   0 -10   10.21    0.51
  -2   0  10   10.27    0.59
   1   0 -10    0.67    0.17
  -1   0  10    0.61    0.27
   0   0 -10   11.23    0.59
  -1   0 -10    0.94    0.25
  -2   0 -10   16.46    0.76
  -3   0 -10    3.92    0.39
  -4   0 -10    1.42    0.34
  -5   0 -10    0.39    0.38
  -6   0 -10    0.39    0.40
  -7   0 -10   -0.30    0.40
   5  -1 -10    0.37    0.30
  -5   1  10    0.89    0.36
   4  -1 -10    0.37    0.25
  -4   1  10   -0.27    0.28
   3  -1 -10    0.46    0.19
  -3   1  10    0.55    0.25
   2  -1 -10    0.35    0.18
  -2   1  10    0.52    0.25
   1  -1 -10   18.17    0.73
  -1   1  10   17.82    0.81
   0  -1 -10    6.49    0.41
  -1  -1 -10    0.12    0.20
  -2  -1 -10    0.74    0.25
  -3  -1 -10    6.25    0.46
  -4  -1 -10    1.28    0.34
  -5  -1 -10    0.97    0.36
  -6  -1 -10   -0.09    0.38
  -7  -1 -10   -0.08    0.41
   5  -2 -10    0.83    0.31
   4  -2 -10    0.01    0.21
  -4   2  10    0.36    0.28
   3  -2 -10    0.15    0.19
  -3   2  10    0.34    0.25
   2  -2 -10    7.25    0.44
   2  -2 -10    7.46    0.49
  -2   2  10    8.14    0.48
   1  -2 -10    2.16    0.32
  -1   2  10    2.10    0.28
   0  -2 -10    2.75    0.29
  -1  -2 -10    0.35    0.20
  -2  -2 -10    8.27    0.49
  -3  -2 -10    1.36    0.28
  -4  -2 -10    2.69    0.40
  -5  -2 -10    1.74    0.39
  -5  -2 -10    2.26    0.37
  -6  -2 -10    1.83    0.37
  -6  -2 -10    3.09    0.51
  -7  -2 -10    0.70    0.44
  -8  -2 -10    0.31    0.48
   5  -3 -10    0.16    0.28
   4  -3 -10    2.58    0.33
   3  -3 -10    2.42    0.30
  -3   3  10    2.74    0.32
   2  -3 -10   14.29    0.70
   2  -3 -10   14.41    0.65
  -2   3  10   14.78    0.66
   1  -3 -10    3.97    0.40
  -1   3  10    4.14    0.33
   0  -3 -10    7.29    0.51
   0  -3 -10    6.68    0.39
  -1  -3 -10    1.59    0.23
  -1  -3 -10    1.41    0.29
  -2  -3 -10    9.50    0.59
  -2  -3 -10    9.65    0.50
  -3  -3 -10    1.40    0.32
  -3  -3 -10    1.65    0.30
  -4  -3 -10    8.20    0.57
  -4  -3 -10    7.52    0.54
  -5  -3 -10    1.05    0.31
  -5  -3 -10    1.42    0.39
  -6  -3 -10   -0.47    0.33
  -6  -3 -10   -0.13    0.32
  -7  -3 -10   -0.08    0.45
  -8  -3 -10    0.53    0.48
   5  -4 -10   -0.13    0.28
   4  -4 -10    0.35    0.26
   3  -4 -10    6.27    0.42
   2  -4 -10    0.90    0.21
   2  -4 -10    1.47    0.26
  -2   4  10    1.63    0.22
   1  -4 -10    6.94    0.47
  -1   4  10    6.41    0.39
   0  -4 -10   11.95    0.64
   0  -4 -10   13.04    0.55
  -1  -4 -10    0.34    0.16
  -1  -4 -10   -0.04    0.22
  -2  -4 -10    0.12    0.25
  -2  -4 -10    0.13    0.17
  -3  -4 -10    6.66    0.56
  -3  -4 -10    7.07    0.48
  -4  -4 -10    0.23    0.27
  -4  -4 -10    0.37    0.26
  -5  -4 -10    4.86    0.48
  -5  -4 -10    5.69    0.52
  -6  -4 -10    0.18    0.29
  -6  -4 -10    0.00    0.33
  -7  -4 -10    0.26    0.39
  -8  -4 -10    1.00    0.53
   5  -5 -10    0.15    0.26
   4  -5 -10    0.85    0.25
   3  -5 -10    1.01    0.23
   2  -5 -10   -0.08    0.21
   2  -5 -10   -0.40    0.15
   1  -5 -10    9.27    0.43
   1  -5 -10    9.45    0.55
   0  -5 -10    0.17    0.14
   0  -5 -10    0.10    0.23
  -1  -5 -10    1.01    0.18
  -1  -5 -10    0.90    0.26
  -2  -5 -10   37.55    1.61
  -2  -5 -10   46.91    1.55
  -3  -5 -10   -0.06    0.23
  -3  -5 -10   -0.07    0.19
  -4  -5 -10   12.91    0.66
  -4  -5 -10   11.88    0.69
  -5  -5 -10    0.44    0.33
  -5  -5 -10   -0.05    0.26
  -6  -5 -10    0.72    0.31
  -6  -5 -10    0.80    0.36
  -7  -5 -10    1.32    0.43
  -8  -5 -10    0.73    0.44
   5  -6 -10    0.53    0.28
   4  -6 -10    2.64    0.35
   3  -6 -10    2.47    0.30
   2  -6 -10   12.39    0.58
   2  -6 -10   11.67    0.62
   1  -6 -10   15.11    0.74
   0  -6 -10    5.90    0.44
  -1  -6 -10   -0.14    0.21
  -1  -6 -10    0.03    0.14
  -2  -6 -10   10.27    0.49
  -2  -6 -10    9.36    0.58
  -3  -6 -10    3.55    0.33
  -3  -6 -10    3.53    0.39
  -4  -6 -10    2.89    0.35
  -4  -6 -10    2.35    0.36
  -5  -6 -10    3.40    0.44
  -5  -6 -10    2.72    0.38
  -6  -6 -10    0.45    0.37
  -6  -6 -10    0.29    0.33
  -7  -6 -10    3.22    0.48
  -8  -6 -10    0.10    0.41
   5  -7 -10    0.62    0.29
   4  -7 -10   -0.21    0.22
   3  -7 -10    3.99    0.38
   2  -7 -10    3.93    0.33
   2  -7 -10    3.53    0.38
   1  -7 -10    7.72    0.52
   0  -7 -10   11.18    0.64
  -1  -7 -10    0.94    0.28
  -2  -7 -10    0.76    0.27
  -2  -7 -10   -0.02    0.16
  -3  -7 -10    1.74    0.25
  -3  -7 -10    1.63    0.35
  -4  -7 -10    0.74    0.25
  -4  -7 -10    0.96    0.31
  -5  -7 -10   -0.03    0.28
  -5  -7 -10    0.21    0.28
  -6  -7 -10    0.34    0.33
  -6  -7 -10    0.23    0.34
  -7  -7 -10    0.99    0.41
  -8  -7 -10    1.05    0.47
   5  -8 -10   -0.16    0.26
   4  -8 -10    0.34    0.24
   3  -8 -10    1.12    0.26
   2  -8 -10    5.10    0.46
   2  -8 -10    5.85    0.41
   1  -8 -10    1.59    0.30
   0  -8 -10    1.56    0.30
  -1  -8 -10    6.21    0.52
  -2  -8 -10    1.17    0.29
  -3  -8 -10   -0.03    0.25
  -4  -8 -10    1.25    0.35
  -4  -8 -10    1.12    0.25
  -5  -8 -10    7.92    0.53
  -5  -8 -10    7.34    0.62
  -6  -8 -10    0.71    0.33
  -6  -8 -10    0.15    0.34
  -7  -8 -10    0.60    0.35
   4  -9 -10    1.50    0.31
   3  -9 -10    2.50    0.33
   2  -9 -10    0.54    0.31
   2  -9 -10    0.27    0.22
   1  -9 -10    0.19    0.29
   0  -9 -10    1.79    0.36
  -1  -9 -10    7.58    0.60
  -2  -9 -10   15.58    0.81
  -3  -9 -10   -0.25    0.26
  -4  -9 -10   -0.27    0.27
  -5  -9 -10   -0.24    0.33
  -5  -9 -10   -0.21    0.22
  -6  -9 -10    0.70    0.28
  -6  -9 -10    0.37    0.38
  -7  -9 -10    0.50    0.38
   4 -10 -10    0.10    0.25
   3 -10 -10    0.05    0.24
   2 -10 -10    0.73    0.34
   2 -10 -10    0.58    0.24
   1 -10 -10   20.03    1.01
   0 -10 -10    1.80    0.36
  -1 -10 -10    1.67    0.40
  -2 -10 -10    1.85    0.37
  -3 -10 -10   -0.13    0.29
  -4 -10 -10    0.39    0.33
  -5 -10 -10    0.19    0.34
  -6 -10 -10    1.09    0.43
   4 -11 -10    0.12    0.28
   3 -11 -10    0.00    0.24
   2 -11 -10    2.98    0.46
   2 -11 -10    2.81    0.36
   1 -11 -10    3.05    0.45
   0 -11 -10    0.64    0.35
  -1 -11 -10    0.63    0.37
  -2 -11 -10    1.79    0.40
  -3 -11 -10    4.28    0.53
  -4 -11 -10    1.03    0.39
  -5 -11 -10    0.33    0.40
  -6 -11 -10    0.42    0.43
   3 -12 -10    0.36    0.26
   2 -12 -10    1.74    0.32
   2 -12 -10    2.35    0.48
   1 -12 -10   -0.07    0.32
   0 -12 -10   -0.20    0.38
  -1 -12 -10    8.69    0.70
  -2 -12 -10    0.68    0.38
  -3 -12 -10    1.82    0.45
  -4 -12 -10    0.20    0.42
  -5 -12 -10    0.01    0.42
  -6 -12 -10    1.05    0.47
   3 -13 -10    0.60    0.29
   2 -13 -10    2.02    0.45
   2 -13 -10    1.65    0.35
   1 -13 -10    1.67    0.44
   0 -13 -10    0.13    0.36
  -1 -13 -10    0.00    0.38
  -2 -13 -10    0.64    0.44
  -3 -13 -10    1.65    0.47
  -4 -13 -10    0.40    0.46
  -5 -13 -10    0.93    0.56
   2 -14 -10    0.33    0.45
   2 -14 -10    0.25    0.31
   1 -14 -10    0.66    0.28
   1 -14 -10    0.85    0.47
   0 -14 -10    0.56    0.42
  -1 -14 -10    0.01    0.39
  -2 -14 -10    0.17    0.41
   1   5 -11    0.39    0.40
   0   5 -11    0.48    0.38
  -1   5 -11   -0.57    0.34
  -2   5 -11   -0.14    0.40
  -3   5 -11    0.29    0.42
  -2  -4  11   -0.02    0.37
   1   4 -11    0.00    0.34
   0   4 -11    0.70    0.36
  -1   4 -11    0.43    0.36
  -2   4 -11    0.89    0.38
  -3   4 -11    0.20    0.34
  -4   4 -11   -0.34    0.36
  -5   4 -11    0.29    0.47
  -3  -3  11    0.42    0.37
  -2  -3  11    0.21    0.36
   1   3 -11    0.69    0.38
  -1  -3  11    0.44    0.35
   0   3 -11    1.39    0.37
  -1   3 -11    0.16    0.32
  -2   3 -11    2.34    0.45
  -3   3 -11    0.18    0.32
  -4   3 -11   -0.03    0.36
  -5   3 -11    0.12    0.39
  -3  -2  11    0.52    0.35
  -2  -2  11    0.57    0.38
  -1  -2  11    3.78    0.46
   0   2 -11    2.19    0.37
  -1   2 -11    1.99    0.40
  -2   2 -11   -0.15    0.29
  -3   2 -11    1.05    0.34
  -4   2 -11    0.49    0.35
  -5   2 -11    0.23    0.36
  -6   2 -11    0.39    0.48
  -4  -1  11    1.14    0.43
  -3  -1  11   -0.01    0.31
  -2  -1  11   -0.15    0.28
  -1  -1  11    0.81    0.34
   0   1 -11    3.18    0.42
  -1   1 -11    0.52    0.29
  -2   1 -11   14.05    0.79
  -3   1 -11   -0.13    0.28
  -4   1 -11    3.92    0.50
  -5   1 -11    0.48    0.37
  -6   1 -11    0.06    0.41
  -4   0  11   -0.13    0.35
  -3   0  11    1.63    0.37
  -2   0  11    0.84    0.34
  -1   0  11    4.03    0.43
   0   0 -11    1.84    0.33
  -1   0 -11    1.52    0.33
  -2   0 -11    1.17    0.29
  -3   0 -11    0.10    0.26
  -4   0 -11    0.60    0.33
  -5   0 -11    2.32    0.45
  -6   0 -11   -0.72    0.42
  -7   0 -11    0.70    0.55
  -5   1  11   -0.16    0.52
  -4   1  11    0.10    0.28
   3  -1 -11    0.17    0.22
  -3   1  11    0.61    0.27
   2  -1 -11    2.73    0.36
   2  -1 -11    3.29    0.31
  -2   1  11    2.77    0.38
   1  -1 -11    2.24    0.25
  -1   1  11    1.82    0.31
   0  -1 -11    3.74    0.35
  -1  -1 -11    0.42    0.24
  -2  -1 -11    2.71    0.36
  -3  -1 -11    0.50    0.30
  -4  -1 -11    2.05    0.38
  -5  -1 -11   -0.31    0.33
  -6  -1 -11   -0.31    0.44
  -7  -1 -11   -0.10    0.45
  -7  -1 -11    0.29    0.38
   5  -2 -11    0.02    0.31
   4  -2 -11    0.89    0.26
  -4   2  11    1.43    0.38
   3  -2 -11    0.13    0.22
  -3   2  11    0.16    0.25
   2  -2 -11    0.07    0.20
   2  -2 -11    0.19    0.24
  -2   2  11    0.30    0.25
   1  -2 -11    0.05    0.21
  -1   2  11    0.36    0.21
   0  -2 -11   -0.12    0.21
  -1  -2 -11    7.85    0.47
  -2  -2 -11   13.54    0.68
  -3  -2 -11    4.50    0.44
  -4  -2 -11    5.38    0.49
  -5  -2 -11    2.28    0.40
  -5  -2 -11    2.23    0.43
  -6  -2 -11    0.50    0.32
  -6  -2 -11    0.39    0.40
  -7  -2 -11   -0.19    0.48
  -7  -2 -11    0.15    0.41
   5  -3 -11   -0.21    0.29
   4  -3 -11    0.21    0.25
   3  -3 -11    0.52    0.21
  -3   3  11    0.32    0.36
   2  -3 -11    0.04    0.19
   2  -3 -11   -0.31    0.22
  -2   3  11   -0.03    0.21
   1  -3 -11    4.41    0.44
  -1   3  11    4.61    0.38
   0  -3 -11    3.54    0.40
   0  -3 -11    4.16    0.33
  -1  -3 -11   10.06    0.66
  -1  -3 -11   10.24    0.52
  -2  -3 -11    1.04    0.26
  -2  -3 -11    1.03    0.34
  -3  -3 -11    0.26    0.28
  -3  -3 -11    0.19    0.24
  -4  -3 -11    0.71    0.34
  -4  -3 -11    0.70    0.33
  -5  -3 -11   -0.06    0.33
  -5  -3 -11    0.13    0.33
  -6  -3 -11    0.87    0.40
  -6  -3 -11    0.10    0.32
  -7  -3 -11    0.76    0.46
  -7  -3 -11    0.71    0.46
   5  -4 -11    0.14    0.27
   4  -4 -11    1.58    0.30
   3  -4 -11   -0.13    0.23
   2  -4 -11    2.95    0.30
   2  -4 -11    3.07    0.36
   1  -4 -11   10.16    0.51
   1  -4 -11    9.78    0.61
   0  -4 -11    0.95    0.31
   0  -4 -11    1.11    0.21
  -1  -4 -11    1.25    0.34
  -1  -4 -11    0.66    0.21
  -2  -4 -11    0.27    0.28
  -2  -4 -11    0.35    0.22
  -3  -4 -11    1.63    0.31
  -3  -4 -11    1.59    0.35
  -4  -4 -11    4.10    0.47
  -4  -4 -11    4.61    0.47
  -5  -4 -11    0.56    0.35
  -5  -4 -11    0.61    0.38
  -6  -4 -11    0.52    0.34
  -6  -4 -11    0.26    0.41
  -7  -4 -11    0.78    0.44
   5  -5 -11    0.23    0.30
   4  -5 -11    0.80    0.30
   3  -5 -11    3.29    0.34
   2  -5 -11    3.95    0.34
   2  -5 -11    3.82    0.39
   1  -5 -11    0.19    0.24
   0  -5 -11    0.86    0.27
   0  -5 -11    1.35    0.21
  -1  -5 -11   35.91    1.33
  -1  -5 -11   36.71    1.46
  -2  -5 -11   11.79    0.72
  -2  -5 -11   11.45    0.58
  -3  -5 -11    3.00    0.35
  -3  -5 -11    2.40    0.38
  -4  -5 -11    0.34    0.31
  -4  -5 -11    0.62    0.31
  -5  -5 -11    9.00    0.62
  -5  -5 -11    8.96    0.69
  -6  -5 -11    0.37    0.41
  -6  -5 -11    0.04    0.30
  -7  -5 -11   -0.08    0.44
   5  -6 -11    0.40    0.34
   4  -6 -11   -0.14    0.23
   3  -6 -11    0.41    0.25
   2  -6 -11    0.76    0.27
   2  -6 -11    1.42    0.26
   1  -6 -11    0.25    0.23
   0  -6 -11    0.97    0.27
  -1  -6 -11    0.74    0.28
  -1  -6 -11    0.29    0.20
  -2  -6 -11   18.22    0.77
  -2  -6 -11   18.60    0.89
  -3  -6 -11    1.40    0.28
  -3  -6 -11    1.38    0.32
  -4  -6 -11    0.94    0.32
  -4  -6 -11    1.20    0.30
  -5  -6 -11    0.07    0.29
  -5  -6 -11   -0.12    0.31
  -6  -6 -11   -0.20    0.33
  -6  -6 -11    0.47    0.34
  -7  -6 -11    0.85    0.41
   4  -7 -11    0.24    0.25
   3  -7 -11    0.71    0.25
   2  -7 -11    0.67    0.29
   2  -7 -11    0.59    0.22
   1  -7 -11   14.49    0.75
   0  -7 -11    0.28    0.28
  -1  -7 -11    4.92    0.46
  -2  -7 -11    3.29    0.41
  -3  -7 -11    0.08    0.22
  -3  -7 -11    0.11    0.27
  -4  -7 -11    0.48    0.30
  -4  -7 -11    0.52    0.27
  -5  -7 -11    0.63    0.32
  -5  -7 -11    0.01    0.29
  -6  -7 -11    0.07    0.35
  -6  -7 -11   -0.04    0.33
  -7  -7 -11    0.03    0.40
   4  -8 -11    0.61    0.28
   3  -8 -11    0.09    0.23
   2  -8 -11    0.45    0.28
   2  -8 -11    0.34    0.22
   1  -8 -11    0.75    0.28
   0  -8 -11    0.06    0.24
  -1  -8 -11    5.49    0.48
  -2  -8 -11   17.95    0.91
  -3  -8 -11    0.71    0.31
  -4  -8 -11    8.70    0.73
  -4  -8 -11    9.09    0.64
  -5  -8 -11   -0.02    0.34
  -5  -8 -11    0.06    0.26
  -6  -8 -11    0.63    0.37
  -6  -8 -11    1.09    0.36
  -7  -8 -11   -0.18    0.38
   4  -9 -11   -0.22    0.28
   3  -9 -11    0.27    0.25
   2  -9 -11    0.19    0.23
   2  -9 -11   -0.37    0.28
   1  -9 -11    2.44    0.37
   0  -9 -11    0.91    0.34
  -1  -9 -11    6.69    0.54
  -2  -9 -11    0.16    0.28
  -3  -9 -11   -0.06    0.28
  -4  -9 -11    0.60    0.35
  -5  -9 -11    0.74    0.36
  -6  -9 -11   -0.60    0.36
  -7  -9 -11    0.15    0.37
   4 -10 -11    0.65    0.35
   3 -10 -11    0.63    0.30
   2 -10 -11    2.11    0.42
   2 -10 -11    2.37    0.33
   1 -10 -11    0.39    0.31
   0 -10 -11   -0.07    0.29
  -1 -10 -11    0.41    0.31
  -2 -10 -11   -0.02    0.29
  -3 -10 -11    0.21    0.32
  -4 -10 -11    0.44    0.35
  -5 -10 -11    0.27    0.39
  -6 -10 -11    0.02    0.41
   3 -11 -11   -0.22    0.25
   2 -11 -11    2.22    0.34
   2 -11 -11    1.29    0.41
   1 -11 -11    0.52    0.38
   0 -11 -11    0.06    0.32
  -1 -11 -11    3.45    0.47
  -2 -11 -11    6.57    0.62
  -3 -11 -11    0.44    0.36
  -4 -11 -11    4.46    0.54
  -5 -11 -11   -0.01    0.36
  -6 -11 -11   -0.30    0.37
   3 -12 -11   -0.33    0.25
   2 -12 -11    0.29    0.27
   2 -12 -11    0.36    0.39
   1 -12 -11    4.58    0.57
   0 -12 -11    0.87    0.38
  -1 -12 -11    1.13    0.45
  -2 -12 -11    1.92    0.45
  -3 -12 -11    1.45    0.46
  -4 -12 -11    0.33    0.44
  -5 -12 -11    0.14    0.45
   2 -13 -11    0.33    0.28
   2 -13 -11    0.34    0.38
   1 -13 -11    0.33    0.37
   0 -13 -11    0.11    0.41
  -1 -13 -11    0.60    0.45
  -2 -13 -11    1.07    0.42
  -3 -13 -11    0.57    0.47
  -4 -13 -11    2.71    0.58
   2 -14 -11    1.04    0.37
   0 -14 -11    0.65    0.47
   0   4 -12   -0.39    0.34
  -1   4 -12    0.57    0.40
  -2   4 -12    2.22    0.47
  -3   4 -12    0.09    0.38
  -2  -3  12   -0.13    0.36
   1   3 -12    1.22    0.41
   0   3 -12    0.73    0.40
  -1   3 -12    0.39    0.37
  -2   3 -12    0.24    0.36
  -3   3 -12    0.13    0.36
  -4   3 -12    0.05    0.37
  -2  -2  12    1.16    0.39
   1   2 -12    0.43    0.35
   0   2 -12    3.74    0.50
  -1   2 -12    0.01    0.32
  -2   2 -12    1.31    0.37
  -3   2 -12    0.00    0.34
  -4   2 -12    0.49    0.42
  -5   2 -12    0.89    0.43
  -3  -1  12   -0.15    0.38
  -2  -1  12    1.44    0.38
   1   1 -12    0.43    0.31
   0   1 -12    0.24    0.30
  -1   1 -12    9.90    0.67
  -2   1 -12    0.94    0.33
  -3   1 -12    0.17    0.36
  -4   1 -12    0.11    0.35
  -5   1 -12   -0.41    0.40
  -6   1 -12   -0.03    0.43
  -3   0  12    0.03    0.35
  -2   0  12    1.22    0.39
   1   0 -12    0.08    0.27
   0   0 -12    1.35    0.32
  -1   0 -12    0.01    0.27
  -2   0 -12    0.53    0.30
  -3   0 -12   -0.28    0.28
  -4   0 -12    1.40    0.39
  -5   0 -12   -0.14    0.37
  -6   0 -12    0.49    0.44
  -4   1  12    1.05    0.37
  -3   1  12    1.16    0.33
  -2   1  12   -0.26    0.28
   1  -1 -12    3.38    0.40
   0  -1 -12    0.11    0.24
  -1  -1 -12    1.12    0.33
  -2  -1 -12    1.64    0.31
  -3  -1 -12    1.85    0.35
  -4  -1 -12    0.63    0.34
  -5  -1 -12    0.39    0.37
  -6  -1 -12   -0.84    0.44
  -7  -1 -12   -0.03    0.46
   4  -2 -12   -0.10    0.27
   3  -2 -12   -0.21    0.20
  -3   2  12   -0.34    0.27
   2  -2 -12    1.44    0.26
  -2   2  12    1.79    0.34
   1  -2 -12   -0.07    0.24
   1  -2 -12   -0.11    0.19
   1  -2 -12    0.06    0.26
   0  -2 -12    0.24    0.25
  -1  -2 -12    7.11    0.49
  -2  -2 -12    6.90    0.53
  -3  -2 -12   -0.07    0.27
  -4  -2 -12    0.56    0.36
  -5  -2 -12    1.47    0.42
  -5  -2 -12    0.10    0.40
  -6  -2 -12   -0.08    0.41
  -6  -2 -12   -0.11    0.35
  -7  -2 -12    0.86    0.49
  -7  -2 -12    1.53    0.47
   4  -3 -12    0.02    0.24
   3  -3 -12   -0.28    0.19
   2  -3 -12    0.31    0.22
  -2   3  12    0.12    0.26
   1  -3 -12   -0.06    0.22
   1  -3 -12   -0.21    0.26
   0  -3 -12    3.22    0.41
   0  -3 -12    2.99    0.34
  -1  -3 -12    1.34    0.26
  -1  -3 -12    1.54    0.37
  -2  -3 -12    0.12    0.25
  -2  -3 -12    0.16    0.32
  -3  -3 -12   -0.16    0.32
  -3  -3 -12   -0.10    0.27
  -4  -3 -12   -0.13    0.29
  -4  -3 -12    0.40    0.36
  -5  -3 -12    0.98    0.37
  -5  -3 -12    0.70    0.38
  -6  -3 -12   -0.34    0.39
  -6  -3 -12    0.35    0.35
  -7  -3 -12    0.03    0.44
  -7  -3 -12    0.15    0.39
   4  -4 -12    1.12    0.31
   3  -4 -12    0.30    0.22
   2  -4 -12    0.50    0.23
   1  -4 -12    2.72    0.30
   1  -4 -12    2.37    0.35
   0  -4 -12    0.16    0.21
   0  -4 -12    0.19    0.26
  -1  -4 -12    1.69    0.27
  -1  -4 -12    1.98    0.40
  -2  -4 -12    0.27    0.23
  -2  -4 -12    0.59    0.32
  -3  -4 -12   -0.02    0.24
  -3  -4 -12    0.38    0.31
  -4  -4 -12    1.09    0.40
  -4  -4 -12    0.85    0.31
  -5  -4 -12    0.16    0.32
  -5  -4 -12    0.14    0.34
  -6  -4 -12   -0.24    0.37
  -6  -4 -12    0.56    0.40
  -7  -4 -12   -0.04    0.39
  -7  -4 -12   -0.18    0.48
   4  -5 -12    2.07    0.37
   3  -5 -12    0.35    0.26
   2  -5 -12    3.24    0.40
   2  -5 -12    3.77    0.35
   1  -5 -12   -0.33    0.25
   0  -5 -12    0.30    0.27
  -1  -5 -12    7.09    0.57
  -1  -5 -12    7.87    0.45
  -2  -5 -12    2.17    0.30
  -2  -5 -12    1.57    0.36
  -3  -5 -12    0.56    0.33
  -3  -5 -12    0.17    0.26
  -4  -5 -12   12.61    0.70
  -4  -5 -12   11.83    0.76
  -5  -5 -12    0.32    0.33
  -5  -5 -12   -0.10    0.32
  -6  -5 -12   -0.14    0.37
  -6  -5 -12   -0.44    0.39
  -7  -5 -12    0.82    0.42
  -7  -5 -12    0.67    0.48
   4  -6 -12    1.73    0.35
   3  -6 -12    0.05    0.23
   2  -6 -12    0.37    0.26
   2  -6 -12    1.05    0.30
   1  -6 -12    2.29    0.38
   0  -6 -12    0.60    0.30
  -1  -6 -12    9.79    0.64
  -2  -6 -12    0.08    0.31
  -2  -6 -12   -0.12    0.21
  -3  -6 -12    4.20    0.47
  -3  -6 -12    4.35    0.40
  -4  -6 -12    0.14    0.31
  -4  -6 -12   -0.07    0.29
  -5  -6 -12    2.75    0.44
  -5  -6 -12    2.02    0.42
  -6  -6 -12   -0.29    0.36
  -6  -6 -12    0.03    0.40
  -7  -6 -12   -0.70    0.42
  -7  -6 -12    0.36    0.41
   4  -7 -12    0.77    0.32
   3  -7 -12    1.42    0.30
   2  -7 -12   12.71    0.71
   2  -7 -12   13.18    0.66
   1  -7 -12   -0.06    0.24
   0  -7 -12   -0.24    0.28
  -1  -7 -12    0.03    0.27
  -2  -7 -12    1.17    0.34
  -3  -7 -12   -0.25    0.28
  -4  -7 -12    2.16    0.41
  -4  -7 -12    2.14    0.36
  -5  -7 -12    0.57    0.35
  -5  -7 -12    0.48    0.33
  -6  -7 -12    1.16    0.42
  -6  -7 -12    1.53    0.42
  -7  -7 -12   -0.18    0.37
   4  -8 -12    0.45    0.29
   3  -8 -12    0.93    0.28
   2  -8 -12    1.11    0.27
   2  -8 -12    0.74    0.33
   1  -8 -12    0.63    0.31
   0  -8 -12    1.99    0.38
  -1  -8 -12   11.79    0.71
  -2  -8 -12    0.45    0.32
  -3  -8 -12    0.05    0.31
  -4  -8 -12    1.47    0.38
  -5  -8 -12   -0.13    0.33
  -6  -8 -12    0.53    0.32
  -6  -8 -12   -0.43    0.33
  -7  -8 -12    1.85    0.43
   3  -9 -12    1.47    0.31
   2  -9 -12    0.15    0.24
   2  -9 -12    0.19    0.31
   1  -9 -12    0.63    0.33
   0  -9 -12    1.02    0.36
  -1  -9 -12    0.04    0.32
  -2  -9 -12   -0.28    0.28
  -3  -9 -12    0.07    0.31
  -4  -9 -12    1.40    0.42
  -5  -9 -12    0.98    0.40
  -6  -9 -12   -0.44    0.36
   3 -10 -12    0.56    0.32
   2 -10 -12    0.93    0.39
   2 -10 -12    0.98    0.28
   1 -10 -12    0.69    0.36
   0 -10 -12    1.25    0.40
  -1 -10 -12   -0.29    0.29
  -2 -10 -12    0.84    0.36
  -3 -10 -12    0.63    0.36
  -4 -10 -12    0.48    0.39
  -5 -10 -12    1.45    0.46
  -6 -10 -12    0.25    0.44
   3 -11 -12    0.38    0.39
   2 -11 -12    0.00    0.37
   2 -11 -12    0.31    0.27
   1 -11 -12   -0.20    0.32
   0 -11 -12    2.52    0.45
  -1 -11 -12    8.10    0.69
  -2 -11 -12   -0.25    0.33
  -3 -11 -12    3.15    0.48
  -4 -11 -12   -0.02    0.37
  -5 -11 -12   -0.15    0.37
   2 -12 -12    3.36    0.41
   2 -12 -12    2.26    0.48
   1 -12 -12    0.32    0.36
   0 -12 -12    0.20    0.42
  -1 -12 -12   -0.21    0.34
  -2 -12 -12    0.52    0.38
  -3 -12 -12   -0.53    0.40
  -4 -12 -12    0.70    0.47
   2 -13 -12    0.21    0.42
   1 -13 -12    0.34    0.44
   0 -13 -12    0.48    0.40
  -1 -13 -12    0.08    0.45
  -2 -13 -12    1.52    0.46
  -3 -13 -12   -1.03    0.47
   0   3 -13    0.21    0.38
  -1   3 -13   -0.55    0.38
  -2   3 -13   -0.51    0.41
   1   2 -13    0.10    0.36
   0   2 -13    0.17    0.35
  -1   2 -13   -0.46    0.35
  -2   2 -13    0.31    0.42
  -3   2 -13   -0.02    0.37
  -4   2 -13    0.50    0.43
  -2  -1  13   -0.46    0.37
   1   1 -13    0.43    0.39
   0   1 -13    3.03    0.48
  -1   1 -13    0.80    0.42
  -2   1 -13    0.37    0.35
  -3   1 -13   -0.03    0.39
  -4   1 -13    0.57    0.41
  -5   1 -13   -0.22    0.41
  -2   0  13    0.12    0.36
   1   0 -13    2.17    0.39
   0   0 -13    0.18    0.34
  -1   0 -13    0.69    0.39
  -2   0 -13    0.04    0.31
  -3   0 -13    0.25    0.35
  -4   0 -13   -0.86    0.38
  -5   0 -13    1.10    0.45
  -3   1  13    0.87    0.35
  -2   1  13    2.46    0.43
   1  -1 -13   -0.34    0.26
   0  -1 -13   -0.13    0.30
  -1  -1 -13    1.39    0.34
  -2  -1 -13    0.77    0.35
  -3  -1 -13   -0.20    0.30
  -4  -1 -13   -0.29    0.33
  -5  -1 -13   -0.25    0.39
  -6  -1 -13    0.27    0.52
  -2   2  13    0.14    0.27
   1  -2 -13    0.18    0.29
   1  -2 -13    1.41    0.35
   0  -2 -13    0.26    0.30
   0  -2 -13    0.44    0.30
  -1  -2 -13    2.73    0.40
  -2  -2 -13    1.82    0.37
  -3  -2 -13    0.54    0.36
  -4  -2 -13    1.52    0.39
  -5  -2 -13    0.07    0.43
  -5  -2 -13    1.04    0.40
  -6  -2 -13   -0.48    0.41
   4  -3 -13    0.10    0.26
   3  -3 -13   -0.05    0.25
   2  -3 -13    0.16    0.24
   1  -3 -13    0.08    0.30
   1  -3 -13    0.38    0.26
   1  -3 -13    0.00    0.21
   0  -3 -13    0.16    0.22
   0  -3 -13    0.42    0.34
  -1  -3 -13    1.02    0.34
  -1  -3 -13    0.83    0.28
  -2  -3 -13    0.51    0.33
  -2  -3 -13    0.26    0.28
  -3  -3 -13    1.04    0.38
  -3  -3 -13    0.97    0.35
  -4  -3 -13   -0.08    0.31
  -4  -3 -13    0.47    0.38
  -5  -3 -13    0.12    0.41
  -5  -3 -13    0.26    0.35
  -6  -3 -13   -0.05    0.42
  -6  -3 -13    0.27    0.39
   4  -4 -13   -0.27    0.25
   3  -4 -13    0.03    0.26
   2  -4 -13    1.01    0.27
   1  -4 -13    0.39    0.31
   0  -4 -13    4.45    0.40
   0  -4 -13    4.66    0.52
  -1  -4 -13   -0.50    0.28
  -1  -4 -13   -0.18    0.21
  -2  -4 -13    0.11    0.25
  -2  -4 -13    0.26    0.37
  -3  -4 -13    5.23    0.56
  -3  -4 -13    4.61    0.47
  -4  -4 -13    0.70    0.41
  -4  -4 -13    0.02    0.30
  -5  -4 -13    0.28    0.41
  -5  -4 -13    0.31    0.42
  -6  -4 -13    0.04    0.44
  -6  -4 -13    0.01    0.42
  -7  -4 -13    0.26    0.49
   4  -5 -13    0.55    0.30
   3  -5 -13    4.16    0.42
   2  -5 -13   -0.02    0.21
   1  -5 -13    1.08    0.34
   0  -5 -13    2.09    0.41
  -1  -5 -13    2.42    0.44
  -2  -5 -13   -0.05    0.35
  -2  -5 -13   -0.01    0.26
  -3  -5 -13    2.19    0.43
  -3  -5 -13    1.72    0.34
  -4  -5 -13    0.79    0.31
  -4  -5 -13    0.46    0.36
  -5  -5 -13    1.37    0.43
  -5  -5 -13    0.75    0.39
  -6  -5 -13    0.70    0.43
  -6  -5 -13   -0.49    0.36
  -7  -5 -13    0.03    0.48
   3  -6 -13    0.17    0.28
   2  -6 -13    1.69    0.29
   1  -6 -13    3.57    0.45
   0  -6 -13    1.16    0.37
  -1  -6 -13    0.44    0.32
  -2  -6 -13    6.74    0.61
  -3  -6 -13    0.16    0.26
  -3  -6 -13    0.15    0.33
  -4  -6 -13    0.48    0.33
  -4  -6 -13    0.55    0.36
  -5  -6 -13    0.14    0.36
  -5  -6 -13    0.35    0.40
  -6  -6 -13    0.04    0.36
  -6  -6 -13   -0.01    0.36
  -7  -6 -13   -0.37    0.46
   3  -7 -13    0.53    0.30
   2  -7 -13    1.12    0.28
   1  -7 -13    0.44    0.31
   0  -7 -13    1.02    0.34
  -1  -7 -13    0.97    0.35
  -2  -7 -13    0.56    0.34
  -3  -7 -13    4.44    0.54
  -4  -7 -13    0.20    0.34
  -5  -7 -13    0.91    0.37
  -5  -7 -13    0.35    0.41
  -6  -7 -13    0.63    0.42
  -6  -7 -13    0.09    0.37
  -7  -7 -13   -0.04    0.45
   3  -8 -13    0.09    0.26
   2  -8 -13   -0.09    0.24
   1  -8 -13    0.82    0.35
   0  -8 -13    1.86    0.38
  -1  -8 -13    0.57    0.37
  -2  -8 -13    2.58    0.44
  -3  -8 -13    0.09    0.38
  -4  -8 -13   -0.03    0.35
  -5  -8 -13   -0.01    0.36
  -6  -8 -13    0.22    0.39
   3  -9 -13   -0.12    0.27
   2  -9 -13   -0.15    0.27
   1  -9 -13    0.50    0.36
   0  -9 -13   -0.14    0.33
  -1  -9 -13    1.19    0.39
  -2  -9 -13    1.59    0.39
  -3  -9 -13    0.93    0.38
  -4  -9 -13   -0.06    0.40
  -5  -9 -13    0.24    0.41
  -6  -9 -13   -0.01    0.38
   2 -10 -13    0.12    0.27
   1 -10 -13   -0.02    0.35
   0 -10 -13    0.41    0.33
  -1 -10 -13   -0.34    0.31
  -2 -10 -13    0.88    0.41
  -3 -10 -13    0.27    0.35
  -4 -10 -13    1.05    0.41
  -5 -10 -13    0.26    0.44
   2 -11 -13    0.45    0.30
   1 -11 -13    0.30    0.39
   0 -11 -13    1.42    0.45
  -1 -11 -13   -0.05    0.34
  -2 -11 -13   -0.02    0.36
  -3 -11 -13   -0.04    0.36
  -4 -11 -13    0.64    0.42
   1 -12 -13    0.11    0.41
   0 -12 -13    1.02    0.45
  -1 -12 -13    0.75    0.41
  -2 -12 -13   -0.25    0.37
  -3 -12 -13    2.04    0.52
   1 -13 -13    1.15    0.55
   0 -13 -13    0.69    0.48
   0   1 -14   -0.09    0.35
  -1   1 -14   -0.04    0.37
  -2   1 -14   -0.03    0.36
  -3   1 -14    0.06    0.38
   1   0 -14    1.01    0.39
   0   0 -14    0.67    0.35
  -1   0 -14   -0.17    0.34
  -2   0 -14    1.50    0.40
  -3   0 -14   -0.10    0.36
  -4   0 -14    0.08    0.40
   2  -1 -14    0.09    0.31
   1  -1 -14    0.67    0.35
   0  -1 -14    0.26    0.31
  -1  -1 -14    0.31    0.37
  -2  -1 -14    0.16    0.37
  -3  -1 -14    0.04    0.34
  -4  -1 -14    0.82    0.42
  -5  -1 -14    0.33    0.44
   1  -2 -14   -0.17    0.33
   1  -2 -14    0.28    0.31
   0  -2 -14    1.38    0.33
   0  -2 -14    1.49    0.40
  -1  -2 -14    0.61    0.31
  -1  -2 -14    1.08    0.38
  -2  -2 -14    0.81    0.32
  -3  -2 -14    0.96    0.40
  -4  -2 -14    0.39    0.36
  -4  -2 -14   -0.27    0.43
  -5  -2 -14    0.07    0.41
   1  -3 -14    1.03    0.25
   1  -3 -14    0.53    0.36
   0  -3 -14    0.18    0.35
   0  -3 -14    0.25    0.28
  -1  -3 -14   -0.04    0.32
  -1  -3 -14   -0.11    0.24
  -2  -3 -14    0.21    0.34
  -2  -3 -14   -0.09    0.30
  -3  -3 -14    0.98    0.42
  -3  -3 -14   -0.10    0.33
  -4  -3 -14   -0.15    0.38
  -4  -3 -14   -0.14    0.35
  -5  -3 -14    0.49    0.46
  -6  -3 -14    0.02    0.48
   3  -4 -14    0.45    0.29
   2  -4 -14    0.01    0.26
   1  -4 -14    0.27    0.33
   1  -4 -14   -0.08    0.20
   0  -4 -14    0.48    0.32
  -1  -4 -14    0.44    0.35
  -1  -4 -14    0.18    0.26
  -2  -4 -14    1.30    0.45
  -2  -4 -14    0.32    0.29
  -3  -4 -14    0.01    0.32
  -3  -4 -14    0.00    0.36
  -4  -4 -14    0.58    0.41
  -4  -4 -14    0.05    0.31
  -5  -4 -14    0.49    0.44
  -5  -4 -14    0.16    0.40
  -6  -4 -14    0.54    0.49
   3  -5 -14    0.62    0.27
   2  -5 -14   -0.08    0.21
   1  -5 -14    1.44    0.39
   0  -5 -14    1.07    0.38
  -1  -5 -14    0.82    0.41
  -2  -5 -14   -0.04    0.33
  -3  -5 -14    0.25    0.35
  -3  -5 -14   -0.23    0.29
  -4  -5 -14    1.11    0.42
  -4  -5 -14    1.20    0.35
  -5  -5 -14    0.35    0.42
  -5  -5 -14    0.42    0.41
  -6  -5 -14   -0.07    0.44
   3  -6 -14    1.82    0.34
   2  -6 -14    0.31    0.25
   1  -6 -14    0.53    0.35
   0  -6 -14   -0.13    0.29
  -1  -6 -14   -0.17    0.36
  -2  -6 -14   -0.31    0.37
  -3  -6 -14    0.88    0.39
  -4  -6 -14    0.85    0.41
  -4  -6 -14    0.35    0.39
  -5  -6 -14    0.07    0.39
  -5  -6 -14    0.56    0.41
  -6  -6 -14    0.21    0.39
   2  -7 -14    3.82    0.42
   1  -7 -14   -0.19    0.33
   0  -7 -14    0.10    0.35
  -1  -7 -14    0.44    0.35
  -2  -7 -14    4.57    0.57
  -3  -7 -14    3.78    0.53
  -4  -7 -14   -0.74    0.38
  -5  -7 -14    0.58    0.44
   2  -8 -14    0.14    0.27
   1  -8 -14    2.61    0.41
   0  -8 -14    2.32    0.43
  -1  -8 -14   -0.25    0.32
  -2  -8 -14   -0.45    0.37
  -3  -8 -14    0.27    0.38
  -4  -8 -14    1.22    0.43
  -5  -8 -14    0.86    0.43
   2  -9 -14    0.95    0.35
   1  -9 -14   -0.03    0.36
   0  -9 -14    0.59    0.38
  -1  -9 -14    0.77    0.41
  -2  -9 -14   -0.10    0.35
  -3  -9 -14   -0.41    0.35
  -4  -9 -14    1.91    0.47
   1 -10 -14   -0.24    0.37
   0 -10 -14    0.18    0.38
  -1 -10 -14   -0.15    0.34
  -2 -10 -14   -0.11    0.35
  -3 -10 -14    0.08    0.36
  -4 -10 -14    2.18    0.47
   1 -11 -14    0.62    0.43
   0 -11 -14    0.21    0.41
  -1 -11 -14   -0.50    0.34
  -2 -11 -14    0.72    0.42
  -3 -11 -14    0.50    0.41
   1 -12 -14    0.15    0.40
   0 -12 -14   -0.53    0.41
  -1 -12 -14    0.15    0.44
   0  -1 -15    1.14    0.44
  -1  -1 -15    0.86    0.39
  -2  -1 -15    1.25    0.41
  -3  -1 -15   -0.33    0.35
   0  -2 -15   -0.12    0.37
   0  -2 -15    0.43    0.39
  -1  -2 -15    1.45    0.48
  -1  -2 -15    0.51    0.37
  -2  -2 -15   -0.31    0.32
  -3  -2 -15    0.15    0.40
  -4  -2 -15   -0.49    0.42
   0  -3 -15    0.56    0.40
  -1  -3 -15    0.17    0.32
  -1  -3 -15    0.38    0.36
  -2  -3 -15   -0.25    0.29
  -2  -3 -15    0.04    0.41
  -3  -3 -15    0.86    0.36
  -4  -3 -15   -0.14    0.36
  -5  -3 -15    0.18    0.48
   1  -4 -15    0.07    0.26
   0  -4 -15    0.72    0.39
  -1  -4 -15   -0.18    0.35
  -2  -4 -15   -0.23    0.35
  -2  -4 -15    0.10    0.39
  -3  -4 -15    0.83    0.35
  -3  -4 -15    1.50    0.47
  -4  -4 -15   -0.23    0.35
  -5  -4 -15    0.29    0.42
   2  -5 -15    0.39    0.30
   1  -5 -15    1.39    0.32
   0  -5 -15    0.00    0.37
  -1  -5 -15    2.02    0.49
  -2  -5 -15    0.79    0.46
  -3  -5 -15   -0.15    0.43
  -4  -5 -15    3.03    0.49
  -5  -5 -15   -0.16    0.38
   2  -6 -15   -0.20    0.27
   1  -6 -15   -0.17    0.35
   0  -6 -15    0.11    0.33
  -1  -6 -15    0.88    0.43
  -2  -6 -15    0.61    0.43
  -3  -6 -15    0.30    0.40
   2  -7 -15    0.23    0.37
   1  -7 -15    0.39    0.39
   0  -7 -15    0.01    0.39
  -1  -7 -15    1.28    0.42
  -2  -7 -15    0.96    0.47
  -3  -7 -15    0.37    0.41
   1  -8 -15    0.03    0.38
   0  -8 -15    0.19    0.40
  -1  -8 -15   -0.58    0.38
  -2  -8 -15    0.94    0.43
  -3  -8 -15    1.56    0.52
   1  -9 -15   -0.12    0.37
   0  -9 -15   -0.24    0.32
  -1  -9 -15    0.74    0.44
  -2  -9 -15    0.09    0.40
  -3  -9 -15    0.10    0.40
   1 -10 -15    0.25    0.37
   0 -10 -15    0.50    0.39
  -1 -10 -15    0.26    0.37
  -2 -10 -15    1.66    0.51
   1 -11 -15    1.22    0.53
  -2  -3 -16    0.36    0.38
  -3  -3 -16    0.56    0.44
   0  -5 -16    2.00    0.52
   1  -6 -16    0.63    0.32
   0  -6 -16    2.70    0.53
   0  -7 -16   -0.27    0.41
   0  -8 -16    0.12    0.47
   0   0   0    0.00    0.00
;
_shelx_hkl_checksum              49999
loop_
_space_group_symop_operation_xyz
'x, y, z'
'-x, -y, -z'
loop_
_atom_site_label
_atom_site_type_symbol
_atom_site_fract_x
_atom_site_fract_y
_atom_site_fract_z
_atom_site_U_iso_or_equiv
_atom_site_adp_type
_atom_site_occupancy
_atom_site_site_symmetry_order
_atom_site_calc_flag
_atom_site_refinement_flags_posn
_atom_site_refinement_flags_adp
Br1 Br 0.32334(11) -0.51217(5) 0.39422(6) 0.0840(3) Uani 1 1 d . .
C1 C 0.0558(7) 0.2552(4) -0.0089(4) 0.0448(10) Uani 1 1 d . .
N1 N 0.1813(5) 0.0618(3) 0.1169(3) 0.0362(8) Uani 1 1 d . .
O1 O -0.1373(5) 0.0604(3) 0.0714(3) 0.0505(8) Uani 1 1 d . .
C2 C -0.0557(9) 0.3528(5) -0.0880(5) 0.0632(14) Uani 1 1 d . .
H10 H -0.1783 0.3346 -0.0995 0.076 Uiso 1 1 calc R U
O2 O 0.6887(5) 0.1815(4) 0.3941(3) 0.0654(11) Uani 1 1 d . .
C3 C 0.0179(12) 0.4756(6) -0.1485(5) 0.0771(18) Uani 1 1 d . .
H9 H -0.0542 0.5412 -0.2021 0.093 Uiso 1 1 calc R U
O3 O 0.3952(4) 0.1767(4) 0.5277(3) 0.0513(8) Uani 1 1 d . .
C4 C 0.1978(12) 0.5023(6) -0.1303(5) 0.0793(19) Uani 1 1 d . .
H8 H 0.2441 0.5865 -0.1712 0.095 Uiso 1 1 calc R U
C5 C 0.3140(9) 0.4065(5) -0.0519(5) 0.0590(13) Uani 1 1 d . .
H7 H 0.4365 0.4255 -0.0409 0.071 Uiso 1 1 calc R U
C6 C 0.2376(7) 0.2809(4) 0.0092(4) 0.0423(10) Uani 1 1 d . .
C7 C 0.3251(6) 0.1590(4) 0.0977(4) 0.0361(9) Uani 1 1 d . .
H6 H 0.4598 0.1433 0.0593 0.043 Uiso 1 1 calc R U
C8 C 0.0130(6) 0.1169(4) 0.0620(4) 0.0387(9) Uani 1 1 d . .
C9 C 0.2144(6) -0.0717(4) 0.1860(4) 0.0363(9) Uani 1 1 d . .
C10 C 0.0524(7) -0.1535(5) 0.2580(4) 0.0483(11) Uani 1 1 d . .
H13 H -0.0786 -0.1210 0.2637 0.058 Uiso 1 1 calc R U
C11 C 0.0873(7) -0.2827(5) 0.3205(4) 0.0541(12) Uani 1 1 d . .
H14 H -0.0211 -0.3378 0.3681 0.065 Uiso 1 1 calc R U
C12 C 0.2815(8) -0.3320(5) 0.3137(5) 0.0530(11) Uani 1 1 d . .
C13 C 0.4444(7) -0.2494(5) 0.2441(4) 0.0486(11) Uani 1 1 d . .
H11 H 0.5760 -0.2816 0.2406 0.058 Uiso 1 1 calc R U
C14 C 0.4092(6) -0.1193(4) 0.1804(4) 0.0436(10) Uani 1 1 d . .
H12 H 0.5173 -0.0637 0.1334 0.052 Uiso 1 1 calc R U
C15 C 0.1631(7) 0.1555(5) 0.2980(4) 0.0484(11) Uani 1 1 d . .
H3 H 0.0391 0.1499 0.2795 0.058 Uiso 1 1 calc R U
C16 C 0.3370(6) 0.1587(4) 0.2181(3) 0.0336(8) Uani 1 1 d . .
C17 C 0.5253(6) 0.1666(4) 0.2444(4) 0.0391(9) Uani 1 1 d . .
H5 H 0.6456 0.1676 0.1920 0.047 Uiso 1 1 calc R U
C18 C 0.5254(6) 0.1726(4) 0.3498(4) 0.0384(9) Uani 1 1 d . .
C19 C 0.3498(6) 0.1689(4) 0.4293(3) 0.0360(9) Uani 1 1 d . .
C20 C 0.1654(6) 0.1603(6) 0.4066(4) 0.0549(13) Uani 1 1 d . .
H2 H 0.0465 0.1577 0.4606 0.066 Uiso 1 1 calc R U
C21 C 0.6095(7) 0.1826(6) 0.5065(5) 0.0538(12) Uani 1 1 d . .
H1 H 0.6507 0.2604 0.5044 0.065 Uiso 1 1 calc R U
H4 H 0.6613 0.1096 0.5720 0.065 Uiso 1 1 calc R U
loop_
_atom_site_aniso_label
_atom_site_aniso_U_11
_atom_site_aniso_U_22
_atom_site_aniso_U_33
_atom_site_aniso_U_23
_atom_site_aniso_U_13
_atom_site_aniso_U_12
Br1 0.1122(6) 0.0437(4) 0.0810(5) -0.0174(3) -0.0153(4) 0.0012(3)
C1 0.049(3) 0.052(3) 0.038(2) -0.026(2) -0.0072(18) 0.007(2)
N1 0.0371(18) 0.0409(19) 0.0396(18) -0.0245(16) -0.0106(14) 0.0010(14)
O1 0.0405(17) 0.068(2) 0.0552(19) -0.0385(17) -0.0103(14) 0.0022(15)
C2 0.081(4) 0.066(3) 0.045(3) -0.027(3) -0.019(2) 0.019(3)
O2 0.0327(16) 0.123(3) 0.055(2) -0.052(2) -0.0105(14) -0.0005(17)
C3 0.118(5) 0.059(4) 0.053(3) -0.023(3) -0.030(3) 0.022(3)
O3 0.0366(16) 0.084(2) 0.0482(18) -0.0431(18) -0.0083(13) 0.0035(15)
C4 0.132(6) 0.045(3) 0.046(3) -0.012(2) -0.007(3) -0.002(3)
C5 0.081(4) 0.045(3) 0.046(3) -0.020(2) -0.003(2) -0.007(2)
C6 0.058(3) 0.041(2) 0.029(2) -0.0191(18) 0.0010(18) -0.0052(19)
C7 0.036(2) 0.040(2) 0.034(2) -0.0192(18) -0.0014(16) -0.0052(16)
C8 0.043(2) 0.049(2) 0.037(2) -0.031(2) -0.0094(17) 0.0086(19)
C9 0.041(2) 0.042(2) 0.033(2) -0.0237(18) -0.0039(16) -0.0039(17)
C10 0.041(2) 0.054(3) 0.051(3) -0.028(2) 0.0047(19) -0.0113(19)
C11 0.056(3) 0.054(3) 0.044(3) -0.014(2) -0.002(2) -0.017(2)
C12 0.070(3) 0.041(2) 0.051(3) -0.024(2) -0.006(2) -0.008(2)
C13 0.053(3) 0.053(3) 0.047(2) -0.029(2) -0.012(2) 0.010(2)
C14 0.040(2) 0.050(3) 0.046(2) -0.029(2) 0.0006(18) -0.0058(19)
C15 0.041(2) 0.072(3) 0.046(2) -0.037(2) -0.0108(19) 0.000(2)
C16 0.032(2) 0.037(2) 0.034(2) -0.0186(17) -0.0058(15) 0.0008(15)
C17 0.039(2) 0.044(2) 0.035(2) -0.0217(19) 0.0002(17) -0.0016(17)
C18 0.031(2) 0.045(2) 0.047(2) -0.028(2) -0.0057(17) -0.0017(16)
C19 0.038(2) 0.042(2) 0.0310(19) -0.0200(17) -0.0033(16) 0.0014(17)
C20 0.032(2) 0.094(4) 0.051(3) -0.047(3) 0.0016(19) 0.001(2)
C21 0.041(2) 0.083(4) 0.056(3) -0.046(3) -0.012(2) -0.001(2)
loop_
_atom_type_symbol
_atom_type_description
_atom_type_scat_dispersion_real
_atom_type_scat_dispersion_imag
_atom_type_scat_source
C C 0.0033 0.0016 'International Tables Vol C Tables 4.2.6.8 and 6.1.1.4'
H H 0.0000 0.0000 'International Tables Vol C Tables 4.2.6.8 and 6.1.1.4'
N N 0.0061 0.0033 'International Tables Vol C Tables 4.2.6.8 and 6.1.1.4'
O O 0.0106 0.0060 'International Tables Vol C Tables 4.2.6.8 and 6.1.1.4'
Br Br -0.2901 2.4595 'International Tables Vol C Tables 4.2.6.8 and 6.1.1.4'
loop_
_geom_angle_atom_site_label_1
_geom_angle_atom_site_label_2
_geom_angle_atom_site_label_3
_geom_angle
C6 C1 C2 121.1(5)
C6 C1 C8 109.7(4)
C2 C1 C8 129.2(5)
C8 N1 C9 125.5(3)
C8 N1 C7 112.4(3)
C9 N1 C7 122.1(3)
C3 C2 C1 119.1(6)
C3 C2 H10 120.5
C1 C2 H10 120.5
C18 O2 C21 106.1(3)
C2 C3 C4 120.2(6)
C2 C3 H9 119.9
C4 C3 H9 119.9
C19 O3 C21 105.4(3)
C3 C4 C5 122.1(6)
C3 C4 H8 118.9
C5 C4 H8 118.9
C6 C5 C4 117.2(5)
C6 C5 H7 121.4
C4 C5 H7 121.4
C1 C6 C5 120.3(4)
C1 C6 C7 109.8(4)
C5 C6 C7 129.9(4)
N1 C7 C6 101.9(3)
N1 C7 C16 111.5(3)
C6 C7 C16 113.5(3)
N1 C7 H6 109.9
C6 C7 H6 109.9
C16 C7 H6 109.9
O1 C8 N1 126.5(4)
O1 C8 C1 127.8(4)
N1 C8 C1 105.7(4)
C14 C9 C10 120.3(4)
C14 C9 N1 119.2(4)
C10 C9 N1 120.5(4)
C11 C10 C9 119.4(4)
C11 C10 H13 120.3
C9 C10 H13 120.3
C10 C11 C12 120.8(4)
C10 C11 H14 119.6
C12 C11 H14 119.6
C11 C12 C13 119.7(5)
C11 C12 Br1 119.8(4)
C13 C12 Br1 120.4(4)
C14 C13 C12 119.5(4)
C14 C13 H11 120.3
C12 C13 H11 120.3
C9 C14 C13 120.2(4)
C9 C14 H12 119.9
C13 C14 H12 119.9
C16 C15 C20 122.3(4)
C16 C15 H3 118.9
C20 C15 H3 118.9
C15 C16 C17 119.8(4)
C15 C16 C7 120.0(4)
C17 C16 C7 120.1(3)
C18 C17 C16 117.3(3)
C18 C17 H5 121.3
C16 C17 H5 121.3
C17 C18 O2 128.0(4)
C17 C18 C19 122.2(4)
O2 C18 C19 109.9(4)
C20 C19 C18 121.7(4)
C20 C19 O3 128.6(3)
C18 C19 O3 109.6(3)
C19 C20 C15 116.7(4)
C19 C20 H2 121.7
C15 C20 H2 121.7
O2 C21 O3 109.0(3)
O2 C21 H1 109.9
O3 C21 H1 109.9
O2 C21 H4 109.9
O3 C21 H4 109.9
H1 C21 H4 108.3
loop_
_geom_bond_atom_site_label_1
_geom_bond_atom_site_label_2
_geom_bond_distance
Br1 C12 1.898(5)
C1 C6 1.380(7)
C1 C2 1.398(7)
C1 C8 1.472(6)
N1 C8 1.396(5)
N1 C9 1.419(5)
N1 C7 1.475(5)
O1 C8 1.223(5)
C2 C3 1.370(9)
C2 H10 0.9300
O2 C18 1.368(5)
O2 C21 1.411(6)
C3 C4 1.372(10)
C3 H9 0.9300
O3 C19 1.382(5)
O3 C21 1.417(5)
C4 C5 1.405(9)
C4 H8 0.9300
C5 C6 1.404(6)
C5 H7 0.9300
C6 C7 1.505(6)
C7 C16 1.534(5)
C7 H6 0.9800
C9 C14 1.378(6)
C9 C10 1.388(6)
C10 C11 1.371(7)
C10 H13 0.9300
C11 C12 1.382(7)
C11 H14 0.9300
C12 C13 1.393(7)
C13 C14 1.382(6)
C13 H11 0.9300
C14 H12 0.9300
C15 C16 1.368(6)
C15 C20 1.399(6)
C15 H3 0.9300
C16 C17 1.400(6)
C17 C18 1.363(6)
C17 H5 0.9300
C18 C19 1.373(5)
C19 C20 1.356(6)
C20 H2 0.9300
C21 H1 0.9700
C21 H4 0.9700
loop_
_geom_hbond_atom_site_label_D
_geom_hbond_atom_site_label_H
_geom_hbond_atom_site_label_A
_geom_hbond_distance_DH
_geom_hbond_distance_HA
_geom_hbond_distance_DA
_geom_hbond_angle_DHA
_geom_hbond_site_symmetry_A
C17 H5 O1 0.93 2.56 3.375(5) 147.1 1_655
C14 H12 O1 0.93 2.65 3.543(5) 160.9 1_655
C11 H14 Br1 0.93 3.08 3.939(5) 154.4 2_546
C10 H13 O1 0.93 2.45 2.933(6) 112.5 .
C17 H5 O1 0.93 2.56 3.375(5) 147.1 1_655
C14 H12 O1 0.93 2.65 3.543(5) 160.9 1_655
C11 H14 Br1 0.93 3.08 3.939(5) 154.4 2_546
C10 H13 O1 0.93 2.45 2.933(6) 112.5 .
C17 H5 O1 0.93 2.56 3.375(5) 147.1 1_655
C14 H12 O1 0.93 2.65 3.543(5) 160.9 1_655
C11 H14 Br1 0.93 3.08 3.939(5) 154.4 2_546
C10 H13 O1 0.93 2.45 2.933(6) 112.5 .
C17 H5 O1 0.93 2.56 3.375(5) 147.1 1_655
C14 H12 O1 0.93 2.65 3.543(5) 160.9 1_655
C11 H14 Br1 0.93 3.08 3.939(5) 154.4 2_546
C10 H13 O1 0.93 2.45 2.933(6) 112.5 .
C10 H13 O1 0.93 2.45 2.933(6) 112.5 .
C11 H14 Br1 0.93 3.08 3.939(5) 154.4 2_546
C14 H12 O1 0.93 2.65 3.543(5) 160.9 1_655
C17 H5 O1 0.93 2.56 3.375(5) 147.1 1_655
C10 H13 O1 0.93 2.45 2.933(6) 112.5 .
C11 H14 Br1 0.93 3.08 3.939(5) 154.4 2_546
C14 H12 O1 0.93 2.65 3.543(5) 160.9 1_655
C17 H5 O1 0.93 2.56 3.375(5) 147.1 1_655
C10 H13 O1 0.93 2.45 2.933(6) 112.5 .
C11 H14 Br1 0.93 3.08 3.939(5) 154.4 2_546
C14 H12 O1 0.93 2.65 3.543(5) 160.9 1_655
C17 H5 O1 0.93 2.56 3.375(5) 147.1 1_655
C10 H13 O1 0.93 2.45 2.933(6) 112.5 .
C11 H14 Br1 0.93 3.08 3.939(5) 154.4 2_546
C14 H12 O1 0.93 2.65 3.543(5) 160.9 1_655
C17 H5 O1 0.93 2.56 3.375(5) 147.1 1_655
loop_
_geom_torsion_atom_site_label_1
_geom_torsion_atom_site_label_2
_geom_torsion_atom_site_label_3
_geom_torsion_atom_site_label_4
_geom_torsion
C6 C1 C2 C3 0.2(7)
C8 C1 C2 C3 -177.5(5)
C1 C2 C3 C4 -0.7(8)
C2 C3 C4 C5 1.0(9)
C3 C4 C5 C6 -0.7(8)
C2 C1 C6 C5 0.1(6)
C8 C1 C6 C5 178.2(4)
C2 C1 C6 C7 -179.6(4)
C8 C1 C6 C7 -1.5(4)
C4 C5 C6 C1 0.2(7)
C4 C5 C6 C7 179.8(5)
C8 N1 C7 C6 -7.4(4)
C9 N1 C7 C6 173.8(3)
C8 N1 C7 C16 114.0(4)
C9 N1 C7 C16 -64.9(4)
C1 C6 C7 N1 5.2(4)
C5 C6 C7 N1 -174.5(4)
C1 C6 C7 C16 -114.8(4)
C5 C6 C7 C16 65.6(6)
C9 N1 C8 O1 5.3(6)
C7 N1 C8 O1 -173.5(4)
C9 N1 C8 C1 -174.5(3)
C7 N1 C8 C1 6.7(4)
C6 C1 C8 O1 177.2(4)
C2 C1 C8 O1 -4.9(7)
C6 C1 C8 N1 -3.1(4)
C2 C1 C8 N1 174.8(4)
C8 N1 C9 C14 145.5(4)
C7 N1 C9 C14 -35.8(5)
C8 N1 C9 C10 -34.1(6)
C7 N1 C9 C10 144.6(4)
C14 C9 C10 C11 -2.0(7)
N1 C9 C10 C11 177.6(4)
C9 C10 C11 C12 0.7(7)
C10 C11 C12 C13 1.1(7)
C10 C11 C12 Br1 -176.6(4)
C11 C12 C13 C14 -1.6(7)
Br1 C12 C13 C14 176.1(3)
C10 C9 C14 C13 1.5(6)
N1 C9 C14 C13 -178.1(4)
C12 C13 C14 C9 0.3(7)
C20 C15 C16 C17 0.3(7)
C20 C15 C16 C7 -177.4(5)
N1 C7 C16 C15 -46.0(5)
C6 C7 C16 C15 68.3(5)
N1 C7 C16 C17 136.3(4)
C6 C7 C16 C17 -109.3(4)
C15 C16 C17 C18 -1.0(6)
C7 C16 C17 C18 176.7(4)
C16 C17 C18 O2 -179.5(4)
C16 C17 C18 C19 1.2(6)
C21 O2 C18 C17 -179.0(5)
C21 O2 C18 C19 0.3(5)
C17 C18 C19 C20 -0.7(7)
O2 C18 C19 C20 179.9(4)
C17 C18 C19 O3 -180.0(4)
O2 C18 C19 O3 0.6(5)
C21 O3 C19 C20 179.5(5)
C21 O3 C19 C18 -1.3(5)
C18 C19 C20 C15 0.0(7)
O3 C19 C20 C15 179.1(5)
C16 C15 C20 C19 0.2(8)
C18 O2 C21 O3 -1.1(6)
C19 O3 C21 O2 1.5(5)
