#------------------------------------------------------------------------------
#$Date: 2017-09-12 06:47:25 +0300 (Tue, 12 Sep 2017) $
#$Revision: 200676 $
#$URL: file:///home/coder/svn-repositories/cod/cif/4/03/26/4032686.cif $
#------------------------------------------------------------------------------
#
# This file is available in the Crystallography Open Database (COD),
# http://www.crystallography.net/
#
# All data on this site have been placed in the public domain by the
# contributors.
#
data_4032686
loop_
_publ_author_name
'Sigalov, Mark V.'
'Shainyan, Bagrat A.'
'Sterkhova, Irina V.'
_publ_section_title
;
 Photoinduced Intramolecular Bifurcate Hydrogen Bond: Unusual Mutual
 Influence of the Components.
;
_journal_issue                   17
_journal_name_full               'The Journal of organic chemistry'
_journal_page_first              9075
_journal_page_last               9086
_journal_paper_doi               10.1021/acs.joc.7b01589
_journal_volume                  82
_journal_year                    2017
_chemical_formula_sum            'C15 H13 N O2'
_chemical_formula_weight         239.26
_chemical_name_systematic
;
 ?
;
_space_group_crystal_system      triclinic
_space_group_IT_number           2
_space_group_name_Hall           '-P 1'
_space_group_name_H-M_alt        'P -1'
_symmetry_space_group_name_Hall  '-P 1'
_symmetry_space_group_name_H-M   'P -1'
_atom_sites_solution_hydrogens   mixed
_atom_sites_solution_primary     direct
_atom_sites_solution_secondary   difmap
_audit_creation_method           SHELXL-2013
_cell_angle_alpha                80.686(2)
_cell_angle_beta                 81.816(2)
_cell_angle_gamma                72.884(2)
_cell_formula_units_Z            2
_cell_length_a                   7.5489(3)
_cell_length_b                   8.9993(4)
_cell_length_c                   9.2731(4)
_cell_measurement_reflns_used    213
_cell_measurement_temperature    100(2)
_cell_measurement_theta_max      25
_cell_measurement_theta_min      5
_cell_volume                     591.12(4)
_computing_cell_refinement       'Bruker SAINT'
_computing_data_collection       'Bruker APEX2'
_computing_data_reduction        'Bruker SAINT'
_computing_molecular_graphics    'Bruker SHELXTL'
_computing_publication_material  'Bruker SHELXTL'
_computing_structure_refinement  'SHELXL-2013 (Sheldrick 2013)'
_computing_structure_solution    'SHELXS-97 (Sheldrick 2008)'
_diffrn_ambient_temperature      100(2)
_diffrn_measured_fraction_theta_full 1.000
_diffrn_measured_fraction_theta_max 1.000
_diffrn_measurement_device_type  'Bruker D8 VENTURE PHOTON 100 CMOS'
_diffrn_measurement_method       '\f and \w scans'
_diffrn_radiation_type           MoK\a
_diffrn_radiation_wavelength     0.71073
_diffrn_reflns_av_R_equivalents  0.1000
_diffrn_reflns_av_unetI/netI     0.0705
_diffrn_reflns_Laue_measured_fraction_full 1.000
_diffrn_reflns_Laue_measured_fraction_max 1.000
_diffrn_reflns_limit_h_max       10
_diffrn_reflns_limit_h_min       -10
_diffrn_reflns_limit_k_max       12
_diffrn_reflns_limit_k_min       -12
_diffrn_reflns_limit_l_max       13
_diffrn_reflns_limit_l_min       -13
_diffrn_reflns_number            26399
_diffrn_reflns_point_group_measured_fraction_full 1.000
_diffrn_reflns_point_group_measured_fraction_max 1.000
_diffrn_reflns_theta_full        25.242
_diffrn_reflns_theta_max         30.064
_diffrn_reflns_theta_min         2.237
_exptl_absorpt_coefficient_mu    0.090
_exptl_absorpt_correction_T_max  0.8460
_exptl_absorpt_correction_T_min  0.7690
_exptl_absorpt_correction_type   multi-scan
_exptl_crystal_colour            yellow
_exptl_crystal_density_diffrn    1.344
_exptl_crystal_description       needle
_exptl_crystal_F_000             252
_exptl_crystal_size_max          0.500
_exptl_crystal_size_mid          0.060
_exptl_crystal_size_min          0.020
_refine_diff_density_max         0.301
_refine_diff_density_min         -0.373
_refine_diff_density_rms         0.079
_refine_ls_extinction_method     none
_refine_ls_goodness_of_fit_ref   1.015
_refine_ls_hydrogen_treatment    mixed
_refine_ls_matrix_type           full
_refine_ls_number_parameters     188
_refine_ls_number_reflns         3475
_refine_ls_number_restraints     0
_refine_ls_restrained_S_all      1.015
_refine_ls_R_factor_all          0.1075
_refine_ls_R_factor_gt           0.0553
_refine_ls_shift/su_max          0.000
_refine_ls_shift/su_mean         0.000
_refine_ls_structure_factor_coef Fsqd
_refine_ls_weighting_details
'w=1/[\s^2^(Fo^2^)+(0.0657P)^2^+0.1369P] where P=(Fo^2^+2Fc^2^)/3'
_refine_ls_weighting_scheme      calc
_refine_ls_wR_factor_gt          0.1160
_refine_ls_wR_factor_ref         0.1351
_reflns_Friedel_coverage         0.000
_reflns_number_gt                2252
_reflns_number_total             3475
_reflns_threshold_expression     'I > 2\s(I)'
_cod_data_source_file            jo7b01589_si_003.cif
_cod_data_source_block           mo_Sigalov_3_140217_0m
_cod_depositor_comments          'Adding full bibliography for 4032686.cif.'
_cod_database_code               4032686
_shelx_space_group_comment
;
The symmetry employed for this shelxl refinement is uniquely defined
by the following loop, which should always be used as a source of
symmetry information in preference to the above space-group names.
They are only intended as comments.
;
_shelx_estimated_absorpt_t_min   0.948
_shelx_estimated_absorpt_t_max   0.998
_shelxl_version_number           2013-3
_shelx_res_file
;
TITL mo_Sigalov_3_140217_0m in P-1
CELL 0.71073 7.5489 8.9993 9.2731 80.686 81.816 72.884
ZERR 2.00 0.0003 0.0004 0.0004 0.002 0.002 0.002
LATT 1
SFAC C  H  N  O
UNIT 20  26  10  6
L.S. 12
ACTA
BOND $H
FMAP 2
PLAN -3
HTAB C13 O3_$3
HTAB N5 O3_$3
HTAB C1 O3_$2
HTAB C13 O3_$3
HTAB N5 O3_$3
HTAB C1 O3_$2
HTAB C13 O3_$3
HTAB N5 O3_$3
HTAB C1 O3_$2
HTAB N5 O3_$3
HTAB C1 O3_$2
HTAB N5 O3_$3
HTAB C1 O3_$2
HTAB N5 O3_$3
HTAB C1 O3_$2
HTAB N5 O3_$3
EQIV $3 -x+1, -y, -z+2
HTAB C1 O3_$2
HTAB C1 O3_$2
EQIV $2 -x+2, -y, -z+1
HTAB N2 N5_$1
EQIV $1 x-1, y, z
CONF
HTAB
SIZE 0.020 0.060 0.500
HTAB C1 O3_$2
HTAB C1 O3_$2
HTAB C1 O3_$2
HTAB C1 O3_$2
HTAB N5 O3_$3
HTAB C1 O3_$2
HTAB N5 O3_$3
HTAB C1 O3_$2
HTAB N5 O3_$3
HTAB C1 O3_$2
HTAB N5 O3_$3
HTAB C13 O3_$3
HTAB C1 O3_$2
HTAB N5 O3_$3
HTAB C13 O3_$3
TEMP -273.150
WGHT    0.065700    0.136900
FVAR       0.22069
O1    4    1.099359   -0.071024    0.651775    11.00000    0.01992    0.02179 =
         0.01935   -0.01042    0.00568   -0.00336
N5    3    0.299220    0.275495    1.241432    11.00000    0.01923    0.01694 =
         0.01984   -0.00718    0.00591   -0.00572
O3    4    0.743251   -0.001545    0.836824    11.00000    0.02168    0.02127 =
         0.02362   -0.01022    0.00492   -0.01127
C12   1    0.727144    0.204765    0.979358    11.00000    0.01489    0.01331 =
         0.01354   -0.00280   -0.00094   -0.00275
C13   1    0.561876    0.203942    1.055138    11.00000    0.01628    0.01337 =
         0.01484   -0.00226   -0.00148   -0.00394
C14   1    0.461168    0.300980    1.165805    11.00000    0.01554    0.01508 =
         0.01474   -0.00179    0.00154   -0.00356
C15   1    0.491067    0.424953    1.221528    11.00000    0.02126    0.01712 =
         0.02297   -0.00614    0.00235   -0.00744
C11   1    1.179438    0.290956    0.842265    11.00000    0.02077    0.02897 =
         0.02526   -0.00872    0.00010   -0.01214
C1    1    1.229971   -0.136951    0.535105    11.00000    0.02332    0.03085 =
         0.02160   -0.01237    0.00296    0.00110
AFIX 137
H1    2    1.238322   -0.054183    0.453726    11.00000   -1.50000
H3    2    1.188194   -0.217296    0.500832    11.00000   -1.50000
H13   2    1.352701   -0.184450    0.570986    11.00000   -1.50000
AFIX   0
C2    1    1.132493    0.047210    0.707914    11.00000    0.01636    0.01562 =
         0.01359   -0.00195   -0.00154   -0.00147
C3    1    0.994677    0.121324    0.812731    11.00000    0.01310    0.01434 =
         0.01423   -0.00018   -0.00132   -0.00298
C4    1    0.813369    0.093898    0.871078    11.00000    0.01584    0.01289 =
         0.01305   -0.00154   -0.00049   -0.00271
C6    1    0.230836    0.377697    1.342000    11.00000    0.02227    0.01970 =
         0.02136   -0.00764    0.00695   -0.00273
C5    1    0.346392    0.472590    1.332025    11.00000    0.02793    0.01798 =
         0.02301   -0.00964    0.00441   -0.00554
C7    1    0.855774    0.302293    0.988219    11.00000    0.01607    0.01738 =
         0.01698   -0.00567    0.00119   -0.00651
AFIX  23
H11   2    0.894880    0.286597    1.088339    11.00000   -1.20000
H12   2    0.795411    0.415091    0.960727    11.00000   -1.20000
AFIX   0
C8    1    1.019577    0.241708    0.878579    11.00000    0.01435    0.01838 =
         0.01563   -0.00213   -0.00066   -0.00496
C9    1    1.313050    0.218171    0.738216    11.00000    0.01742    0.03417 =
         0.02662   -0.00440    0.00271   -0.01379
AFIX  43
H10   2    1.423208    0.251101    0.712079    11.00000   -1.20000
AFIX   0
C10   1    1.291237    0.098764    0.670943    11.00000    0.01409    0.02956 =
         0.01796   -0.00335    0.00342   -0.00345
AFIX  43
H9    2    1.385242    0.052037    0.599285    11.00000   -1.20000
AFIX   0
H2    2    1.197193    0.373495    0.893577    11.00000    0.03252
H6    2    0.115923    0.375777    1.404371    11.00000    0.03206
H14   2    0.251583    0.195179    1.229160    11.00000    0.04642
H15   2    0.329198    0.555548    1.391999    11.00000    0.02584
H4    2    0.591005    0.467787    1.189777    11.00000    0.02984
H5    2    0.502922    0.127114    1.035122    11.00000    0.01718
HKLF 4 1 1 0 0 0 1 0 0 0 1

REM  mo_Sigalov_3_140217_0m in P-1
REM R1 =  0.0553 for    2252 Fo > 4sig(Fo)  and  0.1075 for all    3475 data
REM    188 parameters refined using      0 restraints

END

WGHT      0.0657      0.1369

REM Instructions for potential hydrogen bonds
HTAB C1 O3_$2
HTAB N5 O3_$3
HTAB C13 O3_$3

REM Highest difference peak  0.301,  deepest hole -0.373,  1-sigma level  0.079
Q1    1   0.7647  0.1376  0.9368  11.00000  0.05    0.30
Q2    1   1.3148  0.0822  0.4127  11.00000  0.05    0.23
Q3    1   1.2347  0.2953  0.9601  11.00000  0.05    0.22
;
_shelx_res_checksum              48445
_shelx_hkl_file
;
  -1   0   0    1.11    0.09
  -1   0   0    1.31    0.11
  -1   0   0    1.14    0.09
  -1   0   0    1.05    0.11
  -1   0   0    1.13    0.09
   1   0   0    1.10    0.09
   1   0   0    1.15    0.11
   1   0   0    1.19    0.12
   1   0   0    1.00    0.11
  -2   0   0   66.32    2.93
  -2   0   0   66.64    3.21
  -2   0   0   66.40    2.86
  -2   0   0   63.61    2.86
  -2   0   0   68.94    2.94
  -2   0   0   61.71    3.11
   2   0   0   63.39    2.92
   2   0   0   70.35    3.20
   2   0   0   66.74    2.85
   2   0   0   61.04    2.93
  -3   0   0    2.58    0.33
  -3   0   0    2.30    0.21
  -3   0   0    2.38    0.22
  -3   0   0    2.01    0.27
  -3   0   0    2.37    0.27
  -3   0   0    2.41    0.21
  -3   0   0    2.69    0.29
  -3   0   0    1.79    0.27
   3   0   0    2.61    0.21
   3   0   0    2.25    0.22
   3   0   0    2.30    0.18
   3   0   0    2.08    0.29
   3   0   0    2.12    0.30
   3   0   0    2.48    0.27
  -4   0   0   21.46    1.16
  -4   0   0   21.55    1.27
  -4   0   0   21.07    1.12
  -4   0   0   24.08    1.13
  -4   0   0   19.14    1.05
  -4   0   0   21.61    1.05
  -4   0   0   21.98    1.27
  -4   0   0   19.86    1.05
   4   0   0   21.09    1.07
   4   0   0   21.01    1.04
   4   0   0   22.10    1.20
   4   0   0   21.71    1.26
   4   0   0   21.46    1.15
  -5   0   0    3.63    0.38
  -5   0   0    3.85    0.46
  -5   0   0    4.42    0.37
  -5   0   0    4.45    0.40
  -5   0   0    5.04    0.39
  -5   0   0    4.44    0.58
  -5   0   0    4.85    0.55
  -5   0   0    4.88    0.50
   5   0   0    3.94    0.47
   5   0   0    4.83    0.42
   5   0   0    2.94    0.48
   5   0   0    4.67    0.39
   5   0   0    4.59    0.51
  -6   0   0    1.74    0.29
  -6   0   0    1.42    0.44
  -6   0   0    1.41    0.39
  -6   0   0    1.72    0.26
  -6   0   0    1.45    0.36
  -6   0   0    1.50    0.43
  -6   0   0    1.03    0.23
  -6   0   0    1.15    0.27
   6   0   0    1.53    0.37
   6   0   0    1.50    0.43
   6   0   0    1.91    0.29
   6   0   0    1.10    0.36
  -7   0   0    5.60    0.81
  -7   0   0    5.06    0.54
  -7   0   0    5.59    0.49
  -7   0   0    5.69    0.83
  -7   0   0    5.57    0.53
   7   0   0    6.08    0.80
   7   0   0    4.74    0.76
   7   0   0    5.79    0.71
   7   0   0    4.33    0.56
  -8   0   0   -0.24    0.61
  -8   0   0    0.38    0.26
  -8   0   0   -0.24    0.60
  -8   0   0    0.38    0.34
  -8   0   0    0.63    0.34
  -8   0   0    0.22    0.58
   8   0   0    0.39    0.54
   8   0   0    0.29    0.43
  -9   0   0    1.06    0.82
  -9   0   0    0.70    0.45
  -9   0   0   -0.55    0.76
   9   0   0    2.11    0.87
   9   0   0    1.56    0.67
 -10   0   0    1.08    1.22
 -10   0   0   -0.43    0.54
 -10   0   0   -0.20    1.01
  10   0   0    0.84    1.06
  10   0   0    0.01    0.93
   9  -1   0    0.69    0.72
   9  -1   0   -2.17    0.82
  -9   1   0   -0.42    0.87
  -9   1   0    0.01    0.51
  -9   1   0   -0.11    0.96
   8  -1   0    0.34    0.58
   8  -1   0   -0.46    0.49
  -8   1   0   -0.57    0.57
  -8   1   0   -0.05    0.39
  -8   1   0    0.10    0.41
  -8   1   0   -0.11    0.66
   7  -1   0   17.79    1.23
   7  -1   0   15.74    1.07
   7  -1   0   17.08    1.11
  -7   1   0   16.00    1.06
  -7   1   0   15.86    1.38
  -7   1   0   16.29    1.02
  -7   1   0   16.59    0.86
   6  -1   0    5.82    0.82
   6  -1   0    5.17    0.54
   6  -1   0    6.58    0.61
   6  -1   0    5.25    0.70
   6  -1   0    5.53    0.65
  -6   1   0    5.55    0.77
  -6   1   0    4.61    0.54
  -6   1   0    5.62    0.38
  -6   1   0    4.98    0.51
  -6   1   0    6.02    0.76
  -6   1   0    6.32    0.82
   5  -1   0    0.06    0.18
   5  -1   0    0.47    0.23
   5  -1   0    0.07    0.21
   5  -1   0    0.33    0.34
   5  -1   0    0.23    0.25
  -5   1   0    0.18    0.26
  -5   1   0    0.10    0.13
  -5   1   0   -0.03    0.26
  -5   1   0    0.43    0.21
  -5   1   0    0.03    0.29
  -5   1   0   -0.13    0.16
  -5   1   0    0.20    0.10
  -5   1   0    0.03    0.23
   4  -1   0   11.25    0.73
   4  -1   0    9.25    0.63
   4  -1   0   10.86    0.80
   4  -1   0    9.36    0.65
   4  -1   0    9.89    0.61
  -4   1   0    9.80    0.53
  -4   1   0   10.07    0.60
  -4   1   0    8.89    0.76
  -4   1   0    9.89    0.53
  -4   1   0    9.74    0.65
  -4   1   0   10.32    0.68
  -4   1   0   10.14    0.63
   3  -1   0    1.50    0.22
   3  -1   0    1.20    0.20
   3  -1   0    1.61    0.26
   3  -1   0    1.05    0.17
   3  -1   0    1.29    0.26
  -3   1   0    1.08    0.21
  -3   1   0    1.34    0.13
  -3   1   0    0.96    0.23
  -3   1   0    1.34    0.12
  -3   1   0    1.40    0.19
  -3   1   0    1.56    0.21
   2  -1   0   58.63    2.49
   2  -1   0   47.93    2.57
   2  -1   0   51.68    2.42
   2  -1   0   50.90    2.72
   2  -1   0   55.72    2.44
  -2   1   0   56.75    2.38
  -2   1   0   61.25    2.56
  -2   1   0   55.30    2.43
  -2   1   0   54.52    2.44
  -2   1   0   55.48    2.46
  -2   1   0   52.78    2.73
   1  -1   0   88.09    4.09
   1  -1   0   86.94    3.83
   1  -1   0   91.05    3.82
   1  -1   0   88.60    3.81
   1  -1   0   87.31    4.22
  -1   1   0   90.33    3.81
  -1   1   0   87.28    3.68
  -1   1   0   80.62    4.01
  -1   1   0   90.11    4.22
  -1   1   0   90.04    3.82
  -1   1   0   87.10    4.09
   0  -1   0   67.26    2.86
   0  -1   0   69.42    3.00
   0  -1   0   72.12    3.28
   0   1   0   69.45    2.99
   0   1   0   68.39    3.14
  -1  -1   0   26.95    1.19
  -1  -1   0   30.21    1.22
  -1  -1   0   25.37    1.29
  -1  -1   0   27.93    1.20
  -1  -1   0   24.00    1.29
  -1  -1   0   25.42    1.27
  -1  -1   0   28.94    1.28
  -1  -1   0   26.49    1.29
   1   1   0   26.06    1.29
   1   1   0   27.06    1.27
   1   1   0   30.20    1.27
   1   1   0   27.94    1.21
   1   1   0   27.82    1.29
   1   1   0   27.27    1.19
  -2  -1   0    0.04    0.06
  -2  -1   0   -0.10    0.09
  -2  -1   0    0.09    0.05
  -2  -1   0    0.05    0.05
  -2  -1   0    0.04    0.08
  -2  -1   0    0.10    0.10
  -2  -1   0   -0.01    0.06
  -2  -1   0    0.14    0.08
   2   1   0   -0.01    0.08
   2   1   0   -0.15    0.06
   2   1   0   -0.03    0.04
   2   1   0   -0.02    0.05
   2   1   0   -0.04    0.09
  -3  -1   0    8.02    0.48
  -3  -1   0    7.62    0.42
  -3  -1   0    7.82    0.52
  -3  -1   0    8.31    0.44
  -3  -1   0    6.72    0.51
  -3  -1   0    7.68    0.55
  -3  -1   0    7.91    0.49
  -3  -1   0    8.71    0.54
   3   1   0    7.66    0.50
   3   1   0    7.91    0.53
   3   1   0    7.79    0.48
   3   1   0    8.27    0.51
   3   1   0    8.00    0.41
  -4  -1   0    1.32    0.21
  -4  -1   0    1.94    0.31
  -4  -1   0    1.39    0.18
  -4  -1   0    1.78    0.20
  -4  -1   0    1.98    0.30
  -4  -1   0    1.38    0.29
  -4  -1   0    1.94    0.26
   4   1   0    1.58    0.26
   4   1   0    1.25    0.28
   4   1   0    1.34    0.16
   4   1   0    1.54    0.27
   4   1   0    1.75    0.23
  -5  -1   0    0.17    0.19
  -5  -1   0    0.50    0.16
  -5  -1   0    0.54    0.16
  -5  -1   0    0.72    0.22
  -5  -1   0    0.75    0.30
  -5  -1   0    0.53    0.20
  -5  -1   0    0.36    0.24
  -5  -1   0    0.34    0.24
  -5  -1   0    0.66    0.28
  -5  -1   0    0.62    0.26
   5   1   0    0.29    0.17
   5   1   0    0.51    0.22
   5   1   0    0.63    0.28
   5   1   0    0.51    0.16
  -6  -1   0    2.24    0.39
  -6  -1   0    2.11    0.45
  -6  -1   0    2.80    0.40
  -6  -1   0    2.35    0.46
  -6  -1   0    2.69    0.35
  -6  -1   0    2.41    0.30
  -6  -1   0    2.98    0.38
  -6  -1   0    3.04    0.47
  -6  -1   0    2.83    0.49
  -6  -1   0    2.79    0.46
   6   1   0    2.37    0.50
   6   1   0    2.90    0.38
   6   1   0    3.10    0.34
   6   1   0    2.63    0.45
   6   1   0    2.64    0.46
  -7  -1   0   -0.20    0.43
  -7  -1   0    0.76    0.49
  -7  -1   0    0.21    0.22
  -7  -1   0    0.34    0.23
  -7  -1   0    0.04    0.30
  -7  -1   0    0.82    0.42
   7   1   0    0.02    0.41
   7   1   0   -0.01    0.27
   7   1   0   -0.24    0.36
   7   1   0    0.52    0.24
   7   1   0    0.18    0.44
  -8  -1   0    0.19    0.35
  -8  -1   0   -0.41    0.29
  -8  -1   0    0.13    0.28
  -8  -1   0    0.27    0.52
  -8  -1   0    1.23    0.55
  -8  -1   0   -0.15    0.60
   8   1   0    0.45    0.38
   8   1   0   -0.13    0.53
   8   1   0    0.55    0.32
   8   1   0    0.91    0.67
  -9  -1   0    1.59    0.76
  -9  -1   0    0.45    0.38
  -9  -1   0    0.42    0.72
   9   1   0    0.51    0.69
   9   1   0    0.34    0.65
 -10  -1   0   -0.11    0.43
 -10  -1   0   -2.03    1.07
 -10  -1   0   -0.79    0.91
  10   1   0    0.22    0.82
   9  -2   0    0.63    0.82
   9  -2   0   -0.49    0.90
  -9   2   0    0.43    0.61
  -9   2   0   -0.52    1.00
  -9   2   0   -0.74    0.96
   8  -2   0   10.82    1.33
   8  -2   0   10.46    1.28
   8  -2   0   13.39    1.24
  -8   2   0    9.50    1.41
  -8   2   0   12.05    1.06
  -8   2   0    9.79    1.34
   7  -2   0    5.90    0.84
   7  -2   0    5.69    0.71
  -7   2   0    4.77    0.85
  -7   2   0    4.53    0.58
   6  -2   0    5.51    0.67
   6  -2   0    5.23    0.67
   6  -2   0    4.99    0.63
   6  -2   0    5.98    0.73
   6  -2   0    5.17    0.78
  -6   2   0    5.72    0.62
  -6   2   0    5.49    0.61
  -6   2   0    5.54    0.81
  -6   2   0    4.86    0.73
  -6   2   0    6.67    0.77
  -6   2   0    5.15    0.59
   5  -2   0    8.67    0.78
   5  -2   0    9.54    0.76
   5  -2   0    9.78    0.68
   5  -2   0   10.30    0.90
   5  -2   0    9.35    0.73
  -5   2   0    8.91    0.69
  -5   2   0    8.80    0.49
  -5   2   0    9.53    0.74
  -5   2   0    8.68    0.89
  -5   2   0    9.27    0.84
  -5   2   0    9.19    0.68
  -5   2   0    9.21    0.70
   4  -2   0    0.42    0.25
   4  -2   0    0.49    0.29
   4  -2   0    0.60    0.20
   4  -2   0    0.31    0.22
  -4   2   0    0.62    0.21
  -4   2   0    0.39    0.18
  -4   2   0    0.20    0.20
  -4   2   0    0.72    0.10
  -4   2   0    0.27    0.24
  -4   2   0    0.75    0.10
  -4   2   0    0.57    0.20
   3  -2   0    0.67    0.18
   3  -2   0    0.52    0.09
   3  -2   0    0.06    0.14
  -3   2   0    0.55    0.16
  -3   2   0    0.64    0.24
  -3   2   0    0.15    0.11
  -3   2   0    0.45    0.15
  -3   2   0    0.51    0.16
  -3   2   0    0.42    0.08
   2  -2   0    7.63    0.54
   2  -2   0    6.69    0.44
   2  -2   0    5.91    0.36
   2  -2   0    6.67    0.43
   2  -2   0    7.22    0.46
  -2   2   0    7.00    0.37
  -2   2   0    7.32    0.42
  -2   2   0    6.49    0.41
  -2   2   0    6.75    0.45
  -2   2   0    6.45    0.42
   1  -2   0   25.93    1.31
   1  -2   0   26.18    1.42
   1  -2   0   27.10    1.28
   1  -2   0   28.84    1.31
   1  -2   0   27.22    1.28
  -1   2   0   27.50    1.28
  -1   2   0   27.24    1.27
  -1   2   0   26.85    1.20
  -1   2   0   27.01    1.28
   0  -2   0   16.53    0.79
   0  -2   0   15.50    0.77
   0  -2   0   16.69    0.80
   0  -2   0   16.63    0.86
   0  -2   0   15.56    0.70
   0   2   0   16.44    0.78
   0   2   0   14.75    0.78
   0   2   0   17.58    0.78
   0   2   0   17.44    0.69
   0   2   0   15.91    0.82
  -1  -2   0   60.28    2.63
  -1  -2   0   69.17    2.77
  -1  -2   0   55.77    2.77
  -1  -2   0   65.66    2.83
  -1  -2   0   63.79    2.61
  -1  -2   0   55.49    2.76
  -1  -2   0   62.44    2.64
   1   2   0   51.20    2.82
   1   2   0   63.51    2.63
   1   2   0   55.00    2.78
   1   2   0   59.44    2.77
   1   2   0   59.11    2.63
   1   2   0   60.28    2.79
  -2  -2   0    0.65    0.11
  -2  -2   0    0.65    0.13
  -2  -2   0    0.71    0.15
  -2  -2   0    0.73    0.08
  -2  -2   0    1.02    0.13
  -2  -2   0    0.74    0.13
  -2  -2   0    0.54    0.13
  -2  -2   0    0.58    0.09
   2   2   0    0.72    0.17
   2   2   0    0.63    0.14
   2   2   0    0.59    0.09
   2   2   0    0.55    0.10
   2   2   0    0.84    0.14
  -3  -2   0    2.87    0.32
  -3  -2   0    2.83    0.25
  -3  -2   0    2.88    0.32
  -3  -2   0    3.36    0.25
  -3  -2   0    2.99    0.24
  -3  -2   0    2.75    0.29
  -3  -2   0    3.42    0.31
  -3  -2   0    2.76    0.21
   3   2   0    2.77    0.30
   3   2   0    3.15    0.24
   3   2   0    3.51    0.33
   3   2   0    3.08    0.21
   3   2   0    2.72    0.30
  -4  -2   0   25.04    1.36
  -4  -2   0   23.68    1.14
  -4  -2   0   24.73    1.30
  -4  -2   0   23.75    1.16
  -4  -2   0   25.11    1.26
  -4  -2   0   22.94    1.31
   4   2   0   25.28    1.31
   4   2   0   23.91    1.27
   4   2   0   23.01    1.34
   4   2   0   25.36    1.27
   4   2   0   25.12    1.14
   4   2   0   24.82    1.15
  -5  -2   0    4.52    0.48
  -5  -2   0    3.75    0.46
  -5  -2   0    4.31    0.52
  -5  -2   0    4.40    0.41
  -5  -2   0    4.12    0.50
  -5  -2   0    4.32    0.33
  -5  -2   0    3.81    0.32
  -5  -2   0    4.61    0.55
   5   2   0    4.17    0.45
   5   2   0    4.08    0.50
   5   2   0    3.90    0.40
   5   2   0    4.25    0.33
  -6  -2   0    0.32    0.32
  -6  -2   0    0.44    0.16
  -6  -2   0   -0.12    0.30
  -6  -2   0    0.36    0.26
  -6  -2   0    0.26    0.23
  -6  -2   0    0.28    0.15
  -6  -2   0    0.88    0.37
  -6  -2   0    0.74    0.40
   6   2   0    0.18    0.17
   6   2   0    0.05    0.15
   6   2   0    0.15    0.20
   6   2   0   -0.04    0.26
   6   2   0    0.00    0.27
  -7  -2   0    5.32    0.47
  -7  -2   0    5.13    0.75
  -7  -2   0    6.09    0.67
  -7  -2   0    5.12    0.47
  -7  -2   0    6.42    0.81
  -7  -2   0    6.02    0.81
  -7  -2   0    5.33    0.69
  -7  -2   0    6.20    0.74
   7   2   0    6.47    0.47
   7   2   0    6.08    0.76
   7   2   0    5.98    0.53
   7   2   0    5.84    0.77
   7   2   0    6.12    0.49
  -8  -2   0    0.14    0.44
  -8  -2   0   -0.51    0.47
  -8  -2   0    0.13    0.24
  -8  -2   0   -0.41    0.46
  -8  -2   0    0.29    0.25
   8   2   0    0.35    0.24
   8   2   0    0.39    0.28
  -9  -2   0    0.36    0.35
  -9  -2   0    0.64    0.65
  -9  -2   0    0.31    0.70
  -9  -2   0    0.61    0.70
  -9  -2   0   -0.30    0.29
   9   2   0   -0.02    0.26
   9   2   0    0.29    0.62
 -10  -2   0    1.39    0.95
 -10  -2   0   -0.91    0.80
 -10  -2   0    0.63    0.35
  10   2   0    0.61    0.78
   9  -3   0   -0.77    0.87
   9  -3   0    0.00    1.01
  -9   3   0   -0.63    1.13
  -9   3   0    0.20    1.19
  -9   3   0    0.28    0.76
   8  -3   0    1.84    0.73
   8  -3   0    1.83    0.81
  -8   3   0   -0.59    0.88
  -8   3   0    0.66    0.57
  -8   3   0   -0.08    0.83
   7  -3   0    0.71    0.54
   7  -3   0    0.27    0.55
   7  -3   0    0.08    0.58
  -7   3   0    0.99    0.50
  -7   3   0    1.13    0.45
  -7   3   0    0.90    0.65
  -7   3   0    1.27    0.66
   6  -3   0    1.86    0.48
   6  -3   0    2.64    0.60
   6  -3   0    2.99    0.53
  -6   3   0    2.80    0.53
  -6   3   0    3.47    0.52
  -6   3   0    3.32    0.48
  -6   3   0    2.56    0.71
  -6   3   0    3.87    0.69
   5  -3   0    1.44    0.34
   5  -3   0    1.14    0.35
   5  -3   0    1.42    0.48
   5  -3   0    0.73    0.37
   5  -3   0    0.54    0.33
  -5   3   0    1.17    0.29
  -5   3   0    0.54    0.29
  -5   3   0    0.92    0.40
  -5   3   0    1.31    0.35
  -5   3   0    0.88    0.35
   4  -3   0    1.52    0.30
   4  -3   0    4.17    0.57
   4  -3   0    2.81    0.41
   4  -3   0    2.66    0.39
   4  -3   0    2.83    0.42
  -4   3   0    2.42    0.37
  -4   3   0    2.77    0.40
  -4   3   0    2.56    0.50
  -4   3   0    2.34    0.34
  -4   3   0    2.43    0.18
  -4   3   0    2.18    0.29
   3  -3   0   19.96    1.30
   3  -3   0   20.45    1.11
   3  -3   0   20.11    1.02
   3  -3   0   20.13    1.13
   3  -3   0   19.42    1.12
  -3   3   0   21.01    1.32
  -3   3   0   22.37    1.08
  -3   3   0   20.34    1.12
  -3   3   0   20.16    1.10
   2  -3   0   11.02    0.70
   2  -3   0   12.27    0.72
   2  -3   0   12.36    0.64
   2  -3   0   12.06    0.69
   2  -3   0   11.95    0.84
   2  -3   0   11.87    0.72
  -2   3   0   12.67    0.73
  -2   3   0   12.64    0.84
  -2   3   0   12.83    0.71
  -2   3   0   11.37    0.64
  -2   3   0   12.40    0.65
   1  -3   0    0.97    0.14
   1  -3   0    0.98    0.18
   1  -3   0    1.13    0.19
   1  -3   0    0.60    0.17
  -1   3   0    0.78    0.12
  -1   3   0    1.03    0.18
  -1   3   0    0.96    0.11
  -1   3   0    0.81    0.17
  -1   3   0    0.86    0.20
  -1   3   0    0.70    0.16
   0  -3   0    2.13    0.23
   0  -3   0    2.03    0.15
   0  -3   0    2.25    0.24
   0  -3   0    2.33    0.14
   0  -3   0    2.00    0.22
   0   3   0    2.13    0.24
   0   3   0    1.79    0.11
   0   3   0    2.04    0.21
   0   3   0    1.99    0.15
   0   3   0    2.30    0.27
  -1  -3   0   21.87    1.02
  -1  -3   0   22.01    1.14
  -1  -3   0   23.45    1.04
  -1  -3   0   21.72    1.07
  -1  -3   0   21.41    1.06
  -1  -3   0   20.30    1.09
   1   3   0   21.73    1.04
   1   3   0   24.05    1.06
   1   3   0   21.77    1.06
   1   3   0   21.12    1.14
   1   3   0   20.95    1.08
  -2  -3   0   -0.33    0.13
  -2  -3   0    0.09    0.08
  -2  -3   0    0.10    0.10
  -2  -3   0    0.02    0.07
  -2  -3   0   -0.05    0.10
   2   3   0   -0.03    0.08
   2   3   0    0.20    0.11
   2   3   0    0.02    0.08
   2   3   0    0.12    0.08
   2   3   0    0.13    0.10
   2   3   0    0.10    0.09
   2   3   0    0.13    0.13
  -3  -3   0   24.57    1.19
  -3  -3   0   25.25    1.16
  -3  -3   0   25.86    1.31
  -3  -3   0   28.44    1.36
  -3  -3   0   21.43    1.20
  -3  -3   0   25.82    1.29
  -3  -3   0   25.60    1.26
  -3  -3   0   22.39    1.24
   3   3   0   24.27    1.31
   3   3   0   26.16    1.17
   3   3   0   24.81    1.25
   3   3   0   23.88    1.23
   3   3   0   24.99    1.31
  -4  -3   0    0.07    0.09
  -4  -3   0    0.29    0.13
  -4  -3   0    0.00    0.11
  -4  -3   0    0.12    0.21
  -4  -3   0   -0.14    0.17
  -4  -3   0   -0.07    0.12
  -4  -3   0   -0.14    0.14
  -4  -3   0    0.04    0.20
  -4  -3   0    0.04    0.19
   4   3   0   -0.03    0.10
   4   3   0   -0.23    0.16
   4   3   0    0.11    0.18
   4   3   0    0.02    0.20
   4   3   0   -0.03    0.09
  -5  -3   0    0.84    0.16
  -5  -3   0    1.39    0.33
  -5  -3   0    0.95    0.26
  -5  -3   0    1.09    0.29
  -5  -3   0    0.53    0.27
  -5  -3   0    1.12    0.33
  -5  -3   0    1.03    0.22
  -5  -3   0    0.86    0.19
  -5  -3   0    0.43    0.28
  -5  -3   0    0.63    0.22
   5   3   0    0.82    0.28
   5   3   0    0.89    0.16
   5   3   0    1.13    0.32
   5   3   0    0.97    0.17
   5   3   0    0.62    0.22
  -6  -3   0    0.47    0.24
  -6  -3   0    0.20    0.13
  -6  -3   0   -0.09    0.22
  -6  -3   0    0.46    0.39
  -6  -3   0   -0.16    0.29
  -6  -3   0   -0.05    0.32
  -6  -3   0    0.39    0.36
  -6  -3   0    0.15    0.26
  -6  -3   0    0.27    0.17
  -6  -3   0   -0.10    0.30
   6   3   0    0.06    0.27
   6   3   0    0.09    0.22
   6   3   0   -0.04    0.14
  -7  -3   0    3.76    0.63
  -7  -3   0    4.02    0.41
  -7  -3   0    3.59    0.68
  -7  -3   0    4.16    0.54
  -7  -3   0    4.42    0.38
  -7  -3   0    3.21    0.51
  -7  -3   0    3.51    0.56
   7   3   0    4.62    0.36
   7   3   0    3.34    0.48
   7   3   0    4.64    0.63
   7   3   0    4.18    0.36
  -8  -3   0   -0.06    0.19
  -8  -3   0   -0.43    0.49
  -8  -3   0    0.71    0.45
  -8  -3   0   -0.16    0.41
  -8  -3   0    1.00    0.54
   8   3   0   -0.39    0.30
   8   3   0   -0.58    0.43
   8   3   0    0.16    0.18
   8   3   0    0.27    0.17
  -9  -3   0    5.57    0.50
  -9  -3   0    5.87    0.83
  -9  -3   0    4.06    0.76
  -9  -3   0    4.90    0.85
  -9  -3   0    4.38    0.91
  -9  -3   0    4.63    0.46
  -9  -3   0    4.20    0.86
   9   3   0    4.07    0.82
 -10  -3   0    0.63    0.81
 -10  -3   0   -0.75    0.92
  10   3   0    1.00    0.75
   8  -4   0    0.81    0.86
   8  -4   0   -1.16    0.74
  -8   4   0    1.92    1.01
  -8   4   0    0.96    0.67
  -8   4   0    0.75    1.00
   7  -4   0    1.74    0.77
   7  -4   0    2.55    0.64
   7  -4   0    2.27    0.76
  -7   4   0    1.35    0.55
  -7   4   0    3.16    0.84
  -7   4   0    2.20    0.79
   6  -4   0    1.47    0.54
   6  -4   0    1.49    0.47
   6  -4   0    1.52    0.53
  -6   4   0    1.56    0.48
  -6   4   0    0.82    0.53
  -6   4   0    1.43    0.63
  -6   4   0    0.55    0.49
   5  -4   0   -0.01    0.36
   5  -4   0    0.43    0.36
   5  -4   0   -0.25    0.29
  -5   4   0    0.45    0.44
  -5   4   0    0.12    0.26
  -5   4   0    0.26    0.36
   4  -4   0    5.08    0.60
   4  -4   0    4.84    0.34
   4  -4   0    4.39    0.56
   4  -4   0    4.64    0.61
   4  -4   0    3.52    0.62
  -4   4   0    5.35    0.53
  -4   4   0    5.54    0.55
  -4   4   0    4.22    0.30
  -4   4   0    5.35    0.59
  -4   4   0    4.89    0.43
  -4   4   0    5.04    0.68
   3  -4   0    0.37    0.33
   3  -4   0    0.87    0.28
   3  -4   0    0.44    0.21
   3  -4   0    0.28    0.24
  -3   4   0    0.81    0.15
  -3   4   0    0.48    0.24
  -3   4   0    0.64    0.20
  -3   4   0    0.52    0.31
  -3   4   0    0.60    0.24
  -3   4   0    0.40    0.17
   2  -4   0   11.47    0.76
   2  -4   0   11.37    0.73
   2  -4   0   11.20    0.67
   2  -4   0   11.61    0.65
   2  -4   0   12.11    0.88
   2  -4   0   11.27    0.71
  -2   4   0   11.26    0.75
  -2   4   0   10.80    0.83
  -2   4   0   10.88    0.68
  -2   4   0   11.27    0.61
  -2   4   0   11.18    0.63
  -2   4   0   11.65    0.71
   1  -4   0    0.22    0.15
   1  -4   0    0.11    0.09
   1  -4   0    0.42    0.18
   1  -4   0    0.12    0.17
   1  -4   0    0.15    0.11
  -1   4   0    0.19    0.15
  -1   4   0    0.09    0.16
  -1   4   0    0.34    0.19
  -1   4   0    0.17    0.09
  -1   4   0    0.14    0.06
  -1   4   0    0.09    0.16
   0  -4   0    9.01    0.58
   0  -4   0    8.60    0.48
   0  -4   0    9.01    0.57
   0  -4   0    8.39    0.60
   0   4   0    9.83    0.47
   0   4   0    9.50    0.50
   0   4   0    8.93    0.59
   0   4   0    8.74    0.60
   0   4   0    8.54    0.40
   0   4   0    9.11    0.61
   0   4   0    9.35    0.57
  -1  -4   0   16.27    0.89
  -1  -4   0   16.24    0.70
  -1  -4   0   16.73    0.90
  -1  -4   0   16.59    0.83
  -1  -4   0   16.63    0.87
   1   4   0   17.68    0.87
   1   4   0   17.07    0.90
   1   4   0   17.19    0.88
   1   4   0   14.78    0.94
   1   4   0   17.50    0.83
   1   4   0   15.71    0.88
  -2  -4   0    4.59    0.46
  -2  -4   0    4.50    0.36
  -2  -4   0    5.67    0.31
  -2  -4   0    4.88    0.38
  -2  -4   0    4.58    0.27
  -2  -4   0    4.70    0.35
  -2  -4   0    4.67    0.33
   2   4   0    5.21    0.41
   2   4   0    5.13    0.35
   2   4   0    4.94    0.35
   2   4   0    4.39    0.38
   2   4   0    4.44    0.36
   2   4   0    4.42    0.44
  -3  -4   0   23.32    1.18
  -3  -4   0   22.54    1.11
  -3  -4   0   21.92    1.20
  -3  -4   0   23.50    1.15
   3   4   0   24.33    1.24
   3   4   0   23.03    1.11
   3   4   0   22.07    1.14
   3   4   0   19.61    1.24
   3   4   0   23.66    1.12
   3   4   0   23.99    1.19
  -4  -4   0    0.63    0.19
  -4  -4   0    0.62    0.18
  -4  -4   0    0.74    0.14
  -4  -4   0    0.77    0.20
  -4  -4   0    0.41    0.18
  -4  -4   0    0.40    0.26
  -4  -4   0    0.61    0.08
  -4  -4   0    0.53    0.28
   4   4   0    0.73    0.25
   4   4   0    0.64    0.23
   4   4   0    0.68    0.22
   4   4   0    0.67    0.16
  -5  -4   0   17.23    0.98
  -5  -4   0   16.69    0.86
  -5  -4   0   18.80    0.94
  -5  -4   0   13.53    1.01
  -5  -4   0   16.97    0.93
  -5  -4   0   17.16    1.09
  -5  -4   0   16.54    1.06
  -5  -4   0   17.90    1.14
  -5  -4   0   16.83    1.12
  -5  -4   0   16.74    0.96
   5   4   0   17.44    0.87
   5   4   0   18.84    1.09
   5   4   0   15.62    1.10
   5   4   0   16.60    1.02
   5   4   0   17.53    0.87
  -6  -4   0    2.24    0.45
  -6  -4   0    3.25    0.56
  -6  -4   0    2.25    0.33
  -6  -4   0    2.59    0.40
  -6  -4   0    2.20    0.42
  -6  -4   0    2.01    0.30
  -6  -4   0    2.23    0.49
  -6  -4   0    2.54    0.28
  -6  -4   0    1.96    0.43
   6   4   0    2.25    0.42
   6   4   0    2.36    0.28
   6   4   0    2.50    0.30
   6   4   0    2.23    0.40
  -7  -4   0    1.50    0.47
  -7  -4   0    1.49    0.22
  -7  -4   0    0.83    0.39
  -7  -4   0    1.67    0.46
  -7  -4   0    1.39    0.38
  -7  -4   0    0.63    0.63
  -7  -4   0    1.14    0.63
  -7  -4   0    0.83    0.32
  -7  -4   0    1.61    0.30
   7   4   0    2.01    0.22
   7   4   0    1.46    0.39
   7   4   0    1.63    0.22
   7   4   0    0.80    0.37
  -8  -4   0    2.38    0.34
  -8  -4   0    2.36    0.46
  -8  -4   0    2.43    0.27
  -8  -4   0    2.59    0.64
  -8  -4   0    2.26    0.50
   8   4   0    2.96    0.52
   8   4   0    2.99    0.62
  -9  -4   0    0.06    0.49
  -9  -4   0   -0.11    0.64
  -9  -4   0    0.47    0.21
  -9  -4   0    0.20    0.19
  -9  -4   0    1.29    0.84
  -9  -4   0    0.29    0.63
  -9  -4   0   -0.38    0.61
   9   4   0    0.48    0.45
   9   4   0    0.77    0.60
 -10  -4   0    0.38    0.85
 -10  -4   0    1.17    0.71
 -10  -4   0    0.15    0.80
  10   4   0    0.14    0.75
   8  -5   0    1.98    0.89
   8  -5   0    1.31    1.09
  -8   5   0    0.35    1.18
  -8   5   0    1.80    0.87
  -8   5   0    2.51    1.34
   7  -5   0   -0.05    0.63
   7  -5   0    0.47    0.72
   7  -5   0   -1.05    0.81
  -7   5   0    0.99    0.66
  -7   5   0    1.09    0.88
  -7   5   0    0.38    0.96
   6  -5   0    2.92    0.64
   6  -5   0    5.12    0.83
   6  -5   0    5.88    0.88
  -6   5   0    3.11    0.65
  -6   5   0    4.51    0.91
  -6   5   0    2.64    0.69
   5  -5   0    0.20    0.35
   5  -5   0    1.02    0.52
  -5   5   0    0.72    0.55
  -5   5   0    0.68    0.44
  -5   5   0    0.82    0.52
   4  -5   0    7.20    0.69
   4  -5   0    7.74    0.78
   4  -5   0    8.36    1.03
  -4   5   0    7.90    0.67
  -4   5   0    7.03    0.47
  -4   5   0    8.30    0.95
  -4   5   0    6.78    0.76
  -4   5   0    7.27    0.54
  -4   5   0    6.77    0.73
   3  -5   0    0.82    0.30
   3  -5   0    0.43    0.40
   3  -5   0    0.53    0.34
   3  -5   0    0.21    0.24
   3  -5   0    0.16    0.13
  -3   5   0    0.15    0.34
  -3   5   0    0.22    0.19
  -3   5   0    0.29    0.14
  -3   5   0    0.35    0.29
  -3   5   0    0.15    0.25
  -3   5   0   -0.12    0.21
   2  -5   0    2.72    0.38
   2  -5   0    2.78    0.47
   2  -5   0    2.50    0.41
   2  -5   0    3.61    0.32
   2  -5   0    3.44    0.45
  -2   5   0    3.11    0.43
  -2   5   0    3.30    0.31
  -2   5   0    2.82    0.36
  -2   5   0    3.47    0.54
  -2   5   0    3.53    0.28
  -2   5   0    2.75    0.40
   1  -5   0    0.44    0.28
   1  -5   0    0.78    0.27
   1  -5   0    0.38    0.12
   1  -5   0    0.54    0.16
   1  -5   0    0.46    0.21
  -1   5   0    0.74    0.24
  -1   5   0    0.47    0.22
  -1   5   0    0.51    0.21
  -1   5   0    0.78    0.11
  -1   5   0    0.51    0.11
  -1   5   0    0.66    0.26
   0  -5   0    4.61    0.31
   0  -5   0    4.40    0.41
   0  -5   0    4.67    0.46
   0  -5   0    4.21    0.43
   0  -5   0    4.01    0.44
   0   5   0    5.04    0.48
   0   5   0    5.22    0.45
   0   5   0    4.57    0.46
   0   5   0    4.76    0.44
   0   5   0    4.46    0.32
   0   5   0    4.63    0.22
   0   5   0    4.49    0.28
  -1  -5   0   25.87    1.26
  -1  -5   0   25.87    1.33
  -1  -5   0   27.06    1.38
  -1  -5   0   26.84    1.36
   1   5   0   24.72    1.32
   1   5   0   27.52    1.28
   1   5   0   24.90    1.30
   1   5   0   24.31    1.32
   1   5   0   25.77    1.43
  -2  -5   0    0.24    0.14
  -2  -5   0    0.29    0.10
  -2  -5   0    0.23    0.17
  -2  -5   0    0.11    0.09
  -2  -5   0    0.28    0.07
   2   5   0    0.22    0.16
   2   5   0    0.25    0.09
   2   5   0    0.27    0.12
   2   5   0    0.33    0.17
   2   5   0    0.23    0.20
   2   5   0    0.20    0.16
  -3  -5   0    3.79    0.34
  -3  -5   0    3.41    0.38
  -3  -5   0    3.01    0.44
  -3  -5   0    3.42    0.27
  -3  -5   0    2.73    0.31
  -3  -5   0    2.68    0.38
   3   5   0    3.33    0.47
   3   5   0    4.11    0.38
   3   5   0    2.94    0.34
   3   5   0    2.74    0.35
   3   5   0    2.49    0.32
   3   5   0    3.24    0.42
  -4  -5   0    4.89    0.45
  -4  -5   0    4.79    0.52
  -4  -5   0    4.50    0.38
  -4  -5   0    4.43    0.43
  -4  -5   0    4.90    0.39
  -4  -5   0    5.49    0.42
  -4  -5   0    4.07    0.58
   4   5   0    4.57    0.42
   4   5   0    4.16    0.42
   4   5   0    4.85    0.51
   4   5   0    4.78    0.40
   4   5   0    5.20    0.40
   4   5   0    4.24    0.55
  -5  -5   0   -0.01    0.18
  -5  -5   0    0.23    0.22
  -5  -5   0   -0.40    0.31
  -5  -5   0    0.31    0.33
  -5  -5   0    0.06    0.15
  -5  -5   0    0.03    0.33
   5   5   0    0.18    0.17
   5   5   0    0.01    0.21
   5   5   0   -0.02    0.17
   5   5   0    0.02    0.29
   5   5   0   -0.23    0.25
  -6  -5   0    6.77    0.63
  -6  -5   0    6.39    0.43
  -6  -5   0    6.81    0.65
  -6  -5   0    8.50    0.73
  -6  -5   0    5.81    0.79
  -6  -5   0    6.46    0.47
  -6  -5   0    6.54    0.58
  -6  -5   0    7.78    0.70
   6   5   0    6.88    0.46
   6   5   0    6.88    0.81
   6   5   0    7.06    0.67
   6   5   0    6.53    0.50
   6   5   0    7.36    0.71
  -7  -5   0    3.04    0.38
  -7  -5   0    2.80    0.56
  -7  -5   0    3.05    0.34
  -7  -5   0    2.93    0.41
  -7  -5   0    2.12    0.47
  -7  -5   0    3.45    0.53
  -7  -5   0    3.33    0.49
   7   5   0    3.37    0.54
   7   5   0    2.82    0.34
   7   5   0    3.67    0.56
   7   5   0    2.62    0.29
  -8  -5   0    0.42    0.43
  -8  -5   0   -0.26    0.29
  -8  -5   0    0.05    0.19
  -8  -5   0    0.00    0.46
  -8  -5   0    0.07    0.29
  -8  -5   0    0.22    0.46
   8   5   0    0.31    0.45
   8   5   0    0.31    0.42
  -9  -5   0    1.66    0.64
  -9  -5   0    0.80    0.44
  -9  -5   0   -0.32    0.56
  -9  -5   0    0.93    0.22
  -9  -5   0    0.93    0.19
   9   5   0    1.40    0.60
 -10  -5   0    2.52    0.90
 -10  -5   0    1.34    0.88
  10   5   0    2.52    0.67
  10   5   0    3.10    0.82
   7  -6   0    0.61    0.80
   7  -6   0   -0.58    0.90
  -7   6   0    0.87    1.10
  -7   6   0    0.60    1.00
  -7   6   0    0.17    0.79
   6  -6   0   -0.70    0.61
   6  -6   0   -0.17    0.58
   6  -6   0   -1.90    0.73
  -6   6   0   -0.42    0.58
  -6   6   0    0.70    0.77
   5  -6   0   -0.12    0.44
   5  -6   0    0.06    0.54
   5  -6   0   -0.44    0.43
  -5   6   0    0.07    0.56
  -5   6   0   -0.15    0.58
  -5   6   0    0.81    0.50
   4  -6   0    0.55    0.44
   4  -6   0    0.27    0.19
   4  -6   0    0.52    0.39
  -4   6   0    0.64    0.48
  -4   6   0   -0.16    0.33
  -4   6   0    0.39    0.24
  -4   6   0    0.12    0.25
  -4   6   0    0.59    0.53
   3  -6   0    0.87    0.45
   3  -6   0    0.17    0.27
   3  -6   0    0.82    0.52
   3  -6   0    0.74    0.40
   3  -6   0    0.35    0.17
   3  -6   0    0.72    0.32
  -3   6   0    0.96    0.24
  -3   6   0    0.42    0.45
  -3   6   0    0.21    0.25
  -3   6   0    0.37    0.33
  -3   6   0    0.67    0.40
  -3   6   0    0.45    0.18
   2  -6   0    2.62    0.50
   2  -6   0    2.62    0.45
   2  -6   0    1.93    0.28
   2  -6   0    2.45    0.49
   2  -6   0    2.15    0.38
  -2   6   0    2.53    0.45
  -2   6   0    2.37    0.45
  -2   6   0    2.91    0.28
  -2   6   0    2.21    0.26
  -2   6   0    2.42    0.36
  -2   6   0    1.73    0.43
   1  -6   0    2.77    0.48
   1  -6   0    3.45    0.47
   1  -6   0    2.85    0.46
   1  -6   0    2.60    0.34
   1  -6   0    2.23    0.29
  -1   6   0    1.83    0.37
  -1   6   0    2.64    0.41
  -1   6   0    3.36    0.46
  -1   6   0    2.99    0.28
  -1   6   0    2.74    0.40
  -1   6   0    2.38    0.20
   0  -6   0    8.34    0.67
   0  -6   0    6.94    0.58
   0  -6   0    8.50    0.64
   0  -6   0    7.85    0.48
   0  -6   0    6.65    0.65
   0   6   0    7.84    0.65
   0   6   0    7.40    0.49
   0   6   0    7.57    0.64
   0   6   0    8.27    0.65
   0   6   0    7.31    0.44
   0   6   0    7.14    0.61
  -1  -6   0    1.91    0.32
  -1  -6   0    1.33    0.33
  -1  -6   0    1.98    0.29
  -1  -6   0    1.61    0.18
   1   6   0    1.91    0.34
   1   6   0    2.07    0.33
   1   6   0    1.25    0.26
   1   6   0    1.81    0.22
   1   6   0    1.87    0.28
   1   6   0    1.45    0.31
  -2  -6   0   27.11    1.35
  -2  -6   0   26.51    1.29
  -2  -6   0   25.99    1.35
  -2  -6   0   24.81    1.33
  -2  -6   0   25.48    1.38
   2   6   0   26.48    1.37
   2   6   0   24.96    1.33
   2   6   0   24.57    1.39
   2   6   0   27.44    1.34
   2   6   0   22.77    1.44
  -3  -6   0    0.88    0.14
  -3  -6   0    0.76    0.25
  -3  -6   0    0.97    0.19
  -3  -6   0    1.45    0.32
  -3  -6   0    1.14    0.16
  -3  -6   0    1.28    0.25
   3   6   0    1.05    0.36
   3   6   0    0.96    0.27
   3   6   0    1.34    0.25
   3   6   0    1.09    0.27
   3   6   0    0.74    0.25
   3   6   0    0.55    0.22
  -4  -6   0    0.60    0.15
  -4  -6   0    0.29    0.17
  -4  -6   0    0.03    0.16
  -4  -6   0    0.58    0.32
  -4  -6   0    0.35    0.18
  -4  -6   0    0.03    0.24
   4   6   0    0.01    0.22
   4   6   0   -0.24    0.29
   4   6   0    0.32    0.20
   4   6   0    0.11    0.20
   4   6   0   -0.05    0.27
  -5  -6   0    5.71    0.72
  -5  -6   0    5.16    0.46
  -5  -6   0    5.79    0.56
  -5  -6   0    5.47    0.56
  -5  -6   0    5.74    0.51
   5   6   0    5.07    0.70
   5   6   0    5.31    0.67
   5   6   0    5.59    0.48
   5   6   0    5.84    0.50
   5   6   0    6.05    0.50
  -6  -6   0   13.27    0.84
  -6  -6   0   10.56    0.81
  -6  -6   0   11.25    0.70
  -6  -6   0   11.38    0.89
  -6  -6   0   11.01    1.08
  -6  -6   0   11.89    0.84
   6   6   0   10.58    0.70
   6   6   0   10.06    1.02
   6   6   0   12.00    0.88
   6   6   0   12.01    0.75
   6   6   0   11.54    0.98
   6   6   0   11.40    0.77
  -7  -6   0    1.56    0.26
  -7  -6   0    1.04    0.43
  -7  -6   0    1.28    0.36
  -7  -6   0    1.09    0.39
  -7  -6   0    0.93    0.44
   7   6   0    1.00    0.30
   7   6   0    1.95    0.27
   7   6   0    0.87    0.45
   7   6   0    0.41    0.41
   7   6   0    2.49    0.64
  -8  -6   0    0.44    0.39
  -8  -6   0    0.25    0.23
  -8  -6   0    0.53    0.61
  -8  -6   0    1.17    0.46
  -8  -6   0    0.17    0.49
  -8  -6   0   -0.15    0.46
   8   6   0    0.43    0.43
   8   6   0    0.17    0.49
  -9  -6   0    1.01    0.27
  -9  -6   0    0.58    0.21
  -9  -6   0    2.17    0.68
  -9  -6   0    0.57    0.62
   9   6   0    2.33    0.67
   9   6   0   -0.27    0.59
 -10  -6   0   19.81    1.95
 -10  -6   0   22.39    1.86
  10   6   0   18.84    1.68
  10   6   0   20.98    1.67
   6  -7   0    2.92    0.87
   6  -7   0    0.60    1.04
   6  -7   0    1.35    0.76
  -6   7   0    1.26    0.80
  -6   7   0    2.60    1.00
   5  -7   0    0.22    0.56
   5  -7   0    2.80    0.77
   5  -7   0    0.24    0.55
  -5   7   0   -0.15    0.83
  -5   7   0   -0.60    0.76
   4  -7   0    0.22    0.40
   4  -7   0    0.86    0.58
   4  -7   0    0.18    0.22
  -4   7   0    2.16    0.66
  -4   7   0    0.60    0.27
  -4   7   0   -0.38    0.63
  -4   7   0    1.22    0.50
  -4   7   0    0.36    0.38
   3  -7   0   -0.16    0.31
   3  -7   0   -0.06    0.43
   3  -7   0    0.00    0.19
   3  -7   0    0.01    0.35
  -3   7   0   -0.49    0.49
  -3   7   0    0.05    0.24
  -3   7   0    0.96    0.50
  -3   7   0    0.93    0.48
  -3   7   0    0.02    0.27
   2  -7   0    0.83    0.39
   2  -7   0    0.59    0.23
   2  -7   0    1.13    0.52
   2  -7   0    0.48    0.52
   2  -7   0    0.98    0.31
  -2   7   0    0.48    0.31
  -2   7   0    1.15    0.43
  -2   7   0    0.25    0.36
  -2   7   0    0.43    0.42
  -2   7   0    0.24    0.20
   1  -7   0    1.58    0.40
   1  -7   0    1.25    0.28
   1  -7   0    1.64    0.45
   1  -7   0    1.47    0.28
   1  -7   0    2.12    0.49
  -1   7   0    1.15    0.18
  -1   7   0    0.85    0.36
  -1   7   0    1.31    0.38
  -1   7   0    1.51    0.33
  -1   7   0    1.31    0.15
  -1   7   0    1.39    0.39
  -1   7   0    1.48    0.24
   0  -7   0    0.26    0.32
   0  -7   0   -0.55    0.26
   0  -7   0    0.29    0.14
   0  -7   0    0.42    0.23
   0  -7   0    0.34    0.36
   0   7   0    0.17    0.12
   0   7   0   -0.04    0.26
   0   7   0    0.54    0.32
   0   7   0    0.22    0.29
   0   7   0    0.22    0.18
   0   7   0   -0.01    0.25
  -1  -7   0    0.38    0.33
  -1  -7   0    0.09    0.24
  -1  -7   0   -0.05    0.23
  -1  -7   0    0.02    0.09
  -1  -7   0    0.10    0.21
  -1  -7   0    0.24    0.22
   1   7   0    0.02    0.20
   1   7   0    0.18    0.29
   1   7   0    0.13    0.14
   1   7   0    0.47    0.28
   1   7   0    0.75    0.34
   1   7   0    0.06    0.21
  -2  -7   0    0.57    0.31
  -2  -7   0    0.63    0.15
  -2  -7   0    0.58    0.20
  -2  -7   0    0.66    0.26
  -2  -7   0    0.38    0.27
   2   7   0    0.27    0.18
   2   7   0    0.28    0.26
   2   7   0    0.64    0.34
   2   7   0    0.22    0.28
   2   7   0    0.32    0.26
  -3  -7   0    4.98    0.40
  -3  -7   0    4.18    0.50
  -3  -7   0    4.82    0.59
  -3  -7   0    5.02    0.32
   3   7   0    4.86    0.69
   3   7   0    6.23    0.59
   3   7   0    4.75    0.54
   3   7   0    4.00    0.56
   3   7   0    5.09    0.55
   3   7   0    5.00    0.56
  -4  -7   0   13.73    0.86
  -4  -7   0   12.95    0.98
  -4  -7   0   13.01    0.96
  -4  -7   0   14.50    0.75
  -4  -7   0   14.39    0.69
  -4  -7   0   13.28    0.83
   4   7   0   15.04    1.12
   4   7   0   14.23    0.91
   4   7   0   13.44    0.89
   4   7   0   11.22    0.93
   4   7   0   13.90    1.07
   4   7   0   13.59    0.93
  -5  -7   0    2.62    0.46
  -5  -7   0    2.72    0.34
  -5  -7   0    3.04    0.35
  -5  -7   0    2.78    0.38
  -5  -7   0    3.36    0.63
  -5  -7   0    3.27    0.42
   5   7   0    2.38    0.53
   5   7   0    3.19    0.51
   5   7   0    2.88    0.40
   5   7   0    3.14    0.41
   5   7   0    3.75    0.47
  -6  -7   0    0.18    0.23
  -6  -7   0    0.30    0.31
  -6  -7   0    0.14    0.23
  -6  -7   0    0.59    0.37
  -6  -7   0    0.13    0.30
   6   7   0    0.96    0.45
   6   7   0    0.21    0.32
   6   7   0   -0.17    0.27
   6   7   0    0.22    0.46
  -7  -7   0    0.54    0.42
  -7  -7   0   -0.10    0.25
  -7  -7   0   -0.66    0.42
  -7  -7   0    0.36    0.35
  -7  -7   0    0.41    0.37
   7   7   0   -0.05    0.51
   7   7   0    0.37    0.62
   7   7   0    0.07    0.34
   7   7   0    0.27    0.27
  -8  -7   0    5.82    0.78
  -8  -7   0    6.22    0.77
  -8  -7   0    6.18    0.84
  -8  -7   0    5.99    0.57
  -8  -7   0    6.99    0.84
   8   7   0    5.79    0.83
   8   7   0    5.04    0.57
  -9  -7   0    2.02    0.64
  -9  -7   0    2.31    0.32
  -9  -7   0    1.02    0.68
   9   7   0    1.50    0.69
 -10  -7   0   -0.81    0.81
 -10  -7   0    0.95    0.83
  10   7   0    0.47    0.82
   5  -8   0    5.18    1.03
   5  -8   0    5.05    0.90
   5  -8   0    4.84    0.86
  -5   8   0    5.70    1.11
   4  -8   0    1.37    0.88
   4  -8   0    1.08    0.60
   4  -8   0    1.19    0.30
  -4   8   0    0.71    0.35
  -4   8   0    1.13    0.42
  -4   8   0    1.10    0.64
   3  -8   0    8.08    0.63
   3  -8   0    9.40    1.14
   3  -8   0    6.59    0.82
   3  -8   0    6.32    0.79
  -3   8   0    7.76    0.58
  -3   8   0    7.52    0.78
  -3   8   0    8.05    1.12
  -3   8   0    7.96    1.05
   2  -8   0    1.09    0.69
   2  -8   0   -0.15    0.31
   2  -8   0   -0.39    0.46
   2  -8   0   -0.14    0.25
  -2   8   0   -0.08    0.15
  -2   8   0    0.32    0.58
  -2   8   0    0.47    0.37
  -2   8   0    0.22    0.54
  -2   8   0    0.19    0.52
   1  -8   0    6.99    0.93
   1  -8   0    3.88    0.80
   1  -8   0    4.74    0.54
   1  -8   0    4.88    0.55
   1  -8   0    5.09    0.69
  -1   8   0    4.08    0.38
  -1   8   0    4.59    0.68
  -1   8   0    4.69    0.63
  -1   8   0    3.82    0.65
  -1   8   0    5.81    0.79
   0  -8   0   -0.17    0.51
   0  -8   0    0.62    0.39
   0  -8   0    0.02    0.41
   0  -8   0    0.20    0.26
   0  -8   0    0.19    0.18
   0   8   0    0.19    0.36
   0   8   0   -0.20    0.41
   0   8   0    0.50    0.26
   0   8   0    0.49    0.17
   0   8   0    0.69    0.35
   0   8   0    0.03    0.35
  -1  -8   0   -0.13    0.13
  -1  -8   0   -0.50    0.44
  -1  -8   0    0.14    0.32
  -1  -8   0   -0.16    0.33
  -1  -8   0   -0.38    0.25
  -1  -8   0    0.12    0.28
   1   8   0   -0.04    0.33
   1   8   0    0.10    0.26
   1   8   0   -0.10    0.27
   1   8   0   -0.26    0.38
   1   8   0    0.01    0.32
   1   8   0   -0.22    0.18
  -2  -8   0    7.55    0.75
  -2  -8   0    8.25    0.73
  -2  -8   0    6.79    0.62
  -2  -8   0    6.35    0.68
  -2  -8   0    8.76    0.84
  -2  -8   0    6.91    0.48
   2   8   0    7.83    0.84
   2   8   0    7.19    0.56
   2   8   0    6.68    0.59
   2   8   0    7.58    0.74
  -3  -8   0    6.78    0.86
  -3  -8   0    7.80    0.79
  -3  -8   0    6.85    0.50
  -3  -8   0    7.65    0.69
   3   8   0    6.49    0.66
   3   8   0    6.69    0.75
   3   8   0    6.97    0.84
   3   8   0    6.81    0.72
  -4  -8   0   24.17    1.20
  -4  -8   0   24.03    1.38
  -4  -8   0   24.22    1.30
  -4  -8   0   23.66    1.48
  -4  -8   0   24.59    1.54
   4   8   0   24.20    1.46
   4   8   0   25.11    1.44
   4   8   0   22.57    1.39
   4   8   0   24.54    1.66
   4   8   0   23.60    1.39
  -5  -8   0    2.11    0.30
  -5  -8   0    1.67    0.47
  -5  -8   0    2.35    0.27
  -5  -8   0    1.93    0.40
  -5  -8   0    1.95    0.34
   5   8   0    1.56    0.47
   5   8   0    1.66    0.54
   5   8   0    2.44    0.46
   5   8   0    2.16    0.42
  -6  -8   0    0.46    0.23
  -6  -8   0    1.51    0.50
  -6  -8   0    0.41    0.30
  -6  -8   0   -0.11    0.28
  -6  -8   0    0.19    0.29
   6   8   0    0.59    0.33
   6   8   0    0.53    0.32
   6   8   0    0.33    0.47
   6   8   0    0.20    0.53
  -7  -8   0    0.56    0.32
  -7  -8   0    0.34    0.35
  -7  -8   0    0.32    0.51
  -7  -8   0    0.07    0.41
   7   8   0    0.87    0.72
   7   8   0    0.63    0.53
   7   8   0   -0.10    0.36
   7   8   0    0.39    0.37
  -8  -8   0    0.53    0.45
  -8  -8   0    0.02    0.32
  -8  -8   0    0.80    0.45
   8   8   0   -0.34    0.60
  -9  -8   0    1.43    0.36
  -9  -8   0    1.51    0.66
  -9  -8   0    1.51    0.61
   9   8   0    0.87    0.87
   4  -9   0    1.17    0.70
   4  -9   0    2.17    1.02
  -4   9   0    2.88    0.96
  -4   9   0    3.35    0.93
   3  -9   0    2.93    0.63
   3  -9   0    2.36    0.82
   3  -9   0    3.14    0.46
  -3   9   0    2.72    0.81
  -3   9   0    3.99    0.88
  -3   9   0    3.63    0.56
   2  -9   0    1.06    0.62
   2  -9   0    0.98    0.49
   2  -9   0    1.10    0.40
   2  -9   0    1.32    0.37
  -2   9   0    1.06    0.63
  -2   9   0    1.05    0.50
  -2   9   0    0.91    0.62
  -2   9   0    1.13    0.21
   1  -9   0    1.60    0.76
   1  -9   0    1.29    0.37
   1  -9   0    1.45    0.36
   1  -9   0    2.00    0.63
  -1   9   0    1.85    0.54
  -1   9   0    0.47    0.27
  -1   9   0    1.31    0.54
   0  -9   0   -0.06    0.23
   0  -9   0    0.53    0.34
   0  -9   0    0.88    0.58
   0  -9   0    0.93    0.81
   0   9   0    0.65    0.27
   0   9   0    1.13    0.51
   0   9   0    0.80    0.43
   0   9   0    0.89    0.46
  -1  -9   0    5.00    0.59
  -1  -9   0    4.69    0.81
  -1  -9   0    4.73    0.66
  -1  -9   0    5.15    0.70
   1   9   0    5.02    0.72
   1   9   0    4.34    0.53
   1   9   0    4.89    0.68
   1   9   0    4.19    0.57
  -2  -9   0    0.74    0.46
  -2  -9   0    0.35    0.40
  -2  -9   0    0.37    0.55
   2   9   0    0.55    0.27
   2   9   0    0.24    0.43
   2   9   0   -0.01    0.31
   2   9   0    0.26    0.41
  -3  -9   0    0.48    0.57
  -3  -9   0    0.52    0.43
  -3  -9   0    0.79    0.56
   3   9   0    0.99    0.44
   3   9   0    0.82    0.39
   3   9   0    0.40    0.46
   3   9   0    0.57    0.41
  -4  -9   0    3.45    0.52
  -4  -9   0    3.69    0.41
   4   9   0    3.49    0.56
   4   9   0    5.26    0.71
   4   9   0    4.37    0.59
   4   9   0    2.55    0.65
  -5  -9   0    1.28    0.28
  -5  -9   0    1.57    0.41
  -5  -9   0    1.39    0.21
  -5  -9   0    2.24    0.61
   5   9   0    1.29    0.55
   5   9   0    1.53    0.44
   5   9   0    1.14    0.57
   5   9   0    1.28    0.47
  -6  -9   0    0.34    0.20
  -6  -9   0   -0.07    0.64
  -6  -9   0   -0.20    0.26
  -6  -9   0   -0.07    0.24
  -6  -9   0    0.56    0.38
   6   9   0    0.21    0.39
   6   9   0    1.31    0.45
   6   9   0   -1.08    0.52
   6   9   0   -0.15    0.63
  -7  -9   0    2.30    0.47
  -7  -9   0    1.83    0.49
  -7  -9   0    1.88    0.37
   7   9   0    2.44    0.70
   7   9   0    2.41    0.88
   7   9   0    1.17    0.45
  -8  -9   0    0.82    0.49
  -8  -9   0   -0.50    0.40
   8   9   0   -0.18    0.70
  -9  -9   0    0.53    0.55
  -9  -9   0    1.28    0.45
  -9  -9   0   -0.22    0.65
   9   9   0   -0.03    0.92
   3 -10   0   -0.98    0.96
   3 -10   0    0.67    0.72
  -3  10   0   -0.07    0.93
  -3  10   0   -0.54    0.88
   2 -10   0    0.43    0.56
   2 -10   0    0.45    0.44
   2 -10   0   -0.61    0.80
   2 -10   0   -0.28    0.51
  -2  10   0    0.61    0.59
  -2  10   0    0.56    0.77
  -2  10   0   -0.41    0.73
   1 -10   0    3.52    0.78
   1 -10   0    3.45    0.58
   1 -10   0    5.63    0.77
  -1  10   0    2.73    0.76
  -1  10   0    4.67    0.73
  -1  10   0    6.54    0.95
   0 -10   0    5.89    0.96
   0 -10   0    6.25    0.78
   0 -10   0    6.00    0.77
   0 -10   0    5.83    0.88
   0 -10   0    6.73    0.66
   0  10   0    6.04    0.81
   0  10   0    5.55    0.88
   0  10   0    5.77    0.86
  -1 -10   0   -0.68    0.59
  -1 -10   0    0.23    0.24
  -1 -10   0    0.12    0.92
  -1 -10   0   -0.36    0.43
  -1 -10   0   -0.20    0.53
   1  10   0   -0.06    0.38
   1  10   0    0.60    0.62
   1  10   0   -0.61    0.42
  -2 -10   0    5.84    0.77
  -2 -10   0    5.63    1.02
  -2 -10   0    5.23    0.48
  -2 -10   0    4.90    0.73
   2  10   0    3.41    0.56
   2  10   0    4.02    0.78
   2  10   0    4.49    0.62
   2  10   0    5.63    0.78
  -3 -10   0    5.81    0.78
  -3 -10   0    3.56    0.90
  -3 -10   0    5.61    0.50
  -3 -10   0    5.58    0.80
   3  10   0    4.02    0.78
   3  10   0    4.66    0.76
   3  10   0    5.97    0.85
   3  10   0    6.28    0.73
  -4 -10   0    0.39    0.44
  -4 -10   0    1.27    0.27
  -4 -10   0    1.59    0.61
  -4 -10   0    0.76    0.76
   4  10   0    1.34    0.67
   4  10   0    0.97    0.58
   4  10   0    2.14    0.57
   4  10   0    1.18    0.51
  -5 -10   0    0.17    0.58
  -5 -10   0   -0.01    0.25
  -5 -10   0    0.26    0.43
   5  10   0    0.41    0.54
   5  10   0    0.08    0.48
   5  10   0    0.28    0.61
   5  10   0    0.37    0.67
  -6 -10   0   -0.28    0.19
  -6 -10   0    0.32    0.45
  -6 -10   0   -0.28    0.31
   6  10   0    0.35    0.47
   6  10   0   -0.05    0.70
  -7 -10   0    1.15    0.30
  -7 -10   0    1.57    0.44
  -7 -10   0    1.17    0.50
   7  10   0    0.33    0.75
   7  10   0    1.40    0.55
  -8 -10   0    1.23    0.40
  -8 -10   0    0.37    0.55
  -8 -10   0    0.53    0.46
   8  10   0   -0.14    0.82
   2 -11   0    3.06    1.24
   2 -11   0    1.61    0.77
   2 -11   0    2.43    0.78
  -2  11   0    2.73    1.03
  -2  11   0    4.00    1.14
   1 -11   0    0.83    0.59
   1 -11   0    0.37    0.55
   1 -11   0   -0.58    0.86
  -1  11   0   -0.02    0.95
  -1  11   0    0.76    0.80
  -1  11   0   -0.34    0.70
   0 -11   0    0.51    0.78
   0 -11   0   -0.65    0.51
   0 -11   0   -0.10    0.44
   0  11   0   -0.91    0.82
   0  11   0   -1.33    0.70
  -1 -11   0    1.62    0.71
  -1 -11   0    0.89    0.54
   1  11   0    1.22    0.79
   1  11   0    1.17    0.73
   1  11   0    1.67    0.58
  -2 -11   0    2.48    0.79
  -2 -11   0    3.27    0.47
  -2 -11   0    2.91    0.66
   2  11   0    2.20    0.47
   2  11   0    2.12    0.76
   2  11   0    2.14    0.83
  -3 -11   0    0.35    0.28
  -3 -11   0   -0.21    0.59
  -3 -11   0   -0.04    0.66
   3  11   0   -0.12    0.64
   3  11   0    2.67    0.73
   3  11   0    0.08    0.71
  -4 -11   0   -0.22    0.24
  -4 -11   0    0.25    0.59
  -4 -11   0   -0.91    0.57
   4  11   0    0.63    0.73
   4  11   0   -0.42    0.75
  -5 -11   0   -0.10    0.28
  -5 -11   0    0.16    0.68
  -5 -11   0    0.22    0.57
   5  11   0   -0.16    0.62
   5  11   0   -0.67    0.73
  -6 -11   0    0.91    0.37
  -6 -11   0    0.96    0.62
  -6 -11   0    1.70    0.84
   6  11   0    1.73    0.69
   6  11   0    2.12    0.86
  -7 -11   0   -0.27    0.84
  -7 -11   0   -0.95    0.61
  -7 -11   0   -0.10    0.42
   7  11   0   -0.42    0.98
   0 -12   0    3.11    0.78
   0 -12   0   -0.02    1.06
   0 -12   0    2.75    0.71
   0  12   0    2.81    0.94
   0  12   0    2.83    1.16
   0  12   0    2.88    0.93
  -1 -12   0    0.64    0.68
  -1 -12   0    0.10    0.50
  -1 -12   0    0.43    0.91
   1  12   0    0.38    0.84
   1  12   0    2.81    1.11
  -2 -12   0    0.14    0.83
  -2 -12   0   -1.09    0.68
  -2 -12   0   -0.48    0.40
   2  12   0   -1.36    0.97
   2  12   0    1.19    0.90
  -3 -12   0    1.41    0.73
  -3 -12   0    1.11    0.81
  -3 -12   0    0.37    0.37
   3  12   0   -0.51    0.82
   3  12   0    1.97    0.95
  -4 -12   0   -0.04    0.34
  -4 -12   0    0.04    0.80
  -4 -12   0   -0.25    0.79
   4  12   0   -0.14    0.81
   4  12   0   -0.05    0.84
  -5 -12   0   -0.59    0.86
  -5 -12   0    0.08    0.37
  -5 -12   0   -1.56    0.74
   5  12   0    1.24    0.83
   5  12   0   -1.16    0.85
   5  12  -1   -1.40    0.91
  -5 -12   1   -0.22    0.39
   4  12  -1   -1.30    0.92
   4  12  -1   -0.31    0.93
  -4 -12   1    0.10    0.35
  -4 -12   1    0.30    0.78
  -4 -12   1   -0.89    0.82
   3  12  -1   -0.30    0.88
   3  12  -1    0.36    1.03
  -3 -12   1   -1.51    0.70
  -3 -12   1    0.13    0.38
  -3 -12   1   -0.58    0.82
   2  12  -1   -0.41    1.02
   2  12  -1   -0.90    0.87
   2  12  -1    1.19    1.10
  -2 -12   1    0.17    0.88
  -2 -12   1    1.22    0.72
  -2 -12   1   -0.52    0.47
   1  12  -1   -0.08    1.08
   1  12  -1    0.05    0.91
   1  12  -1   -2.12    1.07
  -1 -12   1    0.60    0.58
  -1 -12   1   -0.56    0.96
  -1 -12   1   -0.48    0.69
   7  11  -1   -0.43    0.97
  -7 -11   1    0.74    0.46
   6  11  -1    2.20    0.79
   6  11  -1    2.47    0.88
  -6 -11   1    3.08    0.91
  -6 -11   1    2.47    0.69
  -6 -11   1    3.19    0.46
   5  11  -1    0.81    0.75
   5  11  -1    0.79    0.79
  -5 -11   1    0.47    0.64
  -5 -11   1    1.53    0.77
  -5 -11   1    1.14    0.34
   4  11  -1    0.75    0.74
   4  11  -1    1.02    0.75
   4  11  -1    0.27    0.74
  -4 -11   1    0.58    0.31
  -4 -11   1   -0.42    0.59
  -4 -11   1    0.37    0.62
   3  11  -1    0.54    0.71
   3  11  -1    0.60    0.79
   3  11  -1    0.65    0.74
  -3 -11   1    0.48    0.59
  -3 -11   1    0.42    0.64
  -3 -11   1    0.38    0.30
   2  11  -1    0.32    0.66
   2  11  -1    0.23    0.41
   2  11  -1    1.92    0.81
   2  11  -1    0.50    0.78
  -2 -11   1    1.26    0.71
  -2 -11   1   -0.02    0.33
  -2 -11   1    0.46    0.59
   1  11  -1    2.34    0.76
   1  11  -1    4.16    0.69
   1  11  -1    2.38    0.89
  -1 -11   1    2.84    0.84
  -1 -11   1    3.09    0.69
  -1 -11   1    3.58    0.57
   0  11  -1    2.23    0.95
   0  11  -1   -0.19    0.68
   0 -11   1   -0.25    0.84
   0 -11   1   -0.06    0.55
   0 -11   1   -0.71    0.44
  -1  11  -1   12.99    1.68
  -1  11  -1   10.27    1.48
  -1  11  -1    8.58    1.03
   1 -11   1    7.86    1.09
   1 -11   1    9.65    1.38
   1 -11   1    9.30    1.22
  -2  11  -1    0.16    0.99
   2 -11   1    0.42    1.15
   2 -11   1    1.69    0.77
   2 -11   1    1.09    0.63
   2 -11   1    2.13    0.86
   8  10  -1   -0.77    0.96
  -8 -10   1   -0.30    0.47
  -8 -10   1   -1.11    0.53
  -8 -10   1   -0.73    0.84
   7  10  -1    0.91    0.76
   7  10  -1    0.46    0.62
  -7 -10   1   -0.03    0.51
  -7 -10   1    0.83    0.74
  -7 -10   1    0.02    0.25
  -7 -10   1    0.75    0.41
   6  10  -1    2.39    0.62
   6  10  -1    1.15    0.70
  -6 -10   1    2.12    0.57
  -6 -10   1    1.08    0.61
  -6 -10   1    2.30    0.43
   5  10  -1    0.93    0.62
   5  10  -1    0.27    0.65
   5  10  -1    1.28    0.62
  -5 -10   1    0.92    0.26
  -5 -10   1    1.14    0.49
  -5 -10   1   -0.13    0.53
   4  10  -1    1.20    0.64
   4  10  -1   -0.08    0.53
   4  10  -1    0.63    0.57
   4  10  -1    0.27    0.56
  -4 -10   1    0.00    0.76
  -4 -10   1   -0.56    0.50
  -4 -10   1    0.24    0.22
  -4 -10   1    0.07    0.46
   3  10  -1    9.04    1.00
   3  10  -1    7.97    0.91
   3  10  -1    9.15    1.09
  -3 -10   1    8.13    0.97
  -3 -10   1    8.82    1.02
  -3 -10   1    7.46    1.02
  -3 -10   1    7.07    0.61
   2  10  -1    0.00    0.59
   2  10  -1    0.50    0.33
   2  10  -1    1.01    0.41
   2  10  -1    0.57    0.62
   2  10  -1   -0.15    0.55
  -2 -10   1    0.75    0.55
  -2 -10   1   -1.15    0.83
  -2 -10   1    0.07    0.44
  -2 -10   1    0.25    0.25
  -2 -10   1    0.55    0.50
   1  10  -1    0.20    0.43
   1  10  -1    0.62    0.53
   1  10  -1    0.55    0.41
   1  10  -1   -0.67    0.59
  -1 -10   1   -0.07    0.65
  -1 -10   1    1.49    0.59
  -1 -10   1   -1.38    0.96
  -1 -10   1    0.58    0.32
  -1 -10   1    0.78    0.45
   0  10  -1   -0.28    0.52
   0  10  -1    0.07    0.35
   0  10  -1    0.33    0.56
   0 -10   1    0.18    0.42
   0 -10   1   -0.49    0.80
   0 -10   1    0.34    0.34
   0 -10   1    0.57    0.59
  -1  10  -1    2.68    0.70
  -1  10  -1    2.32    0.64
  -1  10  -1    2.59    0.83
   1 -10   1    2.60    0.81
   1 -10   1    2.72    0.60
  -2  10  -1    0.44    0.80
  -2  10  -1    1.15    0.80
  -2  10  -1    1.23    0.57
   2 -10   1    0.87    0.89
   2 -10   1    0.93    0.50
   2 -10   1    1.83    0.61
   2 -10   1    1.62    0.57
  -3  10  -1    8.38    1.37
  -3  10  -1    8.48    1.36
   3 -10   1    9.93    1.27
   3 -10   1   12.56    1.53
   8   9  -1    3.90    0.89
  -8  -9   1    3.59    0.52
  -8  -9   1    2.31    0.58
  -8  -9   1    2.59    0.48
  -8  -9   1    3.27    0.92
   7   9  -1    1.51    0.55
   7   9  -1    1.96    0.75
  -7  -9   1    1.82    0.40
  -7  -9   1    1.88    0.33
  -7  -9   1    1.20    0.63
  -7  -9   1    2.37    0.47
   6   9  -1   -0.83    0.45
   6   9  -1   -0.08    0.60
   6   9  -1    0.32    0.43
   6   9  -1   -0.31    0.55
  -6  -9   1   -0.08    0.36
  -6  -9   1    0.10    0.26
  -6  -9   1   -0.24    0.60
  -6  -9   1    0.97    0.55
  -6  -9   1    0.04    0.16
  -6  -9   1   -0.11    0.17
   5   9  -1   -0.42    0.52
   5   9  -1    0.03    0.47
   5   9  -1   -0.49    0.41
   5   9  -1   -0.22    0.49
  -5  -9   1    0.07    0.19
  -5  -9   1   -0.18    0.47
  -5  -9   1    0.42    0.58
  -5  -9   1   -0.43    0.35
  -5  -9   1   -0.04    0.13
   4   9  -1   -0.32    0.39
   4   9  -1    0.38    0.44
   4   9  -1    0.11    0.50
   4   9  -1   -0.09    0.43
  -4  -9   1    0.11    0.42
  -4  -9   1    0.13    0.37
  -4  -9   1    0.36    0.21
  -4  -9   1    0.59    0.57
   3   9  -1    3.65    0.49
   3   9  -1    3.76    0.68
   3   9  -1    3.52    0.59
  -3  -9   1    3.68    0.56
  -3  -9   1    3.01    0.70
  -3  -9   1    2.72    0.58
  -3  -9   1    3.43    0.36
   2   9  -1    1.61    0.58
   2   9  -1    2.13    0.56
   2   9  -1    2.15    0.36
   2   9  -1    2.54    0.37
   2   9  -1    1.40    0.50
  -2  -9   1    0.61    0.60
  -2  -9   1    2.25    0.51
  -2  -9   1    2.01    0.49
  -2  -9   1    1.77    0.28
   1   9  -1    0.64    0.35
   1   9  -1    1.27    0.29
   1   9  -1   -0.21    0.48
   1   9  -1    1.53    0.50
  -1  -9   1    0.89    0.47
  -1  -9   1    1.04    0.42
  -1  -9   1    0.76    0.65
  -1  -9   1    0.84    0.48
  -1  -9   1    0.71    0.45
  -1  -9   1    1.16    0.27
   0   9  -1    0.72    0.44
   0   9  -1    0.52    0.54
   0   9  -1    1.56    0.27
   0   9  -1    0.97    0.44
   0  -9   1    0.14    0.76
   0  -9   1    1.18    0.52
   0  -9   1    0.67    0.59
   0  -9   1    1.04    0.42
   0  -9   1    1.02    0.29
  -1   9  -1    1.25    0.45
  -1   9  -1    1.24    0.28
  -1   9  -1    0.27    0.52
   1  -9   1    1.38    0.40
   1  -9   1    2.03    0.64
   1  -9   1    1.55    0.43
   1  -9   1    1.55    0.82
  -2   9  -1   11.17    1.26
  -2   9  -1   13.13    1.06
  -2   9  -1   12.45    1.29
   2  -9   1   12.90    0.99
   2  -9   1   13.24    1.16
   2  -9   1   13.93    1.01
   2  -9   1   11.95    1.35
  -3   9  -1    0.30    0.70
  -3   9  -1    0.58    0.42
  -3   9  -1    0.92    0.71
   3  -9   1   -0.10    0.38
   3  -9   1   -0.81    0.77
   3  -9   1    0.26    0.50
  -4   9  -1   -1.86    0.86
   4  -9   1    0.15    0.71
   4  -9   1    0.13    1.00
   9   8  -1    0.83    0.80
  -9  -8   1    0.02    0.56
  -9  -8   1    0.12    0.59
  -9  -8   1   -0.60    0.79
   8   8  -1   -0.08    0.66
  -8  -8   1    0.28    0.45
  -8  -8   1    0.16    0.66
  -8  -8   1    0.54    0.41
   7   8  -1    3.18    0.70
   7   8  -1    2.49    0.52
  -7  -8   1    2.41    0.43
  -7  -8   1    2.81    0.59
  -7  -8   1    1.70    0.43
  -7  -8   1    2.60    0.40
  -7  -8   1    2.34    0.41
   6   8  -1    0.50    0.52
   6   8  -1    1.18    0.40
   6   8  -1    0.89    0.50
  -6  -8   1    1.51    0.49
  -6  -8   1    0.53    0.22
  -6  -8   1    0.89    0.30
  -6  -8   1    1.17    0.33
   5   8  -1    3.74    0.54
   5   8  -1    4.98    0.83
   5   8  -1    2.93    0.51
   5   8  -1    3.55    0.49
  -5  -8   1    3.68    0.29
  -5  -8   1    3.37    0.45
  -5  -8   1    3.92    0.58
  -5  -8   1    4.51    0.34
  -5  -8   1    4.07    0.50
   4   8  -1   10.40    1.01
   4   8  -1    9.69    0.84
   4   8  -1    8.89    0.81
   4   8  -1   10.92    0.93
  -4  -8   1   10.30    0.97
  -4  -8   1   10.76    0.95
  -4  -8   1   10.00    0.55
  -4  -8   1    9.74    0.67
  -4  -8   1   10.16    0.80
   3   8  -1    7.86    0.82
   3   8  -1    6.33    0.79
   3   8  -1    7.46    0.71
   3   8  -1    6.60    0.74
  -3  -8   1    6.69    0.51
  -3  -8   1    6.61    0.78
  -3  -8   1    6.77    0.49
  -3  -8   1    7.14    0.80
  -3  -8   1    6.52    0.67
  -3  -8   1    6.93    0.79
   2   8  -1    5.49    0.74
   2   8  -1    5.18    0.50
   2   8  -1    6.47    0.81
   2   8  -1    6.38    0.52
   2   8  -1    6.36    0.71
  -2  -8   1    6.49    0.45
  -2  -8   1    5.15    0.68
  -2  -8   1    5.35    0.71
  -2  -8   1    5.78    0.67
  -2  -8   1    5.59    0.76
  -2  -8   1    5.19    0.59
   1   8  -1    0.34    0.26
   1   8  -1    0.45    0.42
   1   8  -1    0.67    0.21
   1   8  -1    0.96    0.39
   1   8  -1    0.19    0.36
  -1  -8   1    0.76    0.37
  -1  -8   1   -0.18    0.51
  -1  -8   1    0.50    0.29
  -1  -8   1    0.25    0.34
  -1  -8   1    0.53    0.17
   0   8  -1    0.31    0.41
   0   8  -1   -0.03    0.34
   0   8  -1   -0.36    0.40
   0   8  -1   -0.32    0.34
   0   8  -1    0.29    0.16
   0  -8   1    0.05    0.42
   0  -8   1    0.65    0.23
   0  -8   1   -0.02    0.28
   0  -8   1    0.40    0.50
   0  -8   1    0.45    0.37
  -1   8  -1    0.15    0.07
  -1   8  -1    0.04    0.39
  -1   8  -1    0.09    0.16
  -1   8  -1    0.23    0.49
  -1   8  -1   -0.19    0.39
  -1   8  -1   -0.39    0.35
   1  -8   1    0.09    0.27
   1  -8   1   -0.44    0.58
   1  -8   1   -0.59    0.42
   1  -8   1    0.01    0.27
  -2   8  -1    1.72    0.39
  -2   8  -1    1.78    0.56
  -2   8  -1    2.23    0.23
  -2   8  -1    0.68    0.49
   2  -8   1    2.23    0.45
   2  -8   1    1.99    0.79
   2  -8   1    1.37    0.35
   2  -8   1    2.07    0.62
  -3   8  -1    1.05    0.36
  -3   8  -1    1.61    0.33
  -3   8  -1    0.66    0.53
  -3   8  -1    1.95    0.62
   3  -8   1    1.60    0.48
   3  -8   1    1.16    0.34
  -4   8  -1    0.69    0.68
   4  -8   1    0.20    0.77
   4  -8   1    0.41    0.36
   4  -8   1    0.56    0.59
  -5   8  -1   -0.72    0.88
  -5   8  -1   -0.14    0.81
   5  -8   1   -0.85    0.93
   5  -8   1    0.10    0.71
   9   7  -1    2.42    0.78
  -9  -7   1    2.64    0.69
  -9  -7   1    1.93    0.75
  -9  -7   1    3.02    0.74
   8   7  -1    0.80    0.59
  -8  -7   1    0.82    0.23
  -8  -7   1    0.00    0.46
  -8  -7   1    0.63    0.31
  -8  -7   1    1.46    0.62
  -8  -7   1    1.35    0.47
   7   7  -1    0.57    0.49
   7   7  -1    0.35    0.25
   7   7  -1    0.00    0.25
  -7  -7   1    0.35    0.34
  -7  -7   1    0.45    0.38
  -7  -7   1    0.15    0.23
  -7  -7   1    0.09    0.39
  -7  -7   1    0.05    0.34
   6   7  -1    1.85    0.51
   6   7  -1    2.31    0.33
   6   7  -1    1.91    0.40
   6   7  -1    1.98    0.38
  -6  -7   1    1.78    0.33
  -6  -7   1    1.87    0.34
  -6  -7   1    2.06    0.31
  -6  -7   1    1.23    0.34
  -6  -7   1    2.26    0.44
   5   7  -1    1.59    0.30
   5   7  -1    0.92    0.32
   5   7  -1    0.96    0.40
   5   7  -1    0.82    0.37
   5   7  -1    0.43    0.31
  -5  -7   1    0.93    0.25
  -5  -7   1    0.97    0.21
  -5  -7   1    1.16    0.27
  -5  -7   1    1.13    0.34
  -5  -7   1    1.06    0.60
  -5  -7   1    0.96    0.20
   4   7  -1    5.36    0.56
   4   7  -1    6.32    0.58
   4   7  -1    5.49    0.63
   4   7  -1    6.04    0.59
   4   7  -1    6.16    0.75
   4   7  -1    5.76    0.75
  -4  -7   1    5.63    0.45
  -4  -7   1    5.90    0.64
  -4  -7   1    5.79    0.72
  -4  -7   1    5.29    0.31
  -4  -7   1    6.03    0.37
  -4  -7   1    5.00    0.52
   3   7  -1    5.73    0.66
   3   7  -1    5.16    0.61
   3   7  -1    5.16    0.56
   3   7  -1    4.79    0.55
   3   7  -1    5.44    0.49
   3   7  -1    5.73    0.70
  -3  -7   1    5.11    0.60
  -3  -7   1    4.66    0.60
  -3  -7   1    5.55    0.67
  -3  -7   1    4.56    0.38
  -3  -7   1    5.84    0.52
  -3  -7   1    5.14    0.40
   2   7  -1    0.07    0.16
   2   7  -1    0.03    0.16
   2   7  -1    0.26    0.28
   2   7  -1    0.10    0.31
   2   7  -1   -0.08    0.30
   2   7  -1    0.09    0.24
   2   7  -1    0.19    0.26
  -2  -7   1    0.08    0.25
  -2  -7   1    0.02    0.10
  -2  -7   1    0.16    0.27
  -2  -7   1    0.13    0.25
  -2  -7   1    0.10    0.32
   1   7  -1    7.14    0.61
   1   7  -1    7.10    0.65
   1   7  -1    6.91    0.67
   1   7  -1    8.12    0.77
   1   7  -1    6.71    0.48
   1   7  -1    7.95    0.59
  -1  -7   1    8.54    0.69
  -1  -7   1    8.09    0.77
  -1  -7   1    7.11    0.68
  -1  -7   1    7.55    0.69
  -1  -7   1    8.42    0.51
   0   7  -1    5.68    0.60
   0   7  -1    5.31    0.65
   0   7  -1    6.69    0.65
   0   7  -1    5.91    0.49
   0   7  -1    5.54    0.38
   0   7  -1    5.62    0.65
   0  -7   1    5.78    0.72
   0  -7   1    5.41    0.44
   0  -7   1    4.86    0.55
   0  -7   1    5.69    0.73
   0  -7   1    6.00    0.63
  -1   7  -1    1.27    0.38
  -1   7  -1    0.86    0.39
  -1   7  -1    1.12    0.35
  -1   7  -1    0.82    0.20
  -1   7  -1    1.68    0.44
  -1   7  -1    0.95    0.12
   1  -7   1    1.09    0.39
   1  -7   1    1.02    0.26
   1  -7   1    0.18    0.47
   1  -7   1    0.70    0.43
   1  -7   1    1.21    0.27
  -2   7  -1    2.72    0.59
  -2   7  -1    3.07    0.33
  -2   7  -1    3.20    0.37
  -2   7  -1    2.93    0.53
  -2   7  -1    3.07    0.44
  -2   7  -1    2.85    0.54
   2  -7   1    3.20    0.66
   2  -7   1    3.40    0.60
   2  -7   1    2.41    0.43
   2  -7   1    3.32    0.44
   2  -7   1    4.76    0.73
  -3   7  -1   -0.04    0.52
  -3   7  -1    0.57    0.48
  -3   7  -1    0.19    0.26
  -3   7  -1    0.47    0.26
   3  -7   1    0.18    0.22
   3  -7   1    0.28    0.38
  -4   7  -1    2.23    0.58
  -4   7  -1    2.72    0.76
  -4   7  -1    2.29    0.47
  -4   7  -1    1.90    0.65
   4  -7   1    2.07    0.52
   4  -7   1    3.46    0.75
   4  -7   1    2.07    0.35
  -5   7  -1   -0.41    0.74
  -5   7  -1    1.24    0.69
   5  -7   1   -1.09    0.77
   5  -7   1    0.45    0.60
   5  -7   1   -0.15    0.32
  -6   7  -1   14.37    1.70
  -6   7  -1    9.44    1.34
  -6   7  -1   10.41    1.32
   6  -7   1    9.54    1.34
   6  -7   1   13.01    1.27
  10   6  -1   -0.76    0.76
 -10  -6   1    0.46    0.78
 -10  -6   1   -0.13    0.89
 -10  -6   1    0.47    0.81
   9   6  -1    0.71    0.60
  -9  -6   1   -0.22    0.60
  -9  -6   1   -0.15    0.57
  -9  -6   1   -0.15    0.61
   8   6  -1    0.43    0.52
  -8  -6   1   -0.50    0.42
  -8  -6   1    0.19    0.47
  -8  -6   1    0.28    0.63
  -8  -6   1   -0.42    0.21
  -8  -6   1    0.97    0.63
   7   6  -1    0.58    0.45
  -7  -6   1    0.43    0.36
  -7  -6   1    0.30    0.18
  -7  -6   1    0.49    0.30
  -7  -6   1    0.30    0.35
  -7  -6   1   -0.23    0.38
  -7  -6   1    0.83    0.50
   6   6  -1   10.75    0.65
   6   6  -1   12.01    0.98
   6   6  -1   10.45    0.80
   6   6  -1   11.38    0.96
   6   6  -1   11.21    0.64
  -6  -6   1   10.79    0.84
  -6  -6   1    8.61    1.17
  -6  -6   1   10.74    0.74
  -6  -6   1    7.98    1.09
  -6  -6   1   11.05    0.65
  -6  -6   1   10.96    0.79
  -6  -6   1   10.66    0.77
   5   6  -1   15.25    0.86
   5   6  -1   14.13    0.97
   5   6  -1   14.92    0.85
   5   6  -1   14.80    1.12
   5   6  -1   14.84    1.02
  -5  -6   1   15.57    0.83
  -5  -6   1   14.66    0.94
  -5  -6   1   18.08    0.93
  -5  -6   1   14.85    0.93
  -5  -6   1   15.19    0.85
  -5  -6   1   13.75    1.28
   4   6  -1    0.56    0.24
   4   6  -1    0.60    0.23
   4   6  -1    1.22    0.37
   4   6  -1    0.18    0.24
   4   6  -1    0.52    0.34
   4   6  -1    0.56    0.19
  -4  -6   1    0.43    0.18
  -4  -6   1    1.16    0.48
  -4  -6   1    0.67    0.20
  -4  -6   1    1.04    0.26
  -4  -6   1    0.28    0.32
  -4  -6   1    0.57    0.15
   3   6  -1    3.87    0.48
   3   6  -1    3.57    0.52
   3   6  -1    4.10    0.41
   3   6  -1    3.94    0.43
   3   6  -1    5.46    0.54
  -3  -6   1    4.27    0.20
  -3  -6   1    4.34    0.49
  -3  -6   1    3.47    0.46
  -3  -6   1    3.37    0.32
  -3  -6   1    3.98    0.41
  -3  -6   1    4.79    0.61
  -3  -6   1    4.16    0.29
  -3  -6   1    4.04    0.26
   2   6  -1    2.98    0.30
   2   6  -1    3.31    0.50
   2   6  -1    2.60    0.29
   2   6  -1    2.80    0.39
   2   6  -1    2.11    0.34
   2   6  -1    2.90    0.37
   2   6  -1    2.78    0.43
  -2  -6   1    3.00    0.26
  -2  -6   1    3.13    0.50
  -2  -6   1    2.72    0.42
  -2  -6   1    2.51    0.35
  -2  -6   1    2.77    0.41
  -2  -6   1    2.79    0.34
  -2  -6   1    3.10    0.38
   1   6  -1   23.85    1.34
   1   6  -1   25.52    1.37
   1   6  -1   24.79    1.23
   1   6  -1   25.20    1.32
   1   6  -1   26.00    1.32
   1   6  -1   24.22    1.43
  -1  -6   1   24.11    1.41
  -1  -6   1   24.77    1.35
  -1  -6   1   26.45    1.25
  -1  -6   1   25.11    1.37
  -1  -6   1   22.83    1.41
   0   6  -1   -0.27    0.23
   0   6  -1    0.11    0.13
   0   6  -1   -0.09    0.24
   0   6  -1   -0.07    0.21
   0   6  -1    0.28    0.08
   0   6  -1    0.40    0.26
   0  -6   1    0.03    0.23
   0  -6   1   -0.18    0.27
   0  -6   1    0.28    0.12
   0  -6   1    0.11    0.17
  -1   6  -1    0.34    0.14
  -1   6  -1    0.54    0.27
  -1   6  -1    0.20    0.27
  -1   6  -1    0.92    0.33
  -1   6  -1    0.61    0.30
  -1   6  -1    0.50    0.11
   1  -6   1    0.85    0.36
   1  -6   1    0.73    0.34
   1  -6   1    0.39    0.17
   1  -6   1    0.65    0.32
   1  -6   1    0.56    0.19
  -2   6  -1    0.33    0.17
  -2   6  -1   -0.55    0.31
  -2   6  -1    0.16    0.21
  -2   6  -1   -0.23    0.29
  -2   6  -1    0.07    0.15
  -2   6  -1    0.24    0.34
   2  -6   1    0.03    0.16
   2  -6   1   -0.04    0.20
   2  -6   1   -0.88    0.37
   2  -6   1    0.84    0.46
   2  -6   1   -0.05    0.30
  -3   6  -1   -0.69    0.39
  -3   6  -1   -0.21    0.15
  -3   6  -1    0.07    0.19
  -3   6  -1   -0.26    0.40
  -3   6  -1    0.01    0.33
  -3   6  -1   -0.01    0.25
   3  -6   1   -0.15    0.18
   3  -6   1   -0.10    0.47
   3  -6   1    0.37    0.55
   3  -6   1    0.00    0.27
   3  -6   1   -0.07    0.35
  -4   6  -1    0.21    0.37
  -4   6  -1   -0.64    0.51
   4  -6   1    0.12    0.39
   4  -6   1    0.50    0.49
   4  -6   1    0.15    0.21
  -5   6  -1    2.85    0.69
  -5   6  -1    4.59    0.87
  -5   6  -1    2.73    0.70
   5  -6   1    2.57    0.37
   5  -6   1    2.34    0.68
   5  -6   1    2.31    0.55
  -6   6  -1    0.78    0.84
  -6   6  -1   -0.28    0.66
  -6   6  -1    0.09    0.83
   6  -6   1    0.92    0.80
   6  -6   1   -0.95    0.62
  -7   6  -1    2.24    0.87
  -7   6  -1    2.76    1.18
  -7   6  -1    0.85    0.95
   7  -6   1    1.87    0.97
   7  -6   1    2.69    0.90
  10   5  -1   -0.73    0.66
 -10  -5   1    0.30    0.80
 -10  -5   1    0.13    0.81
 -10  -5   1    0.51    0.72
   9   5  -1   -0.53    0.49
   9   5  -1    1.59    0.61
  -9  -5   1    0.32    0.62
  -9  -5   1    0.27    0.48
  -9  -5   1   -0.24    0.61
   8   5  -1    0.52    0.45
   8   5  -1    0.68    0.46
  -8  -5   1   -0.07    0.33
  -8  -5   1    0.46    0.49
  -8  -5   1    0.21    0.47
  -8  -5   1    0.01    0.53
   7   5  -1    6.68    0.77
  -7  -5   1    5.92    0.74
  -7  -5   1    6.55    0.60
  -7  -5   1    5.96    0.93
  -7  -5   1    6.43    0.42
  -7  -5   1    5.80    0.64
  -7  -5   1    6.27    0.82
  -7  -5   1    6.79    0.80
  -7  -5   1    6.36    0.37
   6   5  -1    3.37    0.52
   6   5  -1    4.12    0.53
   6   5  -1    3.14    0.27
   6   5  -1    3.37    0.26
  -6  -5   1    3.42    0.30
  -6  -5   1    4.17    0.53
  -6  -5   1    3.39    0.44
  -6  -5   1    3.77    0.68
  -6  -5   1    2.80    0.45
  -6  -5   1    3.13    0.42
  -6  -5   1    3.54    0.50
  -6  -5   1    3.19    0.57
  -6  -5   1    3.33    0.64
   5   5  -1    2.49    0.43
   5   5  -1    3.07    0.30
   5   5  -1    2.90    0.46
   5   5  -1    3.38    0.32
   5   5  -1    3.27    0.42
  -5  -5   1    2.38    0.37
  -5  -5   1    2.92    0.58
  -5  -5   1    3.17    0.30
  -5  -5   1    2.81    0.38
  -5  -5   1    3.26    0.38
  -5  -5   1    3.64    0.55
  -5  -5   1    3.85    0.51
  -5  -5   1    4.34    0.61
   4   5  -1    0.98    0.27
   4   5  -1    0.63    0.27
   4   5  -1    0.79    0.25
   4   5  -1    0.72    0.19
   4   5  -1    0.70    0.27
  -4  -5   1    0.53    0.20
  -4  -5   1    1.43    0.35
  -4  -5   1    0.78    0.18
  -4  -5   1    0.91    0.22
  -4  -5   1    0.76    0.18
  -4  -5   1    0.86    0.19
  -4  -5   1    1.06    0.36
   3   5  -1    0.41    0.21
   3   5  -1    0.45    0.17
   3   5  -1    0.39    0.16
   3   5  -1    0.77    0.24
   3   5  -1    0.93    0.28
   3   5  -1    0.21    0.16
  -3  -5   1    0.63    0.23
  -3  -5   1    0.43    0.30
  -3  -5   1    0.61    0.15
  -3  -5   1    0.78    0.21
  -3  -5   1    0.40    0.10
  -3  -5   1    0.26    0.14
  -3  -5   1    0.60    0.11
  -3  -5   1    0.64    0.11
   2   5  -1    2.55    0.37
   2   5  -1    2.18    0.25
   2   5  -1    2.72    0.30
   2   5  -1    2.35    0.41
   2   5  -1    2.27    0.31
  -2  -5   1    3.51    0.36
  -2  -5   1    2.46    0.23
  -2  -5   1    2.36    0.33
  -2  -5   1    2.06    0.17
  -2  -5   1    2.99    0.31
  -2  -5   1    2.80    0.44
  -2  -5   1    3.01    0.27
   1   5  -1    1.43    0.24
   1   5  -1    1.40    0.31
   1   5  -1    1.83    0.30
   1   5  -1    1.76    0.17
   1   5  -1    1.99    0.24
   1   5  -1    1.96    0.27
  -1  -5   1    1.63    0.16
  -1  -5   1    1.86    0.27
  -1  -5   1    1.54    0.25
  -1  -5   1    1.61    0.28
  -1  -5   1    1.43    0.26
   0   5  -1    1.78    0.10
   0   5  -1    1.57    0.27
   0   5  -1    2.00    0.33
   0   5  -1    1.59    0.29
   0   5  -1    1.51    0.28
   0   5  -1    1.98    0.22
   0   5  -1    2.09    0.15
   0  -5   1    1.32    0.29
   0  -5   1    1.45    0.19
   0  -5   1    1.34    0.28
   0  -5   1    2.03    0.32
   0  -5   1    1.18    0.23
  -1   5  -1   16.93    0.85
  -1   5  -1   17.50    1.09
  -1   5  -1   16.86    0.77
  -1   5  -1   16.42    0.95
  -1   5  -1   14.99    0.96
  -1   5  -1   16.04    0.96
   1  -5   1   15.53    0.93
   1  -5   1   15.41    0.90
   1  -5   1   15.95    0.99
   1  -5   1   16.72    1.11
   1  -5   1   16.42    1.00
  -2   5  -1    0.30    0.24
  -2   5  -1    0.07    0.28
  -2   5  -1    0.27    0.15
  -2   5  -1    0.25    0.28
  -2   5  -1    0.23    0.10
  -2   5  -1    0.26    0.17
   2  -5   1    0.38    0.33
   2  -5   1    0.21    0.24
   2  -5   1    0.04    0.15
   2  -5   1    0.46    0.19
   2  -5   1    0.27    0.29
   2  -5   1    0.15    0.13
  -3   5  -1   21.57    1.13
  -3   5  -1   21.98    1.28
  -3   5  -1   22.70    1.13
  -3   5  -1   20.15    1.08
  -3   5  -1   22.28    1.26
  -3   5  -1   21.04    1.44
   3  -5   1   23.85    1.51
   3  -5   1   20.80    1.21
   3  -5   1   21.68    1.30
   3  -5   1   20.84    1.28
   3  -5   1   19.02    1.14
  -4   5  -1    2.60    0.33
  -4   5  -1    2.19    0.51
  -4   5  -1    3.01    0.42
  -4   5  -1    2.13    0.59
   4  -5   1    2.46    0.50
   4  -5   1    1.64    0.51
   4  -5   1    2.72    0.63
   4  -5   1    3.59    0.38
   4  -5   1    2.20    0.43
  -5   5  -1    6.38    0.94
  -5   5  -1    6.23    0.78
  -5   5  -1    8.37    0.87
  -5   5  -1    7.40    0.81
   5  -5   1    6.79    0.88
   5  -5   1    4.90    0.76
   5  -5   1    6.16    0.54
  -6   5  -1    1.28    0.76
  -6   5  -1    2.15    0.73
  -6   5  -1    1.91    0.64
  -6   5  -1    1.68    0.70
   6  -5   1    3.17    0.71
   6  -5   1    3.19    0.66
   6  -5   1    3.39    0.80
  -7   5  -1    3.20    1.07
  -7   5  -1    1.90    0.94
  -7   5  -1    4.35    0.81
   7  -5   1    2.27    0.99
   7  -5   1    3.54    0.93
   7  -5   1    2.09    0.77
  -8   5  -1    0.57    1.12
  -8   5  -1   -0.86    0.91
  -8   5  -1   -0.07    1.25
   8  -5   1    0.33    0.93
   8  -5   1   -1.62    1.09
  10   4  -1    0.32    0.67
 -10  -4   1    1.15    0.92
 -10  -4   1    1.25    0.67
 -10  -4   1    0.69    0.78
   9   4  -1    2.36    0.58
  -9  -4   1    1.34    0.59
  -9  -4   1    1.33    0.67
  -9  -4   1    2.13    0.75
  -9  -4   1    2.81    0.62
  -9  -4   1    0.99    0.81
   8   4  -1    1.11    0.44
   8   4  -1    0.96    0.46
  -8  -4   1    0.72    0.72
  -8  -4   1    0.64    0.44
  -8  -4   1    0.92    0.53
  -8  -4   1    0.77    0.58
   7   4  -1    0.37    0.31
   7   4  -1    0.42    0.33
  -7  -4   1   -0.05    0.36
  -7  -4   1    0.10    0.32
  -7  -4   1    0.01    0.55
  -7  -4   1   -0.36    0.38
  -7  -4   1    0.00    0.31
  -7  -4   1   -0.47    0.56
  -7  -4   1    2.01    0.71
  -7  -4   1    0.81    0.42
   6   4  -1   14.60    0.96
   6   4  -1   14.51    1.01
  -6  -4   1   14.05    0.71
  -6  -4   1   14.49    1.09
  -6  -4   1   16.23    1.20
  -6  -4   1   14.56    0.95
  -6  -4   1   15.00    0.76
  -6  -4   1   16.54    1.06
  -6  -4   1   15.48    0.95
  -6  -4   1   15.65    1.03
  -6  -4   1   13.96    1.03
  -6  -4   1   13.40    1.15
   5   4  -1   11.34    0.74
   5   4  -1   10.25    0.79
   5   4  -1   11.58    0.55
   5   4  -1   10.11    0.75
   5   4  -1   11.46    0.56
  -5  -4   1   10.40    0.84
  -5  -4   1   11.79    0.64
  -5  -4   1   10.31    0.89
  -5  -4   1   13.08    0.80
  -5  -4   1   11.39    0.87
  -5  -4   1   10.55    0.78
  -5  -4   1   11.18    0.57
  -5  -4   1   11.14    0.79
  -5  -4   1   10.12    0.69
  -5  -4   1   11.37    0.71
   4   4  -1   21.97    0.99
   4   4  -1   20.48    1.20
   4   4  -1   19.95    1.14
   4   4  -1   21.95    0.99
   4   4  -1   21.47    1.17
  -4  -4   1   21.48    1.04
  -4  -4   1   20.86    1.03
  -4  -4   1   20.09    1.16
  -4  -4   1   21.00    1.17
  -4  -4   1   22.08    1.27
  -4  -4   1   19.62    0.99
  -4  -4   1   17.76    1.12
  -4  -4   1   21.70    1.07
  -4  -4   1   20.06    1.20
   3   4  -1   -0.10    0.10
   3   4  -1   -0.17    0.13
   3   4  -1   -0.24    0.17
   3   4  -1   -0.16    0.13
  -3  -4   1    0.14    0.10
  -3  -4   1   -0.02    0.09
  -3  -4   1    0.10    0.21
  -3  -4   1    0.05    0.12
  -3  -4   1   -0.06    0.06
  -3  -4   1   -0.13    0.17
  -3  -4   1   -0.05    0.10
  -3  -4   1    0.06    0.11
   2   4  -1    6.15    0.38
   2   4  -1    5.49    0.39
   2   4  -1    6.27    0.38
   2   4  -1    5.05    0.47
   2   4  -1    6.53    0.49
   2   4  -1    5.09    0.41
  -2  -4   1    5.67    0.37
  -2  -4   1    5.61    0.28
  -2  -4   1    5.29    0.38
  -2  -4   1    6.42    0.55
  -2  -4   1    5.91    0.42
  -2  -4   1    5.71    0.41
  -2  -4   1    5.59    0.37
   1   4  -1    3.23    0.22
   1   4  -1    3.56    0.27
   1   4  -1    3.40    0.40
   1   4  -1    3.18    0.29
  -1  -4   1    4.00    0.33
  -1  -4   1    3.55    0.23
  -1  -4   1    3.11    0.38
  -1  -4   1    3.15    0.31
  -1  -4   1    3.68    0.32
   0   4  -1    7.20    0.52
   0   4  -1    7.65    0.33
   0   4  -1    7.31    0.41
   0   4  -1    7.66    0.50
   0   4  -1    6.68    0.49
   0   4  -1    6.87    0.51
   0  -4   1    7.23    0.52
   0  -4   1    6.87    0.49
   0  -4   1    6.99    0.53
   0  -4   1    6.53    0.50
   0  -4   1    6.14    0.40
   0  -4   1    7.43    0.50
  -1   4  -1    0.11    0.09
  -1   4  -1   -0.05    0.16
  -1   4  -1    0.10    0.15
  -1   4  -1    0.28    0.17
  -1   4  -1   -0.02    0.15
   1  -4   1    0.21    0.11
   1  -4   1   -0.03    0.17
   1  -4   1    0.13    0.20
   1  -4   1   -0.02    0.16
   1  -4   1    0.14    0.10
  -2   4  -1    0.36    0.20
  -2   4  -1    0.34    0.10
  -2   4  -1    0.45    0.24
  -2   4  -1    0.54    0.16
  -2   4  -1    0.39    0.16
  -2   4  -1    0.02    0.21
   2  -4   1    0.35    0.22
   2  -4   1    0.49    0.22
   2  -4   1    0.51    0.18
   2  -4   1    0.45    0.19
   2  -4   1    0.34    0.13
   2  -4   1    0.35    0.26
  -3   4  -1   13.33    0.66
  -3   4  -1   13.51    0.79
  -3   4  -1   13.05    0.74
  -3   4  -1   13.10    0.99
  -3   4  -1   12.98    0.86
   3  -4   1   13.19    0.89
   3  -4   1   12.10    0.75
   3  -4   1   13.13    0.91
   3  -4   1   13.78    1.03
   3  -4   1   13.30    0.84
  -4   4  -1    0.05    0.30
  -4   4  -1   -0.28    0.27
  -4   4  -1    0.06    0.18
  -4   4  -1   -0.09    0.34
   4  -4   1    0.75    0.34
   4  -4   1    0.56    0.33
   4  -4   1    0.07    0.16
   4  -4   1    0.10    0.41
   4  -4   1    0.76    0.31
  -5   4  -1    0.17    0.34
  -5   4  -1    0.28    0.47
  -5   4  -1    0.50    0.45
  -5   4  -1    0.44    0.39
  -5   4  -1    0.36    0.39
  -5   4  -1    0.03    0.25
   5  -4   1    0.45    0.34
   5  -4   1    0.01    0.20
   5  -4   1   -0.56    0.38
   5  -4   1    0.21    0.36
  -6   4  -1    2.49    0.58
  -6   4  -1    3.02    0.72
  -6   4  -1    2.80    0.67
  -6   4  -1    3.15    0.57
   6  -4   1    2.36    0.61
   6  -4   1    2.46    0.55
   6  -4   1    3.65    0.68
  -7   4  -1    1.37    0.76
  -7   4  -1   -0.45    0.65
  -7   4  -1    1.22    0.82
  -7   4  -1    1.12    0.58
   7  -4   1    1.65    0.68
   7  -4   1    0.56    0.72
  -8   4  -1   -0.97    1.03
  -8   4  -1   -0.22    0.70
  -8   4  -1    1.24    0.95
   8  -4   1   -0.27    0.81
   8  -4   1    1.35    0.92
  10   3  -1    0.39    0.69
 -10  -3   1   -0.15    0.84
 -10  -3   1   -2.40    0.87
 -10  -3   1    0.24    0.85
   9   3  -1   -0.11    0.55
  -9  -3   1   -0.25    0.44
  -9  -3   1   -0.60    0.77
  -9  -3   1    0.49    0.63
  -9  -3   1    0.15    0.70
  -9  -3   1   -0.39    0.58
   8   3  -1    1.93    0.55
  -8  -3   1    2.51    0.60
  -8  -3   1    1.32    0.53
  -8  -3   1    2.59    0.70
  -8  -3   1    0.95    0.61
  -8  -3   1    1.47    0.55
   7   3  -1    1.94    0.43
   7   3  -1    2.47    0.41
  -7  -3   1    1.87    0.46
  -7  -3   1    1.93    0.60
  -7  -3   1    1.99    0.15
  -7  -3   1    1.48    0.44
  -7  -3   1    1.83    0.17
  -7  -3   1    1.30    0.47
  -7  -3   1    2.04    0.44
  -7  -3   1    1.94    0.61
  -7  -3   1    1.42    0.53
  -7  -3   1    2.68    0.50
   6   3  -1    0.80    0.28
   6   3  -1    0.61    0.30
  -6  -3   1    0.54    0.29
  -6  -3   1    0.49    0.33
  -6  -3   1    0.75    0.38
  -6  -3   1    0.43    0.09
  -6  -3   1    1.14    0.47
  -6  -3   1    0.23    0.25
  -6  -3   1    0.53    0.32
  -6  -3   1    0.53    0.37
  -6  -3   1    0.60    0.13
  -6  -3   1    0.28    0.27
   5   3  -1    4.71    0.51
   5   3  -1    4.79    0.49
  -5  -3   1    4.97    0.48
  -5  -3   1    4.24    0.44
  -5  -3   1    4.53    0.58
  -5  -3   1    4.98    0.51
  -5  -3   1    4.85    0.32
  -5  -3   1    4.46    0.27
  -5  -3   1    4.64    0.57
  -5  -3   1    4.93    0.53
  -5  -3   1    5.04    0.48
  -5  -3   1    5.28    0.62
   4   3  -1    1.03    0.20
   4   3  -1    0.96    0.11
   4   3  -1    0.74    0.10
   4   3  -1    0.83    0.23
   4   3  -1    0.91    0.22
  -4  -3   1    0.76    0.13
  -4  -3   1    0.95    0.21
  -4  -3   1    0.61    0.18
  -4  -3   1    0.65    0.23
  -4  -3   1    1.22    0.30
  -4  -3   1    0.75    0.11
  -4  -3   1    0.83    0.21
  -4  -3   1    0.96    0.26
  -4  -3   1    0.93    0.19
  -4  -3   1    1.20    0.31
   3   3  -1   38.16    1.97
   3   3  -1   39.20    1.97
   3   3  -1   40.70    1.86
   3   3  -1   39.42    1.78
   3   3  -1   38.89    1.78
   3   3  -1   39.70    1.98
  -3  -3   1   39.05    1.78
  -3  -3   1   38.74    1.96
  -3  -3   1   38.78    1.97
  -3  -3   1   40.36    1.81
  -3  -3   1   38.33    1.98
  -3  -3   1   40.29    1.94
  -3  -3   1   45.57    2.03
  -3  -3   1   40.98    1.92
  -3  -3   1   41.14    1.78
  -3  -3   1   42.70    1.96
   2   3  -1   14.00    0.84
   2   3  -1   15.22    0.86
   2   3  -1   14.46    0.73
   2   3  -1   13.93    0.81
   2   3  -1   13.89    0.77
   2   3  -1   15.70    0.73
  -2  -3   1   14.81    0.78
  -2  -3   1   15.14    0.73
  -2  -3   1   16.75    0.86
  -2  -3   1   14.51    0.75
  -2  -3   1   14.03    0.84
  -2  -3   1   15.64    0.79
  -2  -3   1   15.42    0.68
  -2  -3   1   14.59    0.74
   1   3  -1   10.41    0.62
   1   3  -1   10.16    0.53
   1   3  -1    9.81    0.53
   1   3  -1    9.63    0.53
   1   3  -1    8.60    0.48
   1   3  -1   10.22    0.61
   1   3  -1   10.45    0.53
  -1  -3   1    9.40    0.53
  -1  -3   1    8.89    0.52
  -1  -3   1    8.86    0.54
  -1  -3   1    8.77    0.58
  -1  -3   1    9.45    0.49
  -1  -3   1    9.16    0.60
   0   3  -1    6.07    0.44
   0   3  -1    6.77    0.36
   0   3  -1    6.11    0.45
   0   3  -1    6.47    0.45
   0   3  -1    6.63    0.42
   0  -3   1    6.29    0.43
   0  -3   1    6.32    0.46
   0  -3   1    6.40    0.44
   0  -3   1    6.74    0.43
   0  -3   1    6.75    0.36
   0  -3   1    6.47    0.43
  -1   3  -1    2.95    0.31
  -1   3  -1    3.13    0.28
  -1   3  -1    3.13    0.28
  -1   3  -1    3.36    0.31
  -1   3  -1    2.67    0.34
  -1   3  -1    2.88    0.20
   1  -3   1    3.09    0.34
   1  -3   1    3.34    0.32
   1  -3   1    2.94    0.26
   1  -3   1    3.15    0.26
   1  -3   1    2.91    0.31
  -2   3  -1    3.79    0.27
  -2   3  -1    3.09    0.30
  -2   3  -1    3.38    0.24
  -2   3  -1    3.07    0.29
  -2   3  -1    3.66    0.35
  -2   3  -1    3.20    0.33
  -2   3  -1    3.16    0.41
   2  -3   1    3.31    0.29
   2  -3   1    3.61    0.28
   2  -3   1    4.03    0.38
   2  -3   1    3.75    0.44
   2  -3   1    2.99    0.33
   2  -3   1    2.61    0.33
  -3   3  -1    2.10    0.23
  -3   3  -1    2.19    0.27
  -3   3  -1    1.65    0.30
  -3   3  -1    1.53    0.28
  -3   3  -1    1.40    0.28
  -3   3  -1    1.76    0.34
   3  -3   1    2.14    0.35
   3  -3   1    1.80    0.31
   3  -3   1    2.21    0.24
   3  -3   1    2.16    0.42
   3  -3   1    2.09    0.31
  -4   3  -1   -0.17    0.23
  -4   3  -1    0.22    0.23
  -4   3  -1    0.44    0.30
  -4   3  -1    0.24    0.13
  -4   3  -1    0.03    0.25
  -4   3  -1    0.26    0.18
   4  -3   1   -0.07    0.23
   4  -3   1    0.32    0.24
   4  -3   1    0.16    0.15
   4  -3   1    0.39    0.34
   4  -3   1    0.58    0.31
  -5   3  -1    3.22    0.60
  -5   3  -1    4.57    0.57
  -5   3  -1    4.59    0.57
  -5   3  -1    4.60    0.58
  -5   3  -1    3.11    0.43
  -5   3  -1    3.80    0.35
  -5   3  -1    6.27    0.78
   5  -3   1    4.02    0.57
   5  -3   1    4.90    0.59
   5  -3   1    4.25    0.53
   5  -3   1    5.67    0.75
   5  -3   1    6.21    0.69
  -6   3  -1   -0.07    0.36
  -6   3  -1   -0.35    0.35
  -6   3  -1   -0.57    0.47
  -6   3  -1    0.10    0.17
  -6   3  -1   -0.39    0.38
  -6   3  -1   -0.24    0.51
   6  -3   1    0.26    0.45
   6  -3   1    0.61    0.43
   6  -3   1    0.59    0.36
  -7   3  -1   15.26    1.46
  -7   3  -1   14.92    1.51
  -7   3  -1   13.25    1.13
   7  -3   1   14.82    1.27
   7  -3   1   12.84    1.24
   7  -3   1   12.94    1.23
  -8   3  -1   -0.08    0.59
  -8   3  -1   -1.48    0.86
  -8   3  -1   -0.08    0.77
   8  -3   1   -0.76    0.68
   8  -3   1   -0.60    0.75
  -9   3  -1   -0.58    1.06
  -9   3  -1    1.53    0.81
  -9   3  -1    1.99    1.24
   9  -3   1   -2.10    0.97
   9  -3   1    0.62    1.02
  10   2  -1    0.47    0.79
 -10  -2   1   -0.19    0.85
 -10  -2   1   -1.81    1.01
 -10  -2   1    1.07    0.95
   9   2  -1    0.76    0.56
  -9  -2   1    0.00    0.66
  -9  -2   1    0.49    0.41
  -9  -2   1   -0.68    0.70
  -8  -2   1    0.51    0.17
  -8  -2   1    0.85    0.56
  -8  -2   1    0.99    0.53
  -8  -2   1   -0.37    0.52
  -8  -2   1    0.32    0.16
  -8  -2   1    0.82    0.45
   7   2  -1   -0.29    0.32
  -7  -2   1   -0.15    0.40
  -7  -2   1   -0.99    0.39
  -7  -2   1    0.12    0.53
  -7  -2   1   -0.23    0.40
  -7  -2   1    0.23    0.44
  -7  -2   1    0.34    0.14
  -7  -2   1    0.10    0.13
  -7  -2   1   -0.61    0.35
  -7  -2   1    0.44    0.54
   6   2  -1    1.43    0.35
   6   2  -1    1.23    0.26
  -6  -2   1    1.17    0.33
  -6  -2   1    1.00    0.30
  -6  -2   1    0.98    0.35
  -6  -2   1    1.25    0.39
  -6  -2   1    0.82    0.35
  -6  -2   1    1.64    0.49
  -6  -2   1    1.25    0.16
  -6  -2   1    0.74    0.41
   5   2  -1    2.23    0.31
   5   2  -1    2.26    0.36
  -5  -2   1    2.06    0.37
  -5  -2   1    2.66    0.36
  -5  -2   1    2.12    0.40
  -5  -2   1    1.97    0.38
  -5  -2   1    2.59    0.19
  -5  -2   1    2.56    0.20
  -5  -2   1    2.30    0.35
   4   2  -1   12.25    0.74
   4   2  -1   12.49    0.74
  -4  -2   1   13.54    0.80
  -4  -2   1   12.18    0.82
  -4  -2   1   10.57    0.76
  -4  -2   1   13.65    0.73
  -4  -2   1   12.47    0.58
  -4  -2   1   12.26    0.57
  -4  -2   1   12.27    0.80
  -4  -2   1   12.41    0.75
  -4  -2   1   12.36    0.77
   3   2  -1   11.80    0.72
   3   2  -1   12.44    0.72
   3   2  -1   11.72    0.57
   3   2  -1   13.12    0.57
  -3  -2   1   13.37    0.75
  -3  -2   1   12.43    0.75
  -3  -2   1   12.92    0.77
  -3  -2   1   13.83    0.74
  -3  -2   1   12.73    0.76
  -3  -2   1   13.02    0.75
  -3  -2   1   12.64    0.58
  -3  -2   1   13.53    0.74
  -3  -2   1   12.81    0.67
  -3  -2   1   12.91    0.60
   2   2  -1   43.93    2.07
   2   2  -1   43.20    2.09
   2   2  -1   44.32    2.08
   2   2  -1   43.48    1.90
   2   2  -1   44.80    1.90
   2   2  -1   41.57    2.09
  -2  -2   1   45.33    2.09
  -2  -2   1   44.25    1.97
  -2  -2   1   41.71    2.07
  -2  -2   1   46.40    2.11
  -2  -2   1   39.28    2.06
  -2  -2   1   44.30    1.91
  -2  -2   1   44.37    1.87
   1   2  -1    5.92    0.30
   1   2  -1    5.78    0.33
   1   2  -1    6.68    0.42
   1   2  -1    6.02    0.36
   1   2  -1    6.26    0.34
  -1  -2   1    6.50    0.42
  -1  -2   1    7.05    0.36
  -1  -2   1    5.71    0.28
  -1  -2   1    7.02    0.31
  -1  -2   1    6.36    0.35
   0   2  -1  256.42   10.78
   0   2  -1  273.43   11.82
   0   2  -1  243.64   11.09
   0   2  -1  252.20   10.77
   0   2  -1  230.02   11.71
   0  -2   1  252.09   10.78
   0  -2   1  258.09   11.82
   0  -2   1  246.44   11.10
   0  -2   1  248.28   10.78
  -1   2  -1    0.13    0.09
  -1   2  -1    0.20    0.08
  -1   2  -1    0.19    0.11
  -1   2  -1    0.24    0.13
  -1   2  -1    0.20    0.06
  -1   2  -1    0.27    0.06
   1  -2   1   -0.05    0.11
   1  -2   1    0.21    0.07
   1  -2   1    0.32    0.09
   1  -2   1    0.26    0.12
   1  -2   1    0.16    0.08
   1  -2   1    0.21    0.10
  -2   2  -1    8.54    0.48
  -2   2  -1    8.16    0.53
  -2   2  -1    8.72    0.54
  -2   2  -1    8.52    0.41
  -2   2  -1    8.46    0.51
  -2   2  -1    8.43    0.63
   2  -2   1    7.86    0.51
   2  -2   1    8.80    0.54
   2  -2   1    9.40    0.65
   2  -2   1    8.86    0.55
  -3   2  -1    0.98    0.22
  -3   2  -1    1.19    0.26
  -3   2  -1    1.37    0.16
  -3   2  -1    1.01    0.23
   3  -2   1    1.27    0.24
   3  -2   1    1.13    0.26
  -4   2  -1    1.14    0.26
  -4   2  -1    0.87    0.32
  -4   2  -1    0.87    0.14
  -4   2  -1    0.77    0.24
  -4   2  -1    0.73    0.21
  -4   2  -1    1.25    0.27
  -4   2  -1    0.91    0.22
  -4   2  -1    0.87    0.31
   4  -2   1    0.77    0.19
   4  -2   1    1.22    0.34
   4  -2   1    1.05    0.29
   4  -2   1    1.05    0.28
   4  -2   1    0.65    0.24
   4  -2   1    0.72    0.21
  -5   2  -1   -0.04    0.24
  -5   2  -1   -0.18    0.30
  -5   2  -1   -0.02    0.23
  -5   2  -1   -0.15    0.30
  -5   2  -1   -0.21    0.27
  -5   2  -1   -0.17    0.24
  -5   2  -1   -0.22    0.21
   5  -2   1   -0.81    0.36
   5  -2   1    0.09    0.28
   5  -2   1    0.16    0.26
   5  -2   1    0.00    0.26
   5  -2   1   -0.29    0.29
  -6   2  -1   10.29    1.04
  -6   2  -1    8.49    0.84
  -6   2  -1    9.10    0.58
  -6   2  -1   10.95    0.80
  -6   2  -1    8.47    0.75
  -6   2  -1    9.42    0.91
  -6   2  -1   10.57    1.09
  -6   2  -1    9.89    0.82
   6  -2   1   10.33    0.97
   6  -2   1   10.33    0.87
   6  -2   1   10.29    0.91
   6  -2   1    9.31    0.81
   6  -2   1    9.82    1.14
  -7   2  -1   15.52    0.88
  -7   2  -1   17.85    1.53
  -7   2  -1   13.97    1.37
  -7   2  -1   18.98    1.21
  -7   2  -1   15.80    1.15
   7  -2   1   16.21    1.36
   7  -2   1   17.34    1.25
   7  -2   1   16.97    1.26
  -8   2  -1    0.88    0.52
  -8   2  -1    2.30    0.79
  -8   2  -1    1.10    0.88
   8  -2   1    1.51    0.63
   8  -2   1    1.60    0.70
   8  -2   1    1.22    0.70
  -9   2  -1   -0.41    0.87
  -9   2  -1   -0.12    0.62
  -9   2  -1    0.69    1.00
   9  -2   1    0.09    0.93
   9  -2   1   -1.07    0.84
  10   1  -1    3.59    0.91
 -10  -1   1    1.90    1.14
 -10  -1   1    3.86    1.19
   9   1  -1    0.11    0.60
   9   1  -1    0.60    0.70
  -9  -1   1    1.59    0.71
  -9  -1   1   -0.32    0.31
  -9  -1   1   -0.14    0.28
  -9  -1   1   -1.18    0.79
  -9  -1   1    0.01    0.29
   8   1  -1    4.83    0.81
   8   1  -1    4.03    0.43
   8   1  -1    4.51    0.36
   8   1  -1    5.25    0.74
  -8  -1   1    4.75    0.55
  -8  -1   1    4.94    0.68
  -8  -1   1    4.52    0.52
  -8  -1   1    5.21    0.47
  -8  -1   1    5.84    0.65
  -8  -1   1    4.52    0.83
  -8  -1   1    4.68    0.73
  -8  -1   1    7.05    1.00
   7   1  -1    2.60    0.48
   7   1  -1    1.97    0.24
   7   1  -1    1.79    0.52
   7   1  -1    2.24    0.26
  -7  -1   1    2.28    0.29
  -7  -1   1    2.30    0.47
  -7  -1   1    2.22    0.53
  -7  -1   1    2.71    0.59
  -7  -1   1    2.40    0.29
  -7  -1   1    2.32    0.49
  -7  -1   1    2.75    0.40
  -7  -1   1    2.14    0.61
  -7  -1   1    1.72    0.55
  -7  -1   1    2.24    0.49
   6   1  -1    3.22    0.30
   6   1  -1    2.79    0.26
   6   1  -1    2.82    0.48
   6   1  -1    3.17    0.52
  -6  -1   1    2.73    0.31
  -6  -1   1    3.69    0.57
  -6  -1   1    3.17    0.46
  -6  -1   1    3.03    0.47
  -6  -1   1    2.80    0.50
  -6  -1   1    2.56    0.44
  -6  -1   1    2.39    0.27
  -6  -1   1    1.66    0.40
   5   1  -1   -0.12    0.24
   5   1  -1    0.34    0.12
   5   1  -1   -0.12    0.09
   5   1  -1    0.17    0.21
  -5  -1   1   -0.14    0.26
  -5  -1   1    0.21    0.09
  -5  -1   1    0.43    0.24
  -5  -1   1    0.19    0.24
  -5  -1   1    0.08    0.22
  -5  -1   1    0.18    0.21
  -5  -1   1   -0.04    0.10
  -5  -1   1    0.06    0.20
   4   1  -1    0.09    0.08
   4   1  -1    0.00    0.19
   4   1  -1    0.19    0.17
   4   1  -1    0.17    0.06
   4   1  -1    0.15    0.12
  -4  -1   1    0.24    0.19
  -4  -1   1    0.38    0.19
  -4  -1   1    0.47    0.21
  -4  -1   1    0.14    0.08
  -4  -1   1   -0.03    0.16
  -4  -1   1    0.16    0.07
  -4  -1   1    0.17    0.16
  -4  -1   1   -0.01    0.14
   3   1  -1   17.56    0.89
   3   1  -1   17.27    0.94
   3   1  -1   17.62    0.90
   3   1  -1   17.80    0.76
   3   1  -1   16.63    0.75
  -3  -1   1   17.13    0.77
  -3  -1   1   17.74    0.98
  -3  -1   1   16.65    0.77
  -3  -1   1   16.43    0.92
  -3  -1   1   16.68    0.97
  -3  -1   1   17.37    0.87
  -3  -1   1   19.79    0.93
  -3  -1   1   17.12    0.93
  -3  -1   1   16.63    0.92
   2   1  -1    0.59    0.12
   2   1  -1    0.80    0.14
   2   1  -1    0.49    0.11
   2   1  -1    0.66    0.16
  -2  -1   1    0.79    0.13
  -2  -1   1    0.84    0.14
  -2  -1   1    0.68    0.13
  -2  -1   1    0.55    0.12
  -2  -1   1    0.63    0.11
  -2  -1   1    0.72    0.13
  -2  -1   1    0.68    0.13
   1   1  -1   77.64    3.40
   1   1  -1   76.72    3.50
   1   1  -1   72.62    3.46
   1   1  -1   75.85    3.24
   1   1  -1   75.39    3.15
  -1  -1   1   78.40    3.41
  -1  -1   1   74.90    3.50
  -1  -1   1   73.09    3.47
  -1  -1   1   75.78    3.25
  -1  -1   1   71.25    3.14
  -1  -1   1   74.64    3.45
  -1  -1   1   81.47    3.57
  -1  -1   1   75.79    3.25
   0   1  -1    0.52    0.08
   0   1  -1    0.59    0.09
   0   1  -1    0.55    0.05
   0   1  -1    0.50    0.09
   0   1  -1    0.55    0.09
   0  -1   1    0.65    0.06
   0  -1   1    0.66    0.09
   0  -1   1    0.57    0.08
   0  -1   1    0.43    0.08
   0  -1   1    0.57    0.08
   0  -1   1    0.59    0.09
  -1   1  -1   39.32    1.94
  -1   1  -1   41.97    1.84
  -1   1  -1   41.25    2.02
  -1   1  -1   38.67    1.90
  -1   1  -1   40.20    1.83
   1  -1   1   42.08    1.82
   1  -1   1   39.36    1.82
   1  -1   1   34.21    1.93
   1  -1   1   41.03    2.02
   1  -1   1   44.78    1.81
   1  -1   1   43.74    1.85
  -2   1  -1    0.16    0.13
  -2   1  -1    0.29    0.14
  -2   1  -1    0.51    0.12
  -2   1  -1    0.33    0.11
  -2   1  -1    0.38    0.08
  -2   1  -1    0.28    0.11
   2  -1   1    0.50    0.12
   2  -1   1    0.40    0.09
   2  -1   1    0.30    0.12
   2  -1   1    0.34    0.14
   2  -1   1    0.27    0.11
  -3   1  -1    9.79    0.68
  -3   1  -1    9.43    0.66
  -3   1  -1   10.69    0.59
  -3   1  -1    9.54    0.58
  -3   1  -1    9.26    0.58
  -3   1  -1    8.73    0.53
   3  -1   1    9.74    0.62
   3  -1   1   11.10    0.71
   3  -1   1    8.98    0.62
   3  -1   1    9.43    0.58
  -4   1  -1   13.78    0.80
  -4   1  -1   15.82    0.88
  -4   1  -1   15.27    0.87
  -4   1  -1   14.76    0.85
  -4   1  -1   15.99    1.03
  -4   1  -1   16.16    1.03
   4  -1   1   14.76    0.84
   4  -1   1   14.31    1.03
   4  -1   1   14.43    0.88
   4  -1   1   16.58    0.96
  -5   1  -1    3.78    0.47
  -5   1  -1    4.17    0.52
  -5   1  -1    3.05    0.31
  -5   1  -1    4.44    0.61
  -5   1  -1    3.25    0.46
  -5   1  -1    3.29    0.42
  -5   1  -1    3.11    0.41
   5  -1   1    4.05    0.51
   5  -1   1    3.25    0.47
   5  -1   1    2.90    0.36
   5  -1   1    2.72    0.48
  -6   1  -1    3.20    0.47
  -6   1  -1    3.89    0.63
  -6   1  -1    3.35    0.59
  -6   1  -1    3.02    0.42
  -6   1  -1    3.00    0.33
  -6   1  -1    3.35    0.46
  -6   1  -1    3.49    0.52
   6  -1   1    2.99    0.60
   6  -1   1    2.69    0.50
   6  -1   1    2.98    0.47
   6  -1   1    3.14    0.41
  -7   1  -1    0.57    0.21
  -7   1  -1    0.49    0.48
  -7   1  -1    0.83    0.36
  -7   1  -1    0.73    0.38
   7  -1   1    0.65    0.50
   7  -1   1    0.11    0.45
  -8   1  -1    3.87    0.89
  -8   1  -1    2.39    0.56
  -8   1  -1    4.01    0.57
  -8   1  -1    4.49    0.87
  -8   1  -1    3.10    0.42
   8  -1   1    3.22    0.69
   8  -1   1    2.63    0.74
   8  -1   1    2.98    0.69
  -9   1  -1    0.07    0.81
  -9   1  -1    1.05    0.87
  -9   1  -1    0.66    0.55
   9  -1   1   -0.72    0.77
   9  -1   1   -0.60    0.73
  10   0  -1    4.37    1.26
  10   0  -1    2.37    0.89
 -10   0   1    2.77    1.19
 -10   0   1    2.08    0.52
   9   0  -1   -0.64    0.64
   9   0  -1    0.43    0.77
  -9   0   1    0.15    0.38
  -9   0   1    0.20    0.88
  -9   0   1    1.22    0.79
   8   0  -1    1.85    0.43
   8   0  -1    1.50    0.67
   8   0  -1    1.90    0.59
   8   0  -1    1.47    0.37
  -8   0   1    1.77    0.65
  -8   0   1    1.92    0.26
  -8   0   1    1.49    0.35
  -8   0   1    1.08    0.33
   7   0  -1    6.29    0.84
   7   0  -1    5.99    0.62
   7   0  -1    5.82    0.73
   7   0  -1    6.84    0.55
  -7   0   1    6.68    0.89
  -7   0   1    5.33    0.71
  -7   0   1    6.29    0.48
  -7   0   1    6.86    0.55
  -7   0   1    6.40    0.88
  -7   0   1    5.24    0.67
  -7   0   1    7.19    0.53
  -7   0   1    5.65    0.48
   6   0  -1    5.93    0.64
   6   0  -1    4.30    0.40
   6   0  -1    4.21    0.54
   6   0  -1    4.48    0.44
   6   0  -1    3.51    0.58
  -6   0   1    4.34    0.63
  -6   0   1    4.76    0.60
  -6   0   1    3.60    0.37
  -6   0   1    4.45    0.42
  -6   0   1    4.46    0.40
  -6   0   1    3.71    0.47
  -6   0   1    4.80    0.62
  -6   0   1    5.02    0.60
  -6   0   1    4.40    0.66
   5   0  -1   13.07    0.95
   5   0  -1   13.37    0.72
   5   0  -1   12.71    0.68
   5   0  -1   12.31    0.82
   5   0  -1   12.08    0.90
  -5   0   1   13.25    0.85
  -5   0   1   11.74    0.85
  -5   0   1   12.19    0.67
  -5   0   1   12.85    0.77
  -5   0   1   14.50    0.74
  -5   0   1   12.24    0.96
  -5   0   1   12.25    0.82
  -5   0   1   12.51    0.70
  -5   0   1   10.76    0.91
   4   0  -1    2.09    0.35
   4   0  -1    1.99    0.20
   4   0  -1    1.93    0.22
   4   0  -1    1.26    0.24
   4   0  -1    2.16    0.35
  -4   0   1    1.57    0.19
  -4   0   1    1.71    0.24
  -4   0   1    1.48    0.27
  -4   0   1    1.93    0.29
  -4   0   1    2.34    0.22
  -4   0   1    2.25    0.32
  -4   0   1    1.80    0.35
   3   0  -1   54.88    2.45
   3   0  -1   57.06    2.75
   3   0  -1   52.30    2.53
   3   0  -1   55.81    2.40
   3   0  -1   54.27    2.38
  -3   0   1   55.79    2.41
  -3   0   1   51.02    2.50
  -3   0   1   57.44    2.76
  -3   0   1   53.14    2.50
  -3   0   1   53.37    2.45
  -3   0   1   53.22    2.38
   2   0  -1    3.47    0.29
   2   0  -1    3.21    0.25
   2   0  -1    3.31    0.19
   2   0  -1    3.18    0.28
   2   0  -1    3.73    0.28
   2   0  -1    3.42    0.20
  -2   0   1    3.75    0.25
  -2   0   1    3.30    0.30
  -2   0   1    4.05    0.27
  -2   0   1    3.35    0.19
  -2   0   1    3.59    0.24
  -2   0   1    3.36    0.20
  -2   0   1    3.52    0.27
   1   0  -1    2.29    0.16
   1   0  -1    2.39    0.13
   1   0  -1    2.24    0.14
   1   0  -1    2.23    0.14
   1   0  -1    2.15    0.15
  -1   0   1    2.09    0.14
  -1   0   1    2.39    0.13
  -1   0   1    2.32    0.15
  -1   0   1    1.93    0.15
  -1   0   1    2.20    0.17
  -1   0   1    2.22    0.12
  -1   0   1    2.15    0.14
   0   0   1   46.82    1.96
   0   0   1   43.45    2.07
  -1   0  -1    2.50    0.19
  -1   0  -1    2.43    0.18
  -1   0  -1    2.50    0.18
  -1   0  -1    2.29    0.17
  -1   0  -1    2.36    0.16
  -1   0  -1    2.21    0.16
   1   0   1    2.19    0.18
   1   0   1    2.53    0.17
   1   0   1    2.54    0.19
   1   0   1    2.37    0.17
   1   0   1    2.22    0.18
   1   0   1    2.25    0.16
  -2   0  -1   60.06    2.86
  -2   0  -1   64.90    2.85
  -2   0  -1   63.88    3.06
  -2   0  -1   64.20    2.84
  -2   0  -1   64.35    3.06
   2   0   1   64.41    2.86
   2   0   1   61.81    2.84
   2   0   1   61.02    3.14
   2   0   1   65.19    3.06
   2   0   1   69.80    3.08
   2   0   1   65.53    2.87
   2   0   1   65.97    2.84
  -3   0  -1    7.59    0.47
  -3   0  -1    7.99    0.51
  -3   0  -1    7.57    0.54
  -3   0  -1    7.62    0.56
  -3   0  -1    7.21    0.46
  -3   0  -1    7.27    0.47
   3   0   1    7.88    0.49
   3   0   1    7.56    0.55
   3   0   1    7.53    0.40
   3   0   1    7.14    0.51
   3   0   1    7.82    0.52
  -4   0  -1   15.61    0.95
  -4   0  -1   17.08    0.83
  -4   0  -1   14.50    0.80
  -4   0  -1   14.15    0.94
  -4   0  -1   12.87    0.79
   4   0   1   14.06    0.70
   4   0   1   13.31    0.86
   4   0   1   14.90    0.95
   4   0   1   13.35    0.86
   4   0   1   13.96    0.82
  -5   0  -1    0.49    0.20
  -5   0  -1    0.69    0.18
  -5   0  -1    0.76    0.30
  -5   0  -1    0.72    0.22
  -5   0  -1    0.52    0.29
  -5   0  -1    1.16    0.29
   5   0   1    0.16    0.25
   5   0   1    0.64    0.20
   5   0   1    0.63    0.27
   5   0   1    1.19    0.25
   5   0   1    0.24    0.28
  -6   0  -1    0.22    0.35
  -6   0  -1   -0.03    0.33
  -6   0  -1    0.55    0.26
  -6   0  -1    0.46    0.37
  -6   0  -1    0.01    0.31
  -6   0  -1   -0.13    0.22
   6   0   1    0.72    0.27
   6   0   1    0.39    0.34
   6   0   1    0.44    0.29
   6   0   1    0.26    0.31
   6   0   1   -0.41    0.36
  -7   0  -1    5.04    0.58
  -7   0  -1    3.76    0.71
  -7   0  -1    4.33    0.49
  -7   0  -1    5.17    0.74
  -7   0  -1    4.39    0.58
   7   0   1    4.83    0.65
   7   0   1    3.50    0.63
   7   0   1    4.96    0.56
   7   0   1    5.12    0.78
   7   0   1    5.09    0.63
  -8   0  -1    0.33    0.39
  -8   0  -1    0.86    0.58
  -8   0  -1    0.65    0.56
   8   0   1   -0.68    0.54
   8   0   1   -0.34    0.51
   8   0   1   -1.11    0.46
  -9   0  -1    3.36    0.60
  -9   0  -1    3.25    0.82
  -9   0  -1    2.55    1.00
   9   0   1    4.29    0.84
   9   0   1    2.61    0.81
 -10   0  -1    0.79    1.16
 -10   0  -1    1.92    1.05
 -10   0  -1    0.88    0.64
  10   0   1    0.24    0.95
  10   0   1   -1.56    0.94
   9  -1  -1   -0.17    0.83
   9  -1  -1    0.57    0.72
  -9   1   1    1.22    0.49
  -9   1   1   -0.07    0.84
  -9   1   1   -0.80    0.97
   8  -1  -1   -0.21    0.47
   8  -1  -1    0.33    0.69
   8  -1  -1   -0.04    0.53
  -8   1   1    0.84    0.64
  -8   1   1    0.43    0.38
  -8   1   1    0.45    0.38
  -8   1   1   -0.17    0.70
   7  -1  -1    2.88    0.63
   7  -1  -1    3.31    0.45
   7  -1  -1    2.51    0.50
  -7   1   1    2.58    0.70
  -7   1   1    2.23    0.38
  -7   1   1    2.46    0.41
  -7   1   1    2.36    0.37
   6  -1  -1   28.40    1.46
   6  -1  -1   28.17    1.58
   6  -1  -1   26.77    1.73
   6  -1  -1   29.63    1.86
  -6   1   1   30.37    1.46
  -6   1   1   31.63    1.86
  -6   1   1   29.12    1.50
  -6   1   1   27.50    1.84
  -6   1   1   30.16    1.48
   5  -1  -1   20.02    1.35
   5  -1  -1   19.82    1.14
   5  -1  -1   21.09    1.25
   5  -1  -1   19.90    1.06
   5  -1  -1   20.02    1.09
  -5   1   1   20.16    1.04
  -5   1   1   19.44    1.33
  -5   1   1   20.17    1.06
  -5   1   1   21.43    0.98
  -5   1   1   20.62    1.17
  -5   1   1   19.92    0.98
  -5   1   1   19.35    1.14
  -5   1   1   20.09    1.08
   4  -1  -1    0.10    0.17
   4  -1  -1    0.07    0.14
   4  -1  -1   -0.29    0.22
   4  -1  -1   -0.19    0.18
  -4   1   1    0.16    0.22
  -4   1   1    0.00    0.12
  -4   1   1    0.02    0.05
  -4   1   1   -0.01    0.10
  -4   1   1    0.14    0.17
  -4   1   1    0.17    0.11
  -4   1   1    0.00    0.18
   3  -1  -1    0.55    0.17
   3  -1  -1    0.47    0.15
   3  -1  -1    0.67    0.20
   3  -1  -1    0.63    0.13
   3  -1  -1    0.49    0.12
  -3   1   1    0.32    0.19
  -3   1   1    0.57    0.11
  -3   1   1    0.46    0.06
  -3   1   1    0.49    0.12
  -3   1   1    0.61    0.17
  -3   1   1    0.58    0.12
  -3   1   1    0.34    0.14
   2  -1  -1    0.44    0.12
   2  -1  -1    0.59    0.11
   2  -1  -1    0.38    0.14
   2  -1  -1    0.54    0.11
   2  -1  -1    0.55    0.10
   2  -1  -1    0.65    0.14
  -2   1   1    0.39    0.10
  -2   1   1    0.42    0.11
  -2   1   1    0.46    0.09
  -2   1   1    0.43    0.10
  -2   1   1    0.44    0.15
   1  -1  -1    4.98    0.27
   1  -1  -1    5.35    0.28
   1  -1  -1    5.51    0.31
   1  -1  -1    5.43    0.30
   1  -1  -1    5.46    0.38
   1  -1  -1    5.60    0.31
  -1   1   1    6.32    0.30
  -1   1   1    5.61    0.31
  -1   1   1    5.47    0.30
  -1   1   1    5.07    0.38
  -1   1   1    5.60    0.30
   0  -1  -1    0.13    0.02
   0  -1  -1    0.09    0.02
   0  -1  -1    0.04    0.04
   0  -1  -1    0.08    0.04
   0  -1  -1    0.02    0.05
   0  -1  -1    0.09    0.02
   0  -1  -1    0.09    0.02
   0   1   1    0.10    0.02
   0   1   1    0.10    0.02
   0   1   1    0.09    0.04
   0   1   1    0.07    0.02
   0   1   1    0.08    0.02
   0   1   1    0.05    0.05
  -1  -1  -1  126.44    6.37
  -1  -1  -1  142.09    5.90
  -1  -1  -1  142.64    6.00
  -1  -1  -1  134.88    5.98
   1   1   1  138.15    5.98
   1   1   1  137.83    6.00
   1   1   1  142.47    6.38
   1   1   1  148.72    5.90
   1   1   1  138.61    6.53
  -2  -1  -1    9.41    0.52
  -2  -1  -1   10.21    0.53
  -2  -1  -1    9.93    0.55
  -2  -1  -1    8.94    0.57
  -2  -1  -1    9.78    0.54
   2   1   1   10.33    0.54
   2   1   1    9.44    0.55
   2   1   1   10.16    0.59
   2   1   1    9.46    0.53
   2   1   1   10.17    0.51
  -3  -1  -1   65.94    2.93
  -3  -1  -1   68.22    2.96
  -3  -1  -1   64.46    2.95
  -3  -1  -1   60.09    3.23
  -3  -1  -1   67.71    3.02
  -3  -1  -1   64.63    3.20
  -3  -1  -1   67.22    3.21
   3   1   1   64.33    2.96
   3   1   1   65.92    3.01
   3   1   1   67.40    3.20
   3   1   1   70.84    3.25
   3   1   1   67.43    2.96
   3   1   1   63.67    3.02
   3   1   1   66.21    2.93
  -4  -1  -1    9.28    0.71
  -4  -1  -1   10.60    0.62
  -4  -1  -1   12.72    0.78
  -4  -1  -1   10.82    0.71
  -4  -1  -1   10.81    0.63
  -4  -1  -1   11.32    0.69
   4   1   1   11.32    0.63
   4   1   1   10.85    0.62
   4   1   1   10.98    0.66
   4   1   1    9.56    0.68
   4   1   1   11.29    0.74
   4   1   1   10.51    0.73
  -5  -1  -1    3.55    0.49
  -5  -1  -1    4.68    0.46
  -5  -1  -1    4.73    0.51
  -5  -1  -1    5.00    0.40
  -5  -1  -1    4.72    0.54
  -5  -1  -1    4.40    0.41
   5   1   1    4.27    0.39
   5   1   1    3.92    0.52
   5   1   1    4.07    0.48
   5   1   1    4.93    0.37
   5   1   1    4.60    0.44
  -6  -1  -1    1.08    0.35
  -6  -1  -1    1.20    0.26
  -6  -1  -1    1.30    0.44
  -6  -1  -1    1.54    0.38
  -6  -1  -1    0.75    0.28
  -6  -1  -1    1.74    0.31
  -6  -1  -1    1.03    0.39
   6   1   1    1.52    0.30
   6   1   1    1.42    0.23
   6   1   1    1.29    0.40
   6   1   1    1.35    0.37
   6   1   1    1.31    0.26
   6   1   1    1.00    0.38
  -7  -1  -1    0.73    0.27
  -7  -1  -1    0.23    0.27
  -7  -1  -1    0.43    0.29
  -7  -1  -1    1.31    0.52
  -7  -1  -1   -0.20    0.38
  -7  -1  -1    0.37    0.45
  -7  -1  -1    0.49    0.35
   7   1   1    0.01    0.38
   7   1   1    0.93    0.31
   7   1   1    1.05    0.46
   7   1   1    0.63    0.34
   7   1   1    0.24    0.37
  -8  -1  -1    0.92    0.35
  -8  -1  -1    0.07    0.50
  -8  -1  -1    0.09    0.49
  -8  -1  -1   -0.11    0.32
  -8  -1  -1   -0.33    0.34
  -8  -1  -1    0.73    0.60
   8   1   1   -0.56    0.45
   8   1   1   -0.37    0.67
  -9  -1  -1    0.62    0.65
  -9  -1  -1   -1.44    0.68
  -9  -1  -1   -0.59    0.38
  -9  -1  -1    0.30    0.76
   9   1   1   -0.61    0.60
 -10  -1  -1    2.14    0.57
 -10  -1  -1    1.95    1.02
 -10  -1  -1    1.92    0.96
  10   1   1   -1.39    0.87
   9  -2  -1   -0.29    0.94
   9  -2  -1    0.99    0.79
  -9   2   1    0.59    0.97
  -9   2   1   -0.32    0.58
  -9   2   1    1.01    1.00
   8  -2  -1   -0.41    0.55
   8  -2  -1    0.54    0.70
  -8   2   1    0.77    0.79
  -8   2   1   -0.07    0.42
  -8   2   1   -0.22    0.74
   7  -2  -1    0.92    0.56
   7  -2  -1    1.76    0.49
   7  -2  -1    1.68    0.46
  -7   2   1    1.28    0.61
  -7   2   1    0.86    0.60
  -7   2   1    1.14    0.26
  -7   2   1    1.17    0.39
  -7   2   1    1.57    0.41
   6  -2  -1   16.68    1.10
   6  -2  -1   14.71    1.23
   6  -2  -1   18.50    1.46
   6  -2  -1   16.28    1.11
   6  -2  -1   16.31    1.05
  -6   2   1   15.73    1.09
  -6   2   1   17.70    0.92
  -6   2   1   19.31    1.38
  -6   2   1   17.69    1.38
  -6   2   1   18.29    1.07
  -6   2   1   17.06    1.01
   5  -2  -1   -0.05    0.39
   5  -2  -1   -0.18    0.22
   5  -2  -1    0.35    0.24
   5  -2  -1    0.04    0.23
   5  -2  -1   -0.13    0.28
  -5   2   1   -0.10    0.22
  -5   2   1    0.01    0.31
  -5   2   1    0.25    0.15
  -5   2   1    0.09    0.24
  -5   2   1   -0.02    0.19
  -5   2   1   -0.18    0.28
   4  -2  -1   12.28    0.77
   4  -2  -1   13.64    0.98
   4  -2  -1   13.10    0.87
   4  -2  -1   12.55    0.78
   4  -2  -1   13.64    0.78
  -4   2   1   12.93    0.68
  -4   2   1   13.00    0.79
  -4   2   1   13.91    0.80
  -4   2   1   12.73    0.75
  -4   2   1   13.26    0.77
  -4   2   1   13.01    0.77
  -4   2   1   12.42    0.96
   3  -2  -1    0.85    0.18
   3  -2  -1    0.55    0.18
   3  -2  -1    0.74    0.17
   3  -2  -1    0.77    0.26
  -3   2   1    0.88    0.18
  -3   2   1    0.58    0.13
  -3   2   1    0.14    0.21
  -3   2   1    0.83    0.16
  -3   2   1    1.00    0.20
   2  -2  -1    0.93    0.23
   2  -2  -1    1.71    0.18
   2  -2  -1    1.18    0.19
   2  -2  -1    1.45    0.22
   2  -2  -1    1.21    0.18
   2  -2  -1    0.98    0.16
  -2   2   1    1.64    0.16
  -2   2   1    1.05    0.18
  -2   2   1    1.41    0.19
  -2   2   1    1.37    0.18
  -2   2   1    1.42    0.27
   1  -2  -1    0.39    0.10
   1  -2  -1    0.43    0.10
   1  -2  -1    0.16    0.10
  -1   2   1    0.28    0.10
  -1   2   1    0.34    0.06
  -1   2   1    0.33    0.08
  -1   2   1    0.45    0.14
  -1   2   1    0.28    0.09
   0  -2  -1    0.24    0.04
   0  -2  -1    0.27    0.05
   0  -2  -1    0.30    0.08
   0  -2  -1    0.28    0.08
   0   2   1    0.25    0.09
   0   2   1    0.21    0.07
   0   2   1    0.21    0.04
   0   2   1    0.29    0.04
   0   2   1    0.27    0.05
   0   2   1    0.34    0.10
  -1  -2  -1   44.46    1.94
  -1  -2  -1   42.63    2.07
  -1  -2  -1   44.03    2.00
  -1  -2  -1   47.70    2.07
   1   2   1   44.58    1.97
   1   2   1   42.72    1.93
   1   2   1   46.62    2.00
   1   2   1   41.17    2.08
   1   2   1   43.60    2.08
  -2  -2  -1   15.15    0.68
  -2  -2  -1   12.99    0.74
  -2  -2  -1   13.08    0.71
  -2  -2  -1   13.32    0.68
  -2  -2  -1   13.51    0.75
  -2  -2  -1   14.58    0.71
   2   2   1   13.53    0.71
   2   2   1   13.44    0.68
   2   2   1   13.56    0.64
   2   2   1   12.31    0.68
   2   2   1   13.27    0.70
   2   2   1   14.17    0.76
  -3  -2  -1   18.28    0.99
  -3  -2  -1   18.08    0.93
  -3  -2  -1   19.09    0.97
  -3  -2  -1   18.34    1.01
  -3  -2  -1   16.93    0.94
  -3  -2  -1   18.68    0.89
  -3  -2  -1   18.71    0.90
   3   2   1   17.78    0.98
   3   2   1   18.28    1.03
   3   2   1   19.03    0.90
   3   2   1   17.79    0.96
   3   2   1   18.33    0.97
   3   2   1   17.05    0.91
  -4  -2  -1   24.49    1.30
  -4  -2  -1   22.83    1.19
  -4  -2  -1   25.75    1.36
  -4  -2  -1   23.66    1.17
  -4  -2  -1   23.60    1.19
   4   2   1   25.64    1.18
   4   2   1   23.37    1.19
   4   2   1   22.13    1.33
   4   2   1   23.67    1.25
   4   2   1   22.02    1.26
   4   2   1   26.14    1.30
  -5  -2  -1   -0.24    0.21
  -5  -2  -1    0.58    0.27
  -5  -2  -1    0.14    0.15
  -5  -2  -1   -0.03    0.13
  -5  -2  -1    0.40    0.18
  -5  -2  -1   -0.28    0.17
  -5  -2  -1    0.09    0.26
   5   2   1    0.34    0.25
   5   2   1    0.25    0.19
   5   2   1    0.19    0.15
   5   2   1    0.24    0.27
   5   2   1    0.14    0.21
   5   2   1    0.16    0.16
  -6  -2  -1    3.15    0.36
  -6  -2  -1    3.81    0.57
  -6  -2  -1    1.94    0.44
  -6  -2  -1    3.58    0.41
  -6  -2  -1    2.40    0.43
  -6  -2  -1    2.40    0.41
  -6  -2  -1    2.62    0.53
  -6  -2  -1    2.91    0.36
   6   2   1    2.45    0.43
   6   2   1    3.35    0.39
   6   2   1    3.85    0.52
  -7  -2  -1    0.01    0.22
  -7  -2  -1   -0.26    0.42
  -7  -2  -1   -0.17    0.33
  -7  -2  -1    0.05    0.43
  -7  -2  -1   -0.27    0.29
  -7  -2  -1   -0.04    0.24
  -7  -2  -1   -0.40    0.34
   7   2   1   -0.19    0.26
   7   2   1    0.27    0.39
   7   2   1    0.09    0.22
   7   2   1   -0.16    0.37
  -8  -2  -1    1.70    0.51
  -8  -2  -1    1.60    0.38
  -8  -2  -1    2.60    0.68
  -8  -2  -1    1.90    0.39
  -8  -2  -1    1.90    0.50
  -8  -2  -1    1.83    0.44
   8   2   1    1.99    0.64
   8   2   1    2.58    0.65
   8   2   1    2.18    0.46
   8   2   1    2.18    0.39
  -9  -2  -1    0.99    0.40
  -9  -2  -1    1.31    0.59
  -9  -2  -1    2.08    0.65
  -9  -2  -1    2.79    0.68
  -9  -2  -1    1.30    0.70
   9   2   1    1.15    0.66
 -10  -2  -1   -0.17    0.77
 -10  -2  -1    0.46    0.93
 -10  -2  -1    0.31    0.44
  10   2   1    1.07    0.87
   9  -3  -1   -1.87    1.08
   9  -3  -1    1.35    0.95
  -9   3   1    0.40    1.21
  -9   3   1   -0.32    0.71
  -9   3   1    1.05    1.23
   8  -3  -1    0.32    0.77
  -8   3   1    0.12    0.54
  -8   3   1   -0.27    0.83
  -8   3   1    0.17    0.86
   7  -3  -1   -0.15    0.60
   7  -3  -1   -0.23    0.46
   7  -3  -1   -0.33    0.58
  -7   3   1    0.27    0.67
  -7   3   1   -1.39    0.60
  -7   3   1    0.43    0.44
  -7   3   1   -0.19    0.40
   6  -3  -1    1.13    0.42
   6  -3  -1    2.12    0.51
   6  -3  -1    1.40    0.53
  -6   3   1    0.57    0.37
  -6   3   1    1.40    0.60
  -6   3   1    1.11    0.18
  -6   3   1    0.66    0.35
  -6   3   1    1.08    0.33
   5  -3  -1   10.64    0.83
   5  -3  -1   10.94    0.80
   5  -3  -1   10.40    0.86
   5  -3  -1   11.75    1.04
   5  -3  -1   10.72    0.76
  -5   3   1    9.61    0.79
  -5   3   1    9.61    0.76
  -5   3   1   10.61    0.97
  -5   3   1   10.27    0.75
  -5   3   1   10.18    0.58
  -5   3   1   10.46    0.73
   4  -3  -1    0.20    0.33
   4  -3  -1    0.12    0.24
   4  -3  -1    0.02    0.23
   4  -3  -1    0.04    0.19
   4  -3  -1    0.30    0.23
  -4   3   1   -0.03    0.20
  -4   3   1   -0.09    0.25
  -4   3   1    0.30    0.16
  -4   3   1   -0.15    0.23
  -4   3   1   -0.09    0.19
   3  -3  -1    2.33    0.34
   3  -3  -1    1.67    0.30
   3  -3  -1    1.83    0.36
   3  -3  -1    2.38    0.28
   3  -3  -1    2.32    0.31
  -3   3   1    1.98    0.27
  -3   3   1    1.78    0.28
  -3   3   1    1.95    0.28
  -3   3   1    1.22    0.32
   2  -3  -1   33.03    1.79
   2  -3  -1   36.43    1.85
   2  -3  -1   36.72    1.73
   2  -3  -1   38.01    1.80
   2  -3  -1   39.75    1.81
   2  -3  -1   38.92    1.81
   2  -3  -1   39.42    2.04
  -2   3   1   38.55    1.79
  -2   3   1   38.74    1.79
  -2   3   1   38.26    1.81
  -2   3   1   38.33    2.06
  -2   3   1   38.13    1.69
   1  -3  -1    5.64    0.39
   1  -3  -1    5.23    0.34
   1  -3  -1    5.44    0.44
   1  -3  -1    5.21    0.40
  -1   3   1    6.03    0.38
  -1   3   1    5.47    0.31
  -1   3   1    5.44    0.46
  -1   3   1    5.79    0.40
  -1   3   1    4.49    0.29
   0  -3  -1    0.64    0.08
   0  -3  -1    0.78    0.16
   0  -3  -1    0.81    0.10
   0  -3  -1    0.72    0.16
   0  -3  -1    0.77    0.15
   0   3   1    0.61    0.15
   0   3   1    0.73    0.14
   0   3   1    0.72    0.08
   0   3   1    0.76    0.09
   0   3   1    0.83    0.17
   0   3   1    0.69    0.07
  -1  -3  -1    5.04    0.30
  -1  -3  -1    4.52    0.33
  -1  -3  -1    4.86    0.27
  -1  -3  -1    4.89    0.30
  -1  -3  -1    4.40    0.34
   1   3   1    5.00    0.33
   1   3   1    4.37    0.29
   1   3   1    4.78    0.32
   1   3   1    4.64    0.30
  -2  -3  -1    3.92    0.33
  -2  -3  -1    4.62    0.32
  -2  -3  -1    4.52    0.32
  -2  -3  -1    5.16    0.36
  -2  -3  -1    3.87    0.32
   2   3   1    4.56    0.42
   2   3   1    3.86    0.28
   2   3   1    4.78    0.34
   2   3   1    4.47    0.35
   2   3   1    5.18    0.36
   2   3   1    4.89    0.34
   2   3   1    4.66    0.32
  -3  -3  -1    3.93    0.38
  -3  -3  -1    3.91    0.39
  -3  -3  -1    4.23    0.31
  -3  -3  -1    4.35    0.25
  -3  -3  -1    4.35    0.38
  -3  -3  -1    3.93    0.35
   3   3   1    4.33    0.26
   3   3   1    4.28    0.37
   3   3   1    4.50    0.42
   3   3   1    4.30    0.38
   3   3   1    4.27    0.32
   3   3   1    4.42    0.26
   3   3   1    4.00    0.33
  -4  -3  -1    1.61    0.22
  -4  -3  -1    1.66    0.24
  -4  -3  -1    1.52    0.27
  -4  -3  -1    1.38    0.28
  -4  -3  -1    1.92    0.34
  -4  -3  -1    1.76    0.22
  -4  -3  -1    1.66    0.20
  -4  -3  -1    2.70    0.38
   4   3   1    2.00    0.24
   4   3   1    1.77    0.30
   4   3   1    1.40    0.29
   4   3   1    1.49    0.28
   4   3   1    1.70    0.23
   4   3   1    1.88    0.21
  -5  -3  -1   13.79    0.76
  -5  -3  -1   13.36    0.89
  -5  -3  -1   14.03    0.92
  -5  -3  -1   13.06    0.79
  -5  -3  -1   13.34    0.82
  -5  -3  -1   16.27    0.98
  -5  -3  -1   12.59    0.74
   5   3   1   13.65    0.88
   5   3   1   14.76    0.98
   5   3   1   12.57    0.81
   5   3   1   13.07    0.88
   5   3   1   12.80    0.75
  -6  -3  -1   14.99    1.09
  -6  -3  -1   15.25    0.84
  -6  -3  -1   14.78    1.13
  -6  -3  -1   13.43    1.03
  -6  -3  -1   13.88    0.87
  -6  -3  -1   14.41    0.89
   6   3   1   16.39    0.85
   6   3   1   16.01    1.02
   6   3   1   15.57    0.97
   6   3   1   15.09    0.95
  -7  -3  -1   12.03    1.13
  -7  -3  -1   11.39    0.76
  -7  -3  -1   12.33    0.81
  -7  -3  -1   13.79    0.96
  -7  -3  -1   14.60    1.04
  -7  -3  -1   13.89    1.12
   7   3   1   12.82    0.87
   7   3   1   11.40    0.78
   7   3   1   11.88    0.95
   7   3   1   12.27    1.02
  -8  -3  -1   -0.06    0.30
  -8  -3  -1   -0.05    0.37
  -8  -3  -1    0.26    0.27
  -8  -3  -1    0.36    0.52
  -8  -3  -1    0.34    0.39
   8   3   1   -0.16    0.33
   8   3   1    0.15    0.45
   8   3   1    0.18    0.31
   8   3   1    0.57    0.34
   8   3   1   -0.18    0.49
  -9  -3  -1    0.14    0.53
  -9  -3  -1    1.47    0.58
  -9  -3  -1    1.26    0.69
  -9  -3  -1    0.23    0.40
  -9  -3  -1    0.80    0.69
   9   3   1   -0.03    0.37
   9   3   1   -0.14    0.65
 -10  -3  -1    0.32    0.39
 -10  -3  -1    1.45    0.91
 -10  -3  -1    1.97    0.85
  10   3   1    0.07    0.77
   8  -4  -1    1.70    0.74
   8  -4  -1   -0.02    0.82
  -8   4   1   -0.29    0.65
  -8   4   1    1.89    1.08
  -8   4   1   -0.50    0.98
   7  -4  -1   -0.04    0.65
   7  -4  -1    0.70    0.57
   7  -4  -1    0.20    0.69
  -7   4   1   -0.22    0.76
  -7   4   1    0.11    0.74
  -7   4   1    0.76    0.54
   6  -4  -1    4.25    0.61
   6  -4  -1    4.32    0.68
   6  -4  -1    5.09    0.76
  -6   4   1    4.50    0.63
  -6   4   1    4.32    0.57
  -6   4   1    3.92    0.80
   5  -4  -1    8.91    0.82
   5  -4  -1    6.73    0.85
   5  -4  -1    8.39    0.71
   5  -4  -1    9.21    0.86
  -5   4   1    7.89    1.01
  -5   4   1    8.39    0.48
  -5   4   1    9.13    0.75
  -5   4   1    7.25    0.73
  -5   4   1    7.99    0.62
  -5   4   1    7.67    0.77
   4  -4  -1   13.05    0.80
   4  -4  -1   12.84    0.90
   4  -4  -1   12.48    0.92
   4  -4  -1   12.65    0.88
   4  -4  -1   13.44    1.14
  -4   4   1   11.32    0.72
  -4   4   1   12.04    1.03
  -4   4   1   13.37    0.82
  -4   4   1   11.96    0.85
   3  -4  -1    7.12    0.59
   3  -4  -1    8.20    0.63
   3  -4  -1    7.71    0.62
   3  -4  -1    7.35    0.76
   3  -4  -1    6.94    0.39
  -3   4   1    7.07    0.52
  -3   4   1    8.65    0.47
  -3   4   1    7.57    0.59
  -3   4   1    6.43    0.58
  -3   4   1    7.18    0.71
   2  -4  -1   35.43    1.76
   2  -4  -1   35.37    1.81
   2  -4  -1   37.31    2.03
   2  -4  -1   34.08    1.74
   2  -4  -1   38.06    1.82
   2  -4  -1   36.64    1.79
  -2   4   1   38.23    1.78
  -2   4   1   35.70    2.02
  -2   4   1   34.06    1.72
  -2   4   1   36.58    1.79
  -2   4   1   37.99    1.64
   1  -4  -1    4.12    0.44
   1  -4  -1    4.35    0.33
   1  -4  -1    3.74    0.39
   1  -4  -1    4.27    0.37
   1  -4  -1    3.97    0.29
  -1   4   1    4.03    0.26
  -1   4   1    4.03    0.38
  -1   4   1    4.21    0.39
  -1   4   1    4.30    0.26
  -1   4   1    4.19    0.45
   0  -4  -1   33.84    1.50
   0  -4  -1   37.06    1.63
   0  -4  -1   34.09    1.68
   0  -4  -1   32.73    1.79
   0  -4  -1   35.71    1.67
   0   4   1   34.04    1.82
   0   4   1   37.75    1.64
   0   4   1   31.53    1.64
   0   4   1   36.14    1.46
   0   4   1   34.23    1.68
   0   4   1   32.98    1.65
  -1  -4  -1    5.72    0.35
  -1  -4  -1    6.23    0.33
  -1  -4  -1    5.72    0.45
  -1  -4  -1    6.42    0.38
  -1  -4  -1    6.78    0.28
  -1  -4  -1    5.40    0.41
   1   4   1    6.03    0.41
   1   4   1    6.22    0.46
   1   4   1    5.56    0.49
   1   4   1    5.56    0.41
   1   4   1    5.56    0.40
   1   4   1    5.52    0.36
  -2  -4  -1    3.23    0.25
  -2  -4  -1    3.46    0.33
  -2  -4  -1    3.12    0.30
  -2  -4  -1    3.29    0.35
  -2  -4  -1    3.53    0.29
   2   4   1    3.93    0.35
   2   4   1    3.57    0.30
   2   4   1    3.60    0.31
   2   4   1    3.44    0.39
   2   4   1    3.81    0.23
   2   4   1    3.76    0.30
  -3  -4  -1    1.58    0.23
  -3  -4  -1    2.01    0.29
  -3  -4  -1    1.52    0.24
  -3  -4  -1    1.52    0.21
  -3  -4  -1    1.47    0.24
   3   4   1    1.82    0.27
   3   4   1    1.59    0.23
   3   4   1    1.34    0.20
   3   4   1    1.79    0.32
   3   4   1    1.56    0.26
   3   4   1    1.53    0.19
  -4  -4  -1    0.33    0.18
  -4  -4  -1    0.10    0.16
  -4  -4  -1    0.62    0.20
  -4  -4  -1    0.12    0.23
  -4  -4  -1    0.35    0.13
   4   4   1    0.42    0.18
   4   4   1    0.37    0.16
   4   4   1   -0.07    0.19
   4   4   1    0.33    0.11
   4   4   1    0.14    0.17
  -5  -4  -1    1.32    0.31
  -5  -4  -1    1.24    0.36
  -5  -4  -1    1.21    0.20
  -5  -4  -1    1.37    0.31
  -5  -4  -1    1.19    0.21
  -5  -4  -1    1.39    0.28
  -5  -4  -1    1.93    0.40
  -5  -4  -1    1.19    0.19
   5   4   1    1.65    0.37
   5   4   1    1.41    0.35
   5   4   1    1.13    0.24
   5   4   1    0.97    0.22
   5   4   1    1.26    0.30
  -6  -4  -1    4.36    0.43
  -6  -4  -1    3.64    0.39
  -6  -4  -1    4.75    0.61
  -6  -4  -1    4.90    0.59
  -6  -4  -1    4.94    0.45
  -6  -4  -1    4.00    0.49
  -6  -4  -1    3.84    0.58
  -6  -4  -1    5.40    0.69
   6   4   1    5.25    0.46
   6   4   1    3.48    0.52
   6   4   1    3.80    0.58
   6   4   1    4.57    0.58
  -7  -4  -1    2.12    0.40
  -7  -4  -1    2.55    0.39
  -7  -4  -1    2.80    0.54
  -7  -4  -1    4.00    0.59
  -7  -4  -1    1.88    0.59
  -7  -4  -1    2.37    0.32
  -7  -4  -1    3.04    0.56
  -7  -4  -1    2.45    0.38
   7   4   1    2.62    0.48
   7   4   1    3.22    0.37
   7   4   1    2.97    0.53
   7   4   1    3.44    0.38
  -8  -4  -1    2.88    0.45
  -8  -4  -1    4.00    0.51
  -8  -4  -1    3.22    0.39
  -8  -4  -1    2.56    0.48
  -8  -4  -1    3.29    0.64
  -8  -4  -1    3.62    0.72
   8   4   1    3.77    0.56
   8   4   1    1.76    0.53
   8   4   1    3.56    0.43
   8   4   1    3.57    0.41
  -9  -4  -1    0.09    0.60
  -9  -4  -1   -0.65    0.53
  -9  -4  -1   -0.13    0.46
  -9  -4  -1    0.36    0.81
  -9  -4  -1    0.35    0.31
  -9  -4  -1    0.87    0.43
  -9  -4  -1    0.68    0.65
   9   4   1    0.90    0.59
   9   4   1    0.24    0.35
   9   4   1   -0.54    0.43
 -10  -4  -1    0.42    0.65
 -10  -4  -1    1.47    0.36
 -10  -4  -1   -0.60    0.79
 -10  -4  -1    0.03    0.87
  10   4   1    0.78    0.73
   8  -5  -1   -0.10    1.07
  -8   5   1   -1.04    1.19
  -8   5   1   -0.42    1.18
  -8   5   1    0.43    0.82
   7  -5  -1    0.65    0.65
   7  -5  -1   -1.06    0.69
  -7   5   1    1.51    0.93
  -7   5   1    0.33    0.66
  -7   5   1   -0.15    0.81
   6  -5  -1    3.39    0.76
   6  -5  -1    2.80    0.53
   6  -5  -1    2.58    0.69
  -6   5   1    2.12    0.60
  -6   5   1    1.43    0.70
  -6   5   1    1.80    0.61
   5  -5  -1    0.79    0.37
   5  -5  -1    1.31    0.48
   5  -5  -1    0.36    0.44
  -5   5   1   -0.33    0.40
  -5   5   1    0.55    0.52
  -5   5   1    0.83    0.23
  -5   5   1    1.33    0.46
  -5   5   1    0.67    0.26
  -5   5   1    0.25    0.37
  -5   5   1    1.04    0.17
   4  -5  -1    2.13    0.58
   4  -5  -1    3.64    0.44
   4  -5  -1    3.13    0.52
   4  -5  -1    2.91    0.47
  -4   5   1    2.70    0.48
  -4   5   1    3.51    0.66
  -4   5   1    2.73    0.50
  -4   5   1    3.28    0.43
  -4   5   1    2.30    0.29
  -4   5   1    2.19    0.37
   3  -5  -1    0.51    0.24
   3  -5  -1   -0.06    0.26
   3  -5  -1    0.22    0.39
   3  -5  -1   -0.07    0.32
  -3   5   1    0.28    0.25
  -3   5   1   -0.04    0.11
  -3   5   1   -0.19    0.33
  -3   5   1    0.07    0.27
  -3   5   1    0.01    0.20
   2  -5  -1    1.08    0.23
   2  -5  -1    0.90    0.29
   2  -5  -1    0.82    0.17
   2  -5  -1    1.14    0.37
   2  -5  -1    0.61    0.29
  -2   5   1    0.99    0.28
  -2   5   1    1.08    0.16
  -2   5   1    0.76    0.34
  -2   5   1    1.19    0.19
   1  -5  -1   -0.20    0.17
   1  -5  -1    0.05    0.22
   1  -5  -1   -0.05    0.24
   1  -5  -1    0.03    0.09
   1  -5  -1   -0.11    0.13
   1  -5  -1   -0.06    0.13
  -1   5   1   -0.04    0.07
  -1   5   1    0.08    0.19
  -1   5   1    0.14    0.22
  -1   5   1   -0.10    0.08
   0  -5  -1    0.21    0.21
   0  -5  -1    0.26    0.18
   0  -5  -1    0.05    0.16
   0  -5  -1    0.25    0.08
   0  -5  -1    0.14    0.11
   0   5   1    0.21    0.18
   0   5   1    0.28    0.21
   0   5   1    0.33    0.11
   0   5   1    0.19    0.07
   0   5   1    0.07    0.17
  -1  -5  -1    1.33    0.15
  -1  -5  -1    1.77    0.30
  -1  -5  -1    1.31    0.20
  -1  -5  -1    1.59    0.13
  -1  -5  -1    1.74    0.25
  -1  -5  -1    1.75    0.26
   1   5   1    1.85    0.27
   1   5   1    1.45    0.31
   1   5   1    1.57    0.24
   1   5   1    1.83    0.18
   1   5   1    1.65    0.28
  -2  -5  -1   41.65    1.96
  -2  -5  -1   39.13    1.98
  -2  -5  -1   44.54    1.96
  -2  -5  -1   40.80    2.02
  -2  -5  -1   40.42    1.94
   2   5   1   40.96    1.98
   2   5   1   40.76    2.12
   2   5   1   44.88    2.04
   2   5   1   40.22    1.95
   2   5   1   40.96    2.08
   2   5   1   38.69    2.01
  -3  -5  -1    7.82    0.58
  -3  -5  -1    7.24    0.52
  -3  -5  -1    7.32    0.51
  -3  -5  -1    7.91    0.60
  -3  -5  -1    6.97    0.47
   3   5   1    7.74    0.52
   3   5   1    7.58    0.68
   3   5   1    6.78    0.51
   3   5   1    7.99    0.57
   3   5   1    7.80    0.53
   3   5   1    6.98    0.60
   3   5   1    7.58    0.57
  -4  -5  -1    1.07    0.25
  -4  -5  -1    1.21    0.32
  -4  -5  -1    1.20    0.22
  -4  -5  -1    0.84    0.21
  -4  -5  -1    1.18    0.26
   4   5   1    1.18    0.23
   4   5   1    0.74    0.24
   4   5   1    1.23    0.20
   4   5   1    1.00    0.31
   4   5   1    1.04    0.30
   4   5   1    1.44    0.26
  -5  -5  -1    2.85    0.50
  -5  -5  -1    2.69    0.46
  -5  -5  -1    2.23    0.35
  -5  -5  -1    2.33    0.40
  -5  -5  -1    2.33    0.38
  -5  -5  -1    2.21    0.29
   5   5   1    2.69    0.30
   5   5   1    2.32    0.31
   5   5   1    2.96    0.35
   5   5   1    2.60    0.41
   5   5   1    3.21    0.47
   5   5   1    2.90    0.50
  -6  -5  -1    8.78    0.72
  -6  -5  -1    8.71    0.79
  -6  -5  -1    8.42    0.59
  -6  -5  -1    8.45    0.96
  -6  -5  -1    8.16    0.62
  -6  -5  -1    8.37    0.49
  -6  -5  -1    9.12    0.78
   6   5   1    8.87    0.90
   6   5   1    9.43    0.80
   6   5   1    9.15    0.82
   6   5   1    7.93    0.62
  -7  -5  -1   10.59    0.96
  -7  -5  -1   10.34    0.93
  -7  -5  -1   10.44    0.81
  -7  -5  -1   10.63    0.67
  -7  -5  -1   10.29    0.75
  -7  -5  -1   11.94    0.95
  -7  -5  -1    9.94    0.67
   7   5   1    9.61    0.90
   7   5   1    9.33    0.93
   7   5   1   10.61    0.71
   7   5   1   11.05    1.17
   7   5   1   10.32    0.73
  -8  -5  -1    0.67    0.30
  -8  -5  -1   -0.18    0.48
  -8  -5  -1    0.26    0.43
  -8  -5  -1    0.40    0.40
  -8  -5  -1    0.23    0.25
   8   5   1    0.51    0.44
   8   5   1    0.38    0.29
   8   5   1    0.21    0.31
   8   5   1   -0.54    0.39
  -9  -5  -1    0.83    0.61
  -9  -5  -1   -0.60    0.59
  -9  -5  -1    0.32    0.40
  -9  -5  -1   -0.44    0.28
   9   5   1    0.08    0.36
   9   5   1    0.52    0.53
   9   5   1   -0.10    0.53
 -10  -5  -1   -0.63    0.75
 -10  -5  -1   -0.16    0.32
 -10  -5  -1    0.49    0.79
  10   5   1   -0.35    0.64
  10   5   1    1.38    0.79
   7  -6  -1   -0.24    0.76
   7  -6  -1    2.52    0.99
  -7   6   1    0.09    1.08
  -7   6   1   -0.77    0.81
  -7   6   1   -0.56    0.95
   6  -6  -1    0.63    0.52
   6  -6  -1    0.79    0.69
   6  -6  -1    0.20    0.73
  -6   6   1   -0.30    0.77
   5  -6  -1   17.43    1.34
   5  -6  -1   16.05    1.37
   5  -6  -1   18.65    1.18
  -5   6   1   18.11    1.39
  -5   6   1   19.33    1.65
  -5   6   1   17.03    1.29
  -5   6   1   19.17    0.98
   4  -6  -1    1.44    0.36
   4  -6  -1    1.50    0.47
  -4   6   1    1.78    0.47
  -4   6   1    1.33    0.37
  -4   6   1    0.62    0.53
  -4   6   1    1.21    0.32
  -4   6   1    1.04    0.24
   3  -6  -1    1.98    0.38
   3  -6  -1    1.99    0.51
   3  -6  -1    2.34    0.28
   3  -6  -1    3.05    0.51
   3  -6  -1    1.80    0.57
  -3   6   1    2.62    0.34
  -3   6   1    2.93    0.32
  -3   6   1    2.82    0.42
  -3   6   1    2.70    0.57
  -3   6   1    1.96    0.45
   2  -6  -1    1.31    0.45
   2  -6  -1    0.45    0.16
   2  -6  -1    0.37    0.22
   2  -6  -1    0.25    0.29
   2  -6  -1    0.62    0.40
  -2   6   1    0.26    0.13
  -2   6   1    0.32    0.28
  -2   6   1    0.36    0.31
  -2   6   1    0.83    0.29
  -2   6   1    0.60    0.30
  -2   6   1    0.47    0.15
   1  -6  -1    5.23    0.64
   1  -6  -1    4.35    0.43
   1  -6  -1    4.56    0.50
   1  -6  -1    5.09    0.41
   1  -6  -1    4.61    0.58
  -1   6   1    5.38    0.30
  -1   6   1    5.29    0.58
  -1   6   1    5.10    0.56
  -1   6   1    4.67    0.37
  -1   6   1    4.22    0.59
  -1   6   1    4.75    0.53
   0  -6  -1    1.90    0.33
   0  -6  -1    1.50    0.30
   0  -6  -1    2.09    0.24
   0  -6  -1    2.31    0.23
   0  -6  -1    1.47    0.39
   0   6   1    2.02    0.27
   0   6   1    1.99    0.21
   0   6   1    2.25    0.36
   0   6   1    2.23    0.38
   0   6   1    1.90    0.36
   0   6   1    1.70    0.35
  -1  -6  -1   12.59    0.66
  -1  -6  -1   12.01    0.78
  -1  -6  -1   11.53    0.78
  -1  -6  -1   11.61    0.58
  -1  -6  -1   11.76    0.70
   1   6   1   11.49    0.88
   1   6   1   12.52    0.80
   1   6   1   12.57    0.75
   1   6   1   12.70    0.81
   1   6   1   12.26    0.69
   1   6   1   12.21    0.77
  -2  -6  -1    6.05    0.62
  -2  -6  -1    6.24    0.29
  -2  -6  -1    6.69    0.52
  -2  -6  -1    5.42    0.36
  -2  -6  -1    6.24    0.41
  -2  -6  -1    5.95    0.50
   2   6   1    7.27    0.55
   2   6   1    5.45    0.63
   2   6   1    6.67    0.53
   2   6   1    6.25    0.54
  -3  -6  -1    0.55    0.24
  -3  -6  -1    0.14    0.26
  -3  -6  -1    0.63    0.13
  -3  -6  -1    0.55    0.21
  -3  -6  -1    0.59    0.18
   3   6   1    0.55    0.27
   3   6   1    0.18    0.22
   3   6   1    0.84    0.25
   3   6   1    0.12    0.20
   3   6   1    1.06    0.33
   3   6   1    0.67    0.25
  -4  -6  -1   19.49    1.11
  -4  -6  -1   18.93    1.15
  -4  -6  -1   20.53    1.22
  -4  -6  -1   19.16    1.06
  -4  -6  -1   16.41    1.03
   4   6   1   21.03    1.27
   4   6   1   20.06    1.06
   4   6   1   18.33    1.23
   4   6   1   19.78    1.11
   4   6   1   19.00    1.08
   4   6   1   21.67    1.21
  -5  -6  -1    9.53    0.75
  -5  -6  -1    9.05    0.76
  -5  -6  -1    9.33    0.86
  -5  -6  -1   11.30    0.72
  -5  -6  -1    9.72    0.66
   5   6   1    8.59    0.83
   5   6   1   10.15    0.72
   5   6   1   10.07    0.69
   5   6   1    9.67    0.61
   5   6   1    8.72    0.69
   5   6   1    8.67    0.87
  -6  -6  -1    0.00    0.28
  -6  -6  -1    0.31    0.20
  -6  -6  -1    0.02    0.31
  -6  -6  -1    0.44    0.28
   6   6   1   -0.23    0.25
   6   6   1    0.55    0.46
   6   6   1    0.14    0.29
   6   6   1    0.36    0.39
   6   6   1   -0.11    0.24
  -7  -6  -1    3.36    0.61
  -7  -6  -1    4.82    0.66
  -7  -6  -1    3.50    0.45
  -7  -6  -1    2.06    0.47
  -7  -6  -1    3.29    0.57
   7   6   1    3.39    0.61
   7   6   1    4.39    0.56
   7   6   1    3.80    0.73
   7   6   1    3.76    0.43
  -8  -6  -1    0.23    0.28
  -8  -6  -1   -0.44    0.66
  -8  -6  -1   -0.20    0.42
  -8  -6  -1   -0.55    0.40
   8   6   1   -0.51    0.46
   8   6   1   -0.11    0.30
   8   6   1   -0.44    0.36
   8   6   1   -0.12    0.49
  -9  -6  -1   -0.19    0.64
  -9  -6  -1    0.93    0.59
   9   6   1    0.33    0.62
   9   6   1    0.63    0.64
 -10  -6  -1    2.14    0.91
 -10  -6  -1    2.57    0.89
 -10  -6  -1    2.12    0.37
  10   6   1    3.21    0.87
  10   6   1    1.12    0.74
   6  -7  -1    3.85    0.95
   6  -7  -1    2.22    0.71
   6  -7  -1    3.21    1.06
  -6   7   1    4.77    1.12
   5  -7  -1    0.39    0.69
   5  -7  -1    1.29    0.61
   5  -7  -1    0.08    0.47
  -5   7   1   -0.14    0.56
  -5   7   1    0.38    0.69
  -5   7   1    0.54    0.80
   4  -7  -1    0.66    0.57
   4  -7  -1    0.28    0.39
   4  -7  -1    1.21    0.45
   4  -7  -1    0.16    0.16
  -4   7   1    0.22    0.58
  -4   7   1    0.30    0.34
  -4   7   1   -0.21    0.47
  -4   7   1    0.37    0.60
  -4   7   1    0.58    0.33
   3  -7  -1    2.72    0.60
   3  -7  -1    3.64    0.37
   3  -7  -1    2.94    0.48
  -3   7   1    3.39    0.43
  -3   7   1    3.62    0.42
  -3   7   1    2.81    0.71
  -3   7   1    3.23    0.50
  -3   7   1    2.94    0.61
   2  -7  -1    0.64    0.54
   2  -7  -1    2.56    0.52
   2  -7  -1    1.96    0.28
   2  -7  -1    1.15    0.57
   2  -7  -1    1.18    0.34
  -2   7   1    1.34    0.46
  -2   7   1    1.42    0.25
  -2   7   1    2.22    0.54
  -2   7   1    1.98    0.45
  -2   7   1    1.70    0.22
  -2   7   1    2.30    0.44
   1  -7  -1    6.83    0.55
   1  -7  -1    7.31    0.59
   1  -7  -1    6.28    0.84
   1  -7  -1    6.73    0.72
   1  -7  -1    6.38    0.78
  -1   7   1    7.70    0.73
  -1   7   1    6.21    0.46
  -1   7   1    7.59    0.54
  -1   7   1    7.89    0.74
  -1   7   1    7.32    0.73
  -1   7   1    6.68    0.78
  -1   7   1    7.81    0.39
   0  -7  -1    0.05    0.26
   0  -7  -1   -0.14    0.31
   0  -7  -1    0.06    0.40
   0  -7  -1    0.25    0.25
   0  -7  -1    0.27    0.13
   0   7   1   -0.01    0.13
   0   7   1    0.22    0.31
   0   7   1    0.22    0.19
   0   7   1    0.45    0.30
   0   7   1   -0.27    0.29
   0   7   1    0.08    0.27
  -1  -7  -1    0.37    0.21
  -1  -7  -1    0.66    0.28
  -1  -7  -1    0.37    0.33
  -1  -7  -1    0.21    0.24
  -1  -7  -1    0.34    0.12
  -1  -7  -1    0.31    0.12
   1   7   1    0.59    0.23
   1   7   1    0.38    0.28
   1   7   1    0.37    0.33
   1   7   1    0.68    0.29
   1   7   1    0.44    0.16
   1   7   1    0.60    0.24
  -2  -7  -1   -0.44    0.20
  -2  -7  -1    0.19    0.25
  -2  -7  -1    0.03    0.10
  -2  -7  -1   -0.02    0.07
   2   7   1   -0.17    0.23
   2   7   1    0.02    0.17
   2   7   1   -0.07    0.24
   2   7   1    0.07    0.20
   2   7   1   -0.15    0.30
   2   7   1   -0.37    0.27
  -3  -7  -1    5.61    0.38
  -3  -7  -1    5.97    0.68
  -3  -7  -1    4.99    0.62
  -3  -7  -1    5.91    0.55
  -3  -7  -1    5.45    0.44
   3   7   1    6.75    0.62
   3   7   1    6.99    0.69
   3   7   1    6.09    0.59
   3   7   1    6.42    0.70
   3   7   1    5.47    0.57
   3   7   1    6.35    0.59
  -4  -7  -1   11.91    0.71
  -4  -7  -1   12.49    0.81
  -4  -7  -1   13.92    0.97
  -4  -7  -1   12.25    0.93
  -4  -7  -1   12.94    0.83
   4   7   1   12.33    0.86
   4   7   1   11.68    0.98
   4   7   1   11.57    0.86
   4   7   1   13.62    0.84
   4   7   1   12.82    0.98
   4   7   1   12.40    0.92
  -5  -7  -1   10.88    0.94
  -5  -7  -1   11.62    1.02
  -5  -7  -1   12.55    0.87
  -5  -7  -1   12.96    0.81
  -5  -7  -1   12.81    0.77
   5   7   1   10.10    1.03
   5   7   1   10.87    0.92
   5   7   1   11.69    1.00
   5   7   1   12.52    0.88
   5   7   1   12.27    0.77
  -6  -7  -1    4.71    0.53
  -6  -7  -1    5.10    0.62
  -6  -7  -1    4.91    0.63
  -6  -7  -1    4.14    0.57
  -6  -7  -1    3.93    0.51
   6   7   1    3.96    0.55
   6   7   1    4.89    0.64
   6   7   1    3.46    0.73
   6   7   1    4.74    0.74
   6   7   1    3.93    0.48
   6   7   1    4.21    0.46
  -7  -7  -1    0.88    0.46
  -7  -7  -1    1.13    0.31
  -7  -7  -1    0.90    0.45
  -7  -7  -1    0.53    0.36
  -7  -7  -1    0.35    0.46
   7   7   1    0.87    0.39
   7   7   1    0.22    0.64
  -8  -7  -1    2.17    0.59
  -8  -7  -1    4.26    0.77
  -8  -7  -1    3.53    0.66
   8   7   1    2.05    0.60
   8   7   1    2.25    0.67
   8   7   1    2.81    0.45
  -9  -7  -1   -0.33    0.58
  -9  -7  -1    0.36    0.34
  -9  -7  -1    0.59    0.58
   9   7   1   -0.57    0.54
   9   7   1    0.46    0.65
 -10  -7  -1   -0.44    0.36
 -10  -7  -1    0.49    0.82
 -10  -7  -1   -0.53    0.79
  10   7   1    1.82    0.86
  10   7   1    2.31    0.84
   5  -8  -1    1.93    1.01
   5  -8  -1    1.57    0.74
   5  -8  -1    0.98    0.63
  -5   8   1    1.14    0.95
  -5   8   1    2.36    0.79
   4  -8  -1    3.62    0.85
   4  -8  -1    3.67    0.73
  -4   8   1    3.50    0.88
  -4   8   1    3.87    0.81
  -4   8   1    4.06    0.56
   3  -8  -1   -0.17    0.23
   3  -8  -1    0.41    0.38
   3  -8  -1    0.63    0.59
   3  -8  -1    0.00    0.38
  -3   8   1    0.65    0.69
  -3   8   1    0.67    0.59
  -3   8   1    0.41    0.39
  -3   8   1   -0.19    0.52
  -3   8   1    0.27    0.26
   2  -8  -1    2.66    0.37
   2  -8  -1    1.84    0.43
   2  -8  -1    2.42    0.75
   2  -8  -1    2.04    0.54
  -2   8   1    3.01    0.51
  -2   8   1    2.03    0.24
  -2   8   1    2.69    0.70
   1  -8  -1   27.70    1.50
   1  -8  -1   27.71    1.63
   1  -8  -1   27.94    1.48
   1  -8  -1   25.02    1.76
   1  -8  -1   26.48    1.81
  -1   8   1   24.30    1.42
  -1   8   1   25.71    1.36
  -1   8   1   24.56    1.57
  -1   8   1   27.94    1.63
  -1   8   1   25.83    1.62
  -1   8   1   25.34    1.73
   0  -8  -1    4.37    0.61
   0  -8  -1    4.74    0.44
   0  -8  -1    4.63    0.50
   0  -8  -1    3.70    0.54
   0  -8  -1    4.83    0.73
   0   8   1    5.44    0.69
   0   8   1    4.89    0.63
   0   8   1    5.04    0.67
   0   8   1    3.95    0.56
   0   8   1    5.91    0.45
   0   8   1    5.64    0.73
  -1  -8  -1    1.87    0.37
  -1  -8  -1    1.79    0.43
  -1  -8  -1    2.58    0.55
  -1  -8  -1    2.08    0.27
   1   8   1    2.05    0.46
   1   8   1    1.27    0.42
   1   8   1    1.72    0.37
   1   8   1    2.05    0.51
   1   8   1    1.64    0.38
   1   8   1    1.39    0.27
  -2  -8  -1    2.53    0.44
  -2  -8  -1    3.09    0.57
  -2  -8  -1    2.31    0.27
  -2  -8  -1    2.10    0.44
   2   8   1    3.45    0.52
   2   8   1    3.13    0.49
   2   8   1    2.33    0.33
   2   8   1    2.18    0.47
   2   8   1    3.82    0.48
   2   8   1    2.63    0.49
  -3  -8  -1    3.54    0.35
  -3  -8  -1    5.39    0.59
  -3  -8  -1    5.35    0.68
  -3  -8  -1    4.15    0.63
   3   8   1    3.14    0.55
   3   8   1    3.65    0.48
   3   8   1    2.82    0.26
   3   8   1    3.99    0.53
   3   8   1    4.45    0.61
  -4  -8  -1    4.02    0.62
  -4  -8  -1    4.64    0.55
  -4  -8  -1    3.53    0.39
  -4  -8  -1    4.01    0.63
  -4  -8  -1    3.09    0.31
   4   8   1    3.53    0.62
   4   8   1    2.93    0.48
   4   8   1    3.95    0.52
   4   8   1    4.67    0.55
   4   8   1    3.40    0.49
  -5  -8  -1   -0.07    0.25
  -5  -8  -1    0.47    0.18
  -5  -8  -1   -0.15    0.22
  -5  -8  -1    0.25    0.29
  -5  -8  -1    0.24    0.45
   5   8   1    0.04    0.27
   5   8   1    0.33    0.44
   5   8   1    0.93    0.46
   5   8   1    0.49    0.36
  -6  -8  -1    0.18    0.37
  -6  -8  -1   -0.23    0.51
  -6  -8  -1   -0.20    0.29
  -6  -8  -1    0.02    0.31
  -6  -8  -1    0.00    0.23
   6   8   1    0.67    0.27
   6   8   1   -0.37    0.48
   6   8   1   -0.54    0.59
  -7  -8  -1   -0.10    0.53
  -7  -8  -1    0.11    0.30
  -7  -8  -1    0.27    0.49
  -7  -8  -1    0.20    0.31
  -7  -8  -1    0.03    0.40
   7   8   1    0.07    0.39
   7   8   1   -0.21    0.55
  -8  -8  -1    2.35    0.55
  -8  -8  -1    1.71    0.71
  -8  -8  -1    2.81    0.62
  -8  -8  -1    2.51    0.45
   8   8   1    2.71    0.77
  -9  -8  -1    1.99    0.71
  -9  -8  -1    2.26    0.62
  -9  -8  -1    1.99    0.46
   9   8   1    2.63    0.84
   4  -9  -1    0.75    0.87
   4  -9  -1   -0.95    0.60
  -4   9   1    0.94    0.92
  -4   9   1   -0.32    0.75
   3  -9  -1   -0.37    0.45
   3  -9  -1    0.37    0.75
   3  -9  -1    0.16    0.54
   3  -9  -1    0.01    0.29
  -3   9   1    0.41    0.51
  -3   9   1   -0.09    0.75
  -3   9   1   -0.83    0.66
   2  -9  -1   18.52    1.23
   2  -9  -1   17.42    1.14
   2  -9  -1   17.64    1.52
   2  -9  -1   18.43    1.29
  -2   9   1   20.28    1.59
  -2   9   1   15.53    1.32
  -2   9   1   17.01    0.86
  -2   9   1   18.58    1.43
   1  -9  -1    1.33    0.76
   1  -9  -1    1.57    0.40
   1  -9  -1    2.36    0.42
  -1   9   1    2.18    0.51
  -1   9   1    2.18    0.60
  -1   9   1    1.90    0.60
   0  -9  -1    2.83    0.80
   0  -9  -1    4.01    0.64
   0  -9  -1    4.26    0.58
   0  -9  -1    3.59    0.73
   0  -9  -1    3.83    0.48
   0   9   1    3.55    0.49
   0   9   1    2.35    0.57
   0   9   1    3.09    0.61
   0   9   1    3.52    0.64
  -1  -9  -1   -0.18    0.62
  -1  -9  -1    0.06    0.39
  -1  -9  -1    0.21    0.19
  -1  -9  -1    0.55    0.40
  -1  -9  -1    0.42    0.36
   1   9   1    0.46    0.29
   1   9   1    1.15    0.47
   1   9   1    0.31    0.43
   1   9   1    0.67    0.36
  -2  -9  -1    0.53    0.17
  -2  -9  -1    0.43    0.39
  -2  -9  -1    1.02    0.46
  -2  -9  -1    0.99    0.62
   2   9   1   -0.12    0.40
   2   9   1    1.01    0.36
   2   9   1    0.84    0.29
   2   9   1    0.90    0.44
  -3  -9  -1    0.49    0.55
  -3  -9  -1    0.29    0.47
   3   9   1   -0.01    0.37
   3   9   1   -0.50    0.46
   3   9   1   -0.09    0.40
   3   9   1    0.12    0.41
  -4  -9  -1    8.83    1.10
  -4  -9  -1    7.44    0.52
  -4  -9  -1    9.61    0.65
  -4  -9  -1    7.63    0.81
   4   9   1    9.88    0.91
   4   9   1    8.73    0.87
   4   9   1    9.05    1.09
   4   9   1    9.14    0.97
  -5  -9  -1    0.42    0.36
  -5  -9  -1   -0.03    0.57
  -5  -9  -1    0.48    0.18
  -5  -9  -1    0.78    0.25
  -5  -9  -1    0.82    0.27
   5   9   1    0.86    0.38
   5   9   1    0.34    0.55
   5   9   1    0.74    0.46
   5   9   1    0.88    0.57
  -6  -9  -1    0.50    0.31
  -6  -9  -1    0.40    0.67
  -6  -9  -1    0.72    0.24
  -6  -9  -1    0.94    0.41
   6   9   1   -0.49    0.60
   6   9   1   -0.01    0.47
   6   9   1   -0.07    0.70
   6   9   1    0.43    0.33
  -7  -9  -1    1.92    0.39
  -7  -9  -1    3.01    0.54
  -7  -9  -1    3.15    0.55
   7   9   1    3.90    0.85
   7   9   1    3.79    0.48
  -8  -9  -1    0.11    0.44
  -8  -9  -1   -0.47    0.46
  -8  -9  -1    0.02    0.41
   8   9   1    0.67    0.70
  -9  -9  -1   -0.31    0.52
  -9  -9  -1   -0.20    0.49
  -9  -9  -1    2.05    0.70
   9   9   1    0.00    0.89
   3 -10  -1   -0.80    0.67
   3 -10  -1    0.00    1.00
  -3  10   1    1.40    0.92
  -3  10   1   -1.10    0.95
   2 -10  -1    1.36    0.57
   2 -10  -1    0.47    0.53
   2 -10  -1    0.55    0.43
   2 -10  -1    2.37    0.79
  -2  10   1    0.92    0.63
  -2  10   1    1.24    0.82
  -2  10   1   -0.22    0.76
   1 -10  -1    2.61    0.55
   1 -10  -1    2.73    0.51
   1 -10  -1    1.88    0.79
   1 -10  -1    1.57    0.57
  -1  10   1    2.88    0.72
  -1  10   1    2.37    0.78
  -1  10   1    2.65    0.77
   0 -10  -1   14.27    1.38
   0 -10  -1   16.74    1.09
   0 -10  -1   16.10    1.22
   0 -10  -1   15.60    1.20
   0  10   1   17.25    1.38
   0  10   1   14.01    1.35
   0  10   1   15.30    1.39
  -1 -10  -1    1.00    0.53
  -1 -10  -1    0.62    0.25
  -1 -10  -1    0.14    0.43
  -1 -10  -1    0.28    0.51
   1  10   1    0.14    0.53
   1  10   1    0.82    0.45
   1  10   1   -0.21    0.42
  -2 -10  -1    4.41    0.47
  -2 -10  -1    4.22    0.70
  -2 -10  -1    3.47    0.92
  -2 -10  -1    4.44    0.67
  -2 -10  -1    3.73    0.64
   2  10   1    4.29    0.62
   2  10   1    4.32    0.61
   2  10   1    4.55    0.75
   2  10   1    4.54    0.76
  -3 -10  -1    1.32    0.25
  -3 -10  -1    1.69    0.87
  -3 -10  -1    1.83    0.55
   3  10   1   -0.04    0.51
   3  10   1    2.25    0.59
   3  10   1    0.85    0.53
   3  10   1    1.31    0.28
   3  10   1    1.77    0.61
  -4 -10  -1    0.14    0.20
  -4 -10  -1    0.46    0.42
  -4 -10  -1   -1.07    0.71
   4  10   1    0.21    0.57
   4  10   1    0.12    0.57
   4  10   1    0.21    0.50
   4  10   1    0.21    0.53
  -5 -10  -1    1.44    0.23
  -5 -10  -1    1.16    0.32
  -5 -10  -1    1.41    0.54
  -5 -10  -1    0.29    0.80
   5  10   1    1.29    0.67
   5  10   1    1.99    0.75
   5  10   1    2.40    0.60
   5  10   1    0.79    0.47
  -6 -10  -1    0.55    0.33
  -6 -10  -1    1.25    0.49
  -6 -10  -1    0.44    0.25
   6  10   1    0.65    0.56
   6  10   1    1.11    0.44
   6  10   1   -0.26    0.65
  -7 -10  -1    3.58    0.64
  -7 -10  -1    4.02    0.60
   7  10   1    3.49    0.92
  -8 -10  -1    0.00    0.48
  -8 -10  -1    0.56    0.57
  -8 -10  -1   -0.31    0.38
   8  10   1    1.29    0.89
   2 -11  -1    0.18    0.66
   2 -11  -1    1.16    0.69
   2 -11  -1    0.92    1.06
  -2  11   1    0.41    0.99
  -2  11   1    0.88    1.03
   1 -11  -1    0.72    0.54
   1 -11  -1    2.67    0.90
   1 -11  -1    0.66    0.55
  -1  11   1    1.81    0.85
  -1  11   1    1.37    0.88
  -1  11   1    0.83    0.81
   0 -11  -1    0.92    0.41
   0 -11  -1    1.40    0.83
   0 -11  -1    0.62    0.51
   0  11   1    0.84    0.71
   0  11   1    0.82    0.89
  -1 -11  -1   -0.44    0.49
  -1 -11  -1    0.30    0.35
  -1 -11  -1   -0.43    0.68
   1  11   1    1.10    0.73
   1  11   1    0.04    0.77
   1  11   1    0.49    0.55
  -2 -11  -1    0.13    0.55
  -2 -11  -1    0.04    0.29
  -2 -11  -1    0.10    0.65
   2  11   1    0.81    0.44
   2  11   1    0.24    0.71
   2  11   1    1.95    0.72
  -3 -11  -1   -0.90    0.56
  -3 -11  -1   -0.24    0.57
  -3 -11  -1   -1.06    1.10
  -3 -11  -1   -0.31    0.23
   3  11   1   -0.29    0.72
   3  11   1    0.33    0.70
  -4 -11  -1   -0.01    0.26
  -4 -11  -1   -0.16    0.58
  -4 -11  -1    0.42    0.63
   4  11   1    1.53    0.79
   4  11   1    0.25    0.64
   4  11   1   -0.56    0.65
  -5 -11  -1    0.15    0.29
  -5 -11  -1   -0.87    0.57
   5  11   1   -0.29    0.61
   5  11   1   -0.20    0.80
   5  11   1   -0.22    0.74
  -6 -11  -1    0.85    0.61
  -6 -11  -1    0.21    0.33
   6  11   1    1.12    0.57
   6  11   1   -1.78    0.75
  -7 -11  -1   -0.30    0.28
  -7 -11  -1   -0.16    0.40
  -7 -11  -1    0.13    0.62
   7  11   1   -0.30    0.86
   0 -12  -1   -1.30    0.54
   0 -12  -1   -0.68    0.67
   0 -12  -1    1.34    1.07
   0  12   1   -0.85    0.87
   0  12   1   -0.19    1.08
   0  12   1   -0.35    0.93
  -1 -12  -1    0.04    0.67
  -1 -12  -1   -0.38    0.42
  -1 -12  -1    0.62    0.89
   1  12   1    0.02    1.03
   1  12   1    0.14    0.93
  -2 -12  -1    0.32    0.69
  -2 -12  -1    0.74    0.38
  -2 -12  -1    0.75    0.86
   2  12   1    1.89    1.00
   2  12   1   -0.28    0.94
  -3 -12  -1   -0.09    0.35
  -3 -12  -1    0.54    0.75
  -3 -12  -1   -0.59    0.71
   3  12   1   -0.19    0.88
   3  12   1   -0.70    0.92
   3  12   1   -0.80    0.93
  -4 -12  -1    0.92    0.79
  -4 -12  -1    0.08    0.32
  -4 -12  -1   -0.99    0.79
   4  12   1    0.59    0.94
   4  12   1    0.30    0.97
   4  12   1    0.10    0.83
  -5 -12  -1    5.94    1.07
  -5 -12  -1    4.39    0.90
  -5 -12  -1    6.23    0.69
   5  12   1    3.10    1.03
  -6 -12  -1   -0.32    0.38
  -6 -12  -1   -1.20    0.91
  -6 -12  -1   -0.60    0.74
   6  12   1   -0.02    1.15
   3  12  -2    0.66    0.96
   3  12  -2   -1.36    1.01
  -3 -12   2    0.48    0.80
  -3 -12   2   -0.82    0.96
  -3 -12   2   -0.35    0.47
   2  12  -2    0.70    0.90
   2  12  -2   -2.24    1.01
  -2 -12   2   -0.51    1.02
  -2 -12   2    0.54    0.55
  -2 -12   2   -0.29    0.78
   6  11  -2    0.98    0.89
   6  11  -2    0.86    0.85
  -6 -11   2    1.22    0.39
  -6 -11   2    0.88    0.70
  -6 -11   2    1.79    0.85
   5  11  -2    0.17    0.78
   5  11  -2   -1.01    0.81
  -5 -11   2   -1.82    0.63
  -5 -11   2    0.23    0.73
  -5 -11   2   -0.11    0.31
   4  11  -2   -0.09    0.70
   4  11  -2    0.22    0.80
  -4 -11   2    0.98    0.71
  -4 -11   2    0.90    0.66
  -4 -11   2    0.39    0.32
   3  11  -2   -0.03    0.81
   3  11  -2    1.34    0.80
   3  11  -2    1.20    0.86
  -3 -11   2    0.51    0.73
  -3 -11   2    0.89    0.58
  -3 -11   2    0.63    0.36
   2  11  -2    3.19    0.90
   2  11  -2    4.03    0.87
   2  11  -2    4.91    1.05
  -2 -11   2    3.18    0.74
  -2 -11   2    4.66    0.88
  -2 -11   2    4.41    0.59
   1  11  -2    2.87    0.79
   1  11  -2    2.72    0.86
   1  11  -2    3.31    1.05
   1  11  -2    3.19    0.65
  -1 -11   2    3.01    0.74
  -1 -11   2    2.93    0.55
  -1 -11   2    3.74    0.98
   0  11  -2    0.47    0.96
   0  11  -2   -1.04    0.67
   0  11  -2    0.84    0.71
   0 -11   2   -0.21    0.61
   0 -11   2    1.14    0.57
   0 -11   2    0.54    0.84
  -1  11  -2    2.75    0.79
  -1  11  -2    0.34    0.84
  -1  11  -2    2.94    1.08
   1 -11   2    3.33    1.17
   1 -11   2    2.16    0.76
   1 -11   2    2.63    0.71
   7  10  -2    1.79    0.84
   7  10  -2    0.76    0.72
  -7 -10   2    0.31    0.37
  -7 -10   2    0.09    0.55
  -7 -10   2   -1.28    0.72
   6  10  -2    1.29    0.79
   6  10  -2    0.61    0.64
  -6 -10   2    0.24    0.28
  -6 -10   2    0.70    0.53
  -6 -10   2    1.50    0.71
   5  10  -2   -0.29    0.69
   5  10  -2   -1.29    0.59
  -5 -10   2   -0.23    0.26
  -5 -10   2    0.08    0.60
  -5 -10   2    0.02    0.48
   4  10  -2    3.01    0.72
   4  10  -2    2.99    0.74
   4  10  -2    2.47    0.75
  -4 -10   2    2.70    0.61
  -4 -10   2    3.56    0.71
  -4 -10   2    3.37    0.42
   3  10  -2    5.49    0.92
   3  10  -2    2.89    0.75
   3  10  -2    5.71    0.82
  -3 -10   2    4.34    0.47
  -3 -10   2    4.14    0.93
  -3 -10   2    3.77    0.69
  -3 -10   2    4.60    0.75
   2  10  -2    0.36    0.43
   2  10  -2    0.26    0.66
   2  10  -2    0.14    0.52
   2  10  -2    0.73    0.65
  -2 -10   2    0.22    0.28
  -2 -10   2   -0.09    0.50
  -2 -10   2   -0.19    0.56
  -2 -10   2    1.05    0.90
  -2 -10   2    0.16    0.57
   1  10  -2    0.42    0.65
   1  10  -2    0.02    0.72
   1  10  -2   -0.09    0.52
   1  10  -2   -0.06    0.45
   1  10  -2    1.12    0.40
  -1 -10   2    0.21    1.00
  -1 -10   2    0.53    0.32
  -1 -10   2   -0.50    0.69
  -1 -10   2    0.67    0.48
  -1 -10   2   -1.20    0.60
   0  10  -2    2.16    0.61
   0 -10   2    2.81    0.76
   0 -10   2    0.91    0.90
   0 -10   2    1.27    0.53
   0 -10   2    1.35    0.43
  -1  10  -2    1.18    0.64
  -1  10  -2    1.17    0.57
  -1  10  -2   -1.49    0.76
   1 -10   2    0.42    0.46
   1 -10   2    0.40    0.75
   1 -10   2    0.68    0.52
  -2  10  -2    0.05    0.52
  -2  10  -2    0.19    0.91
  -2  10  -2   -0.61    0.77
   2 -10   2    0.59    0.51
   2 -10   2    1.23    0.93
   2 -10   2   -0.10    0.61
   2 -10   2    0.52    0.56
  -3  10  -2    1.07    0.98
  -3  10  -2    3.35    1.10
   3 -10   2    0.86    0.60
   3 -10   2    0.79    0.73
   3 -10   2   -1.01    1.08
   8   9  -2    0.05    0.86
  -8  -9   2    2.72    0.87
  -8  -9   2    1.42    0.42
  -8  -9   2    1.33    0.49
   7   9  -2    0.51    0.63
   7   9  -2    2.04    0.77
  -7  -9   2    0.02    0.41
  -7  -9   2    0.48    0.24
  -7  -9   2    0.75    0.65
  -7  -9   2    0.63    0.36
   6   9  -2    0.21    0.56
   6   9  -2    0.25    0.65
  -6  -9   2    0.42    0.31
  -6  -9   2    0.68    0.18
  -6  -9   2    0.86    0.40
  -6  -9   2    0.21    0.54
   5   9  -2    0.49    0.56
   5   9  -2    0.34    0.51
   5   9  -2    0.39    0.46
  -5  -9   2    0.05    0.21
  -5  -9   2    0.58    0.39
  -5  -9   2    1.08    0.53
  -5  -9   2    1.08    0.61
   4   9  -2    3.57    0.70
   4   9  -2    2.91    0.67
   4   9  -2    3.58    0.59
   4   9  -2    3.97    0.49
  -4  -9   2    3.44    0.61
  -4  -9   2    3.27    0.41
  -4  -9   2    3.80    0.73
  -4  -9   2    3.51    0.56
   3   9  -2   16.10    1.22
   3   9  -2   14.26    1.23
   3   9  -2   14.55    1.33
   3   9  -2   16.58    1.04
  -3  -9   2   16.33    1.05
  -3  -9   2   16.83    1.27
  -3  -9   2   17.82    1.19
  -3  -9   2   15.10    1.34
  -3  -9   2   16.36    0.93
   2   9  -2    1.46    0.51
   2   9  -2    1.39    0.56
   2   9  -2    2.12    0.68
  -2  -9   2    1.25    0.67
  -2  -9   2    2.17    0.53
  -2  -9   2    1.69    0.29
  -2  -9   2    1.32    0.51
  -2  -9   2    2.36    0.53
   1   9  -2    3.51    0.64
   1   9  -2    2.40    0.65
   1   9  -2    3.57    0.50
   1   9  -2    3.99    0.53
  -1  -9   2    5.03    0.89
  -1  -9   2    1.72    0.56
  -1  -9   2    3.42    0.64
  -1  -9   2    3.94    0.48
   0   9  -2    0.47    0.45
   0   9  -2    0.40    0.45
   0   9  -2    0.47    0.24
   0   9  -2    2.01    0.60
   0  -9   2    0.09    0.29
   0  -9   2    0.19    0.51
   0  -9   2    0.44    0.42
   0  -9   2   -1.29    0.76
   0  -9   2    0.41    0.68
  -1   9  -2   -0.80    0.48
  -1   9  -2    0.19    0.23
  -1   9  -2    0.34    0.41
   1  -9   2   -0.44    0.54
   1  -9   2    0.20    0.37
   1  -9   2    0.51    0.40
  -2   9  -2    3.19    0.73
  -2   9  -2    2.47    0.51
  -2   9  -2    3.10    0.75
   2  -9   2    3.19    0.81
   2  -9   2    2.79    0.61
   2  -9   2    2.94    0.51
   2  -9   2    3.38    0.55
  -3   9  -2    1.33    0.77
  -3   9  -2    0.33    0.40
   3  -9   2   -0.56    0.79
   3  -9   2    0.82    0.54
   3  -9   2    0.48    0.46
  -4   9  -2    2.88    1.23
  -4   9  -2    1.48    1.03
  -4   9  -2    2.45    1.00
   4  -9   2    1.62    1.07
   4  -9   2    2.44    0.82
   9   8  -2   -0.68    0.85
  -9  -8   2   -0.49    0.54
  -9  -8   2    1.31    0.82
   8   8  -2    0.86    0.80
  -8  -8   2    1.54    0.44
  -8  -8   2    1.84    0.70
  -8  -8   2    1.15    0.46
   7   8  -2    6.04    0.75
   7   8  -2    4.40    0.78
   7   8  -2    4.63    0.50
  -7  -8   2    5.35    0.63
  -7  -8   2    5.48    0.81
  -7  -8   2    6.05    0.69
  -7  -8   2    4.34    0.54
   6   8  -2    1.63    0.61
   6   8  -2    0.71    0.35
   6   8  -2    0.36    0.44
  -6  -8   2    1.10    0.30
  -6  -8   2    0.66    0.32
  -6  -8   2    0.77    0.48
  -6  -8   2    0.92    0.22
  -6  -8   2    1.40    0.22
  -6  -8   2    0.56    0.48
   5   8  -2    0.86    0.45
   5   8  -2    0.56    0.42
   5   8  -2    0.48    0.35
   5   8  -2    1.07    0.39
  -5  -8   2    1.04    0.36
  -5  -8   2    0.88    0.15
  -5  -8   2    0.38    0.43
  -5  -8   2    0.64    0.45
  -5  -8   2    0.73    0.11
   4   8  -2    2.55    0.53
   4   8  -2    3.30    0.41
   4   8  -2    1.86    0.47
  -4  -8   2    2.46    0.46
  -4  -8   2    3.24    0.34
  -4  -8   2    2.74    0.54
   3   8  -2    5.91    0.77
   3   8  -2    4.65    0.60
   3   8  -2    5.42    0.78
   3   8  -2    5.31    0.54
  -3  -8   2    5.36    0.57
  -3  -8   2    4.51    0.67
  -3  -8   2    6.79    0.70
  -3  -8   2    5.72    0.75
  -3  -8   2    6.00    0.45
   2   8  -2    5.31    0.73
   2   8  -2    3.49    0.44
   2   8  -2    4.72    0.67
   2   8  -2    2.97    0.52
  -2  -8   2    4.94    0.62
  -2  -8   2    4.67    0.40
  -2  -8   2    3.84    0.59
  -2  -8   2    4.50    0.60
  -2  -8   2    4.75    0.69
  -2  -8   2    4.02    0.54
   1   8  -2   -0.03    0.26
   1   8  -2    0.10    0.36
   1   8  -2    0.47    0.38
  -1  -8   2    0.02    0.17
  -1  -8   2    0.07    0.49
  -1  -8   2   -0.53    0.39
  -1  -8   2    0.60    0.38
  -1  -8   2    0.13    0.29
   0   8  -2    0.18    0.34
   0   8  -2    0.62    0.42
   0   8  -2    0.25    0.16
   0   8  -2    0.39    0.36
   0  -8   2    0.44    0.42
   0  -8   2    0.41    0.52
   0  -8   2    0.43    0.23
   0  -8   2    0.32    0.29
   0  -8   2    0.60    0.53
  -1   8  -2    0.15    0.44
  -1   8  -2   -0.52    0.31
  -1   8  -2   -0.07    0.15
  -1   8  -2    0.04    0.42
   1  -8   2   -0.24    0.65
   1  -8   2    0.90    0.62
   1  -8   2   -0.37    0.29
   1  -8   2   -0.01    0.47
   1  -8   2   -0.10    0.26
  -2   8  -2    0.56    0.50
  -2   8  -2    0.42    0.19
  -2   8  -2    0.73    0.34
   2  -8   2    0.19    0.35
   2  -8   2    0.12    0.30
   2  -8   2    0.29    0.35
  -3   8  -2    0.00    0.60
  -3   8  -2    0.90    0.32
  -3   8  -2    0.59    0.31
   3  -8   2    0.07    0.37
   3  -8   2   -0.02    0.68
   3  -8   2    0.69    0.44
  -4   8  -2    0.39    0.72
  -4   8  -2   -0.22    0.72
   4  -8   2   -1.52    0.80
   4  -8   2    0.50    0.39
   4  -8   2    0.70    0.61
  -5   8  -2    0.00    1.10
  -5   8  -2   -0.13    0.88
  -5   8  -2   -1.01    0.86
   5  -8   2    0.47    1.05
   5  -8   2   -0.60    0.75
   9   7  -2   23.01    1.81
  -9  -7   2   22.50    1.66
  -9  -7   2   22.02    1.83
  -9  -7   2   21.85    1.61
   8   7  -2    0.82    0.63
  -8  -7   2    1.68    0.61
  -8  -7   2    0.14    0.57
  -8  -7   2    0.54    0.43
  -8  -7   2    0.23    0.43
   7   7  -2   -0.27    0.51
   7   7  -2   -0.48    0.41
  -7  -7   2   -0.28    0.21
  -7  -7   2    0.19    0.32
  -7  -7   2   -0.25    0.43
  -7  -7   2    0.61    0.33
  -7  -7   2    0.32    0.34
  -7  -7   2    0.63    0.37
   6   7  -2   -0.62    0.35
   6   7  -2    0.19    0.48
   6   7  -2    0.22    0.27
  -6  -7   2    0.08    0.26
  -6  -7   2   -0.06    0.24
  -6  -7   2    0.05    0.23
  -6  -7   2   -0.16    0.33
  -6  -7   2    0.01    0.21
   5   7  -2   10.95    0.97
   5   7  -2   11.22    0.76
   5   7  -2   13.86    0.88
   5   7  -2   10.75    0.92
  -5  -7   2   11.49    0.85
  -5  -7   2   10.53    0.98
  -5  -7   2   10.74    0.59
  -5  -7   2   11.47    0.65
  -5  -7   2   11.78    0.77
  -5  -7   2   11.20    0.76
   4   7  -2    5.65    0.56
   4   7  -2    4.66    0.64
   4   7  -2    5.10    0.54
   4   7  -2    4.74    0.63
   4   7  -2    5.38    0.69
   4   7  -2    5.10    0.55
  -4  -7   2    4.61    0.56
  -4  -7   2    5.69    0.44
  -4  -7   2    5.30    0.26
  -4  -7   2    5.76    0.36
  -4  -7   2    4.40    0.53
  -4  -7   2    4.92    0.67
  -4  -7   2    4.89    0.32
   3   7  -2    0.32    0.30
   3   7  -2    1.11    0.36
   3   7  -2    0.25    0.33
   3   7  -2    0.87    0.37
   3   7  -2    0.49    0.31
   3   7  -2    0.47    0.21
  -3  -7   2    0.41    0.14
  -3  -7   2    0.19    0.28
  -3  -7   2    0.52    0.22
  -3  -7   2    0.45    0.29
  -3  -7   2    0.17    0.35
  -3  -7   2    1.99    0.59
  -3  -7   2    0.27    0.32
   2   7  -2    0.97    0.36
   2   7  -2    0.23    0.27
   2   7  -2    0.87    0.21
   2   7  -2    0.53    0.39
   2   7  -2    0.24    0.27
   2   7  -2    0.61    0.33
  -2  -7   2    0.69    0.28
  -2  -7   2    0.16    0.41
  -2  -7   2    0.83    0.35
  -2  -7   2    0.90    0.31
  -2  -7   2    1.16    0.32
  -2  -7   2    0.55    0.15
  -2  -7   2    0.76    0.28
   1   7  -2   11.17    0.84
   1   7  -2   12.73    0.94
   1   7  -2   12.86    0.90
   1   7  -2   13.48    0.95
   1   7  -2   13.51    0.71
   1   7  -2   14.23    0.86
  -1  -7   2   12.52    0.98
  -1  -7   2   12.22    1.04
  -1  -7   2   12.75    0.92
  -1  -7   2   12.63    0.95
  -1  -7   2   11.79    0.73
  -1  -7   2   12.71    0.92
   0   7  -2    0.19    0.30
   0   7  -2    0.47    0.29
   0   7  -2    0.30    0.37
   0   7  -2    0.06    0.34
   0  -7   2    0.90    0.42
   0  -7   2    0.38    0.17
   0  -7   2    0.24    0.25
   0  -7   2    0.18    0.38
   0  -7   2    0.50    0.34
  -1   7  -2    4.56    0.28
  -1   7  -2    5.84    0.71
  -1   7  -2    4.78    0.56
  -1   7  -2    4.10    0.59
  -1   7  -2    4.44    0.65
   1  -7   2    3.44    0.68
   1  -7   2    5.52    0.75
   1  -7   2    4.36    0.63
   1  -7   2    4.82    0.54
   1  -7   2    4.70    0.50
  -2   7  -2    1.35    0.46
  -2   7  -2    0.97    0.44
  -2   7  -2    0.86    0.31
  -2   7  -2    0.52    0.48
  -2   7  -2    1.32    0.23
   2  -7   2    1.24    0.58
   2  -7   2    1.57    0.38
   2  -7   2    1.01    0.31
   2  -7   2    1.55    0.50
   2  -7   2    1.17    0.30
   2  -7   2    0.64    0.55
  -3   7  -2    2.75    0.35
  -3   7  -2    2.20    0.66
  -3   7  -2    3.02    0.42
   3  -7   2    2.78    0.52
   3  -7   2    2.07    0.66
   3  -7   2    1.91    0.39
  -4   7  -2    0.85    0.46
  -4   7  -2    0.52    0.60
  -4   7  -2    0.55    0.57
   4  -7   2    0.13    0.44
   4  -7   2   -0.41    0.62
   4  -7   2   -0.15    0.30
  -5   7  -2    0.50    0.77
  -5   7  -2   -1.45    0.81
  -5   7  -2    1.33    0.81
   5  -7   2    0.82    0.61
   5  -7   2    0.83    0.43
  -6   7  -2    0.82    0.92
  -6   7  -2   -0.64    0.81
  -6   7  -2   -0.16    1.11
   6  -7   2    2.16    1.05
   6  -7   2    0.69    0.88
   6  -7   2    1.25    0.90
   9   6  -2    1.92    0.68
  -9  -6   2    1.74    0.72
  -9  -6   2    1.94    0.67
  -9  -6   2    1.21    0.61
   8   6  -2    0.07    0.52
  -8  -6   2    0.48    0.45
  -8  -6   2    0.41    0.49
  -8  -6   2   -0.18    0.32
  -8  -6   2    0.38    0.49
  -8  -6   2    0.30    0.79
   7   6  -2    0.04    0.47
  -7  -6   2    0.29    0.57
  -7  -6   2    0.15    0.36
  -7  -6   2   -0.41    0.31
  -7  -6   2    0.37    0.39
  -7  -6   2   -0.32    0.43
   6   6  -2    4.75    0.32
   6   6  -2    5.10    0.72
   6   6  -2    4.83    0.31
   6   6  -2    4.43    0.58
  -6  -6   2    5.03    0.67
  -6  -6   2    3.23    0.75
  -6  -6   2    4.63    0.38
  -6  -6   2    5.46    0.57
  -6  -6   2    4.45    0.50
  -6  -6   2    4.37    0.34
  -6  -6   2    5.74    0.54
  -6  -6   2    5.07    0.40
   5   6  -2    6.17    0.76
   5   6  -2    7.42    0.70
   5   6  -2    6.92    0.50
   5   6  -2    7.12    0.51
  -5  -6   2    5.70    0.47
  -5  -6   2    7.65    0.92
  -5  -6   2    7.16    0.57
  -5  -6   2    6.52    0.51
  -5  -6   2    7.04    0.52
  -5  -6   2    7.92    0.42
  -5  -6   2    6.81    0.43
  -5  -6   2    6.13    0.56
  -5  -6   2    9.25    0.79
  -5  -6   2    7.13    0.93
   4   6  -2    0.55    0.26
   4   6  -2    0.79    0.34
   4   6  -2    0.68    0.32
   4   6  -2    0.97    0.22
   4   6  -2    0.48    0.23
   4   6  -2    0.98    0.24
  -4  -6   2    0.78    0.13
  -4  -6   2    0.29    0.26
  -4  -6   2    0.59    0.16
  -4  -6   2    1.22    0.38
  -4  -6   2    0.64    0.18
  -4  -6   2    0.70    0.13
  -4  -6   2    0.48    0.21
  -4  -6   2    1.49    0.49
  -4  -6   2    1.16    0.26
   3   6  -2    3.05    0.37
   3   6  -2    2.62    0.45
   3   6  -2    3.80    0.53
   3   6  -2    3.18    0.38
   3   6  -2    2.31    0.33
   3   6  -2    2.31    0.37
  -3  -6   2    2.92    0.45
  -3  -6   2    2.74    0.37
  -3  -6   2    2.51    0.27
  -3  -6   2    2.62    0.43
  -3  -6   2    2.81    0.19
  -3  -6   2    3.49    0.57
   2   6  -2    2.08    0.32
   2   6  -2    1.57    0.30
   2   6  -2    1.27    0.30
   2   6  -2    1.13    0.32
   2   6  -2    1.00    0.32
   2   6  -2    1.93    0.25
  -2  -6   2    1.59    0.29
  -2  -6   2    1.94    0.31
  -2  -6   2    1.50    0.19
  -2  -6   2    1.92    0.35
  -2  -6   2    1.46    0.43
  -2  -6   2    1.48    0.33
   1   6  -2    0.72    0.19
   1   6  -2    0.81    0.27
   1   6  -2    0.38    0.11
   1   6  -2    0.05    0.17
   1   6  -2    0.19    0.23
   1   6  -2    0.25    0.24
  -1  -6   2    0.64    0.23
  -1  -6   2   -0.01    0.34
  -1  -6   2    0.10    0.21
  -1  -6   2    0.13    0.27
  -1  -6   2    0.43    0.25
  -1  -6   2    0.22    0.11
   0   6  -2    6.34    0.60
   0   6  -2    6.15    0.44
   0   6  -2    5.31    0.57
   0   6  -2    6.61    0.37
   0   6  -2    6.50    0.58
   0   6  -2    5.64    0.59
   0  -6   2    6.17    0.61
   0  -6   2    6.46    0.56
   0  -6   2    6.96    0.48
   0  -6   2    7.46    0.71
   0  -6   2    5.76    0.68
   0  -6   2    6.41    0.62
  -1   6  -2    1.45    0.21
  -1   6  -2    0.81    0.33
  -1   6  -2    1.60    0.36
  -1   6  -2    1.47    0.18
  -1   6  -2    1.00    0.28
  -1   6  -2    1.32    0.38
   1  -6   2    1.43    0.41
   1  -6   2    1.65    0.30
   1  -6   2    1.01    0.26
   1  -6   2    1.36    0.39
   1  -6   2    1.83    0.40
  -2   6  -2    1.11    0.40
  -2   6  -2    0.65    0.37
  -2   6  -2    0.61    0.22
  -2   6  -2    0.90    0.21
  -2   6  -2    0.96    0.39
   2  -6   2    1.21    0.30
   2  -6   2    0.12    0.40
   2  -6   2    1.47    0.52
   2  -6   2    0.65    0.23
   2  -6   2    1.34    0.40
   2  -6   2    0.75    0.25
  -3   6  -2    0.10    0.17
  -3   6  -2   -0.14    0.42
  -3   6  -2    0.04    0.44
  -3   6  -2    0.63    0.28
   3  -6   2   -0.19    0.21
   3  -6   2   -0.17    0.41
   3  -6   2   -0.30    0.46
   3  -6   2    0.04    0.27
   3  -6   2   -0.46    0.58
  -4   6  -2    0.45    0.57
  -4   6  -2    1.27    0.54
  -4   6  -2    0.73    0.40
   4  -6   2    0.57    0.40
   4  -6   2    0.30    0.24
   4  -6   2    0.63    0.52
  -5   6  -2    1.52    0.72
  -5   6  -2    0.75    0.70
  -5   6  -2    2.87    0.64
  -5   6  -2    1.45    0.62
  -5   6  -2    2.09    0.72
   5  -6   2    1.33    0.66
   5  -6   2    0.37    0.50
   5  -6   2    2.23    0.42
  -6   6  -2    3.41    0.98
  -6   6  -2    3.07    1.16
  -6   6  -2    0.57    0.64
  -6   6  -2    3.29    0.89
   6  -6   2    2.24    0.86
   6  -6   2    3.01    0.81
   6  -6   2    1.38    0.70
  -7   6  -2   -0.07    0.93
  -7   6  -2    1.01    0.91
  -7   6  -2   -1.83    1.21
   7  -6   2    0.55    0.96
   7  -6   2    1.60    0.86
 -10  -5   2   -1.23    0.77
 -10  -5   2    1.76    0.92
 -10  -5   2    0.28    0.73
  -9  -5   2    0.78    0.66
  -9  -5   2    0.00    0.58
  -9  -5   2    0.09    0.62
  -9  -5   2   -0.01    0.58
   8   5  -2   -0.11    0.43
  -8  -5   2    0.23    0.43
  -8  -5   2    0.73    0.50
  -8  -5   2   -0.16    0.44
  -8  -5   2    0.13    0.43
  -8  -5   2    0.32    0.65
   7   5  -2    2.04    0.50
  -7  -5   2    2.11    0.46
  -7  -5   2    1.31    0.89
  -7  -5   2    2.25    0.48
  -7  -5   2    2.15    0.43
  -7  -5   2    2.38    0.46
  -7  -5   2    2.76    0.51
  -7  -5   2    2.41    0.63
   6   5  -2    2.50    0.44
   6   5  -2    2.51    0.50
  -6  -5   2    1.66    0.33
  -6  -5   2    2.02    0.23
  -6  -5   2    1.77    0.33
  -6  -5   2    1.93    0.39
  -6  -5   2    2.49    0.47
  -6  -5   2    0.96    0.55
  -6  -5   2    1.64    0.64
  -6  -5   2    1.87    0.59
  -6  -5   2    1.71    0.37
  -6  -5   2    1.98    0.18
   5   5  -2    1.84    0.22
   5   5  -2    1.90    0.36
   5   5  -2    1.28    0.37
  -5  -5   2    2.96    0.56
  -5  -5   2    1.87    0.46
  -5  -5   2    1.90    0.25
  -5  -5   2    2.01    0.29
  -5  -5   2    1.90    0.31
  -5  -5   2    1.42    0.39
  -5  -5   2    1.70    0.31
  -5  -5   2    2.22    0.52
  -5  -5   2    2.16    0.29
  -5  -5   2    1.77    0.23
  -5  -5   2    1.64    0.36
   4   5  -2   11.11    0.80
   4   5  -2   10.75    0.71
   4   5  -2   11.33    0.83
   4   5  -2   11.82    0.63
   4   5  -2   11.48    0.64
   4   5  -2   10.90    0.84
  -4  -5   2   10.88    0.65
  -4  -5   2   11.54    0.64
  -4  -5   2   11.03    0.59
  -4  -5   2   10.72    0.68
  -4  -5   2   11.55    0.86
  -4  -5   2   12.48    0.72
  -4  -5   2   10.40    0.99
   3   5  -2    0.31    0.15
   3   5  -2    0.39    0.16
   3   5  -2    0.71    0.22
   3   5  -2    0.34    0.23
   3   5  -2    0.19    0.21
   3   5  -2    0.39    0.18
  -3  -5   2    0.08    0.34
  -3  -5   2    0.54    0.17
  -3  -5   2    0.14    0.08
  -3  -5   2    0.48    0.23
  -3  -5   2    0.36    0.17
  -3  -5   2    0.34    0.22
  -3  -5   2    0.43    0.08
  -3  -5   2    0.10    0.13
  -3  -5   2    0.24    0.12
   2   5  -2    5.78    0.53
   2   5  -2    5.66    0.47
   2   5  -2    5.46    0.36
   2   5  -2    5.36    0.57
   2   5  -2    5.06    0.42
   2   5  -2    5.34    0.44
  -2  -5   2    5.40    0.44
  -2  -5   2    5.21    0.45
  -2  -5   2    5.41    0.58
  -2  -5   2    5.42    0.35
  -2  -5   2    5.92    0.46
  -2  -5   2    5.61    0.50
   1   5  -2    0.90    0.20
   1   5  -2    0.43    0.20
   1   5  -2    0.98    0.26
   1   5  -2    0.83    0.11
   1   5  -2    0.41    0.17
   1   5  -2    1.03    0.19
   1   5  -2    0.91    0.29
  -1  -5   2    0.57    0.23
  -1  -5   2    1.15    0.26
  -1  -5   2    0.81    0.13
  -1  -5   2    0.59    0.20
  -1  -5   2    0.81    0.23
  -1  -5   2    0.94    0.30
   0   5  -2    1.64    0.30
   0   5  -2    1.35    0.29
   0   5  -2    1.71    0.14
   0   5  -2    1.95    0.14
   0   5  -2    1.83    0.31
   0   5  -2    1.58    0.20
   0   5  -2    1.69    0.29
   0  -5   2    1.65    0.36
   0  -5   2    1.74    0.21
   0  -5   2    1.92    0.34
   0  -5   2    1.27    0.25
   0  -5   2    1.59    0.34
   0  -5   2    1.69    0.31
  -1   5  -2    4.21    0.50
  -1   5  -2    4.20    0.32
  -1   5  -2    4.69    0.51
  -1   5  -2    5.10    0.53
  -1   5  -2    4.46    0.43
  -1   5  -2    4.91    0.33
   1  -5   2    4.80    0.40
   1  -5   2    4.22    0.59
   1  -5   2    3.96    0.51
   1  -5   2    4.33    0.43
   1  -5   2    5.26    0.55
  -2   5  -2    0.52    0.27
  -2   5  -2    0.90    0.20
  -2   5  -2    0.69    0.14
  -2   5  -2    0.66    0.31
  -2   5  -2    0.46    0.29
  -2   5  -2    0.44    0.18
   2  -5   2    0.41    0.17
   2  -5   2    0.41    0.32
   2  -5   2    0.29    0.34
   2  -5   2    0.31    0.18
   2  -5   2    0.67    0.24
   2  -5   2    0.55    0.30
  -3   5  -2    2.33    0.32
  -3   5  -2    2.91    0.48
  -3   5  -2    2.69    0.54
  -3   5  -2    2.47    0.36
   3  -5   2    2.03    0.43
   3  -5   2    2.55    0.37
   3  -5   2    2.75    0.35
   3  -5   2    2.03    0.45
   3  -5   2    2.87    0.59
  -4   5  -2    0.06    0.43
  -4   5  -2    0.78    0.35
  -4   5  -2    0.74    0.45
  -4   5  -2    0.30    0.22
  -4   5  -2    0.52    0.38
  -4   5  -2   -0.37    0.37
   4  -5   2   -0.07    0.32
   4  -5   2    0.62    0.48
   4  -5   2    0.25    0.62
   4  -5   2    0.22    0.42
   4  -5   2    0.50    0.23
  -5   5  -2    2.98    0.69
  -5   5  -2    4.18    0.79
  -5   5  -2    3.31    0.57
  -5   5  -2    3.03    0.61
  -5   5  -2    2.94    0.64
   5  -5   2    3.35    0.44
   5  -5   2    2.38    0.58
   5  -5   2    2.49    0.69
  -6   5  -2    0.50    0.71
  -6   5  -2    0.22    0.61
  -6   5  -2   -0.43    0.71
  -6   5  -2    0.86    0.57
   6  -5   2   -0.01    0.34
   6  -5   2   -1.31    0.54
   6  -5   2   -0.28    0.68
  -7   5  -2    2.42    0.92
  -7   5  -2    2.60    1.11
  -7   5  -2    1.72    0.76
   7  -5   2    2.76    0.77
   7  -5   2    1.22    0.97
   7  -5   2    0.86    0.85
  -8   5  -2    0.36    1.30
  -8   5  -2    0.97    1.13
  -8   5  -2   -0.27    0.88
   8  -5   2    2.59    1.10
   8  -5   2    1.37    1.01
 -10  -4   2    1.54    0.82
 -10  -4   2    1.65    0.98
   9   4  -2    1.16    0.53
  -9  -4   2    2.38    0.72
  -9  -4   2    1.11    0.56
  -9  -4   2    2.51    0.68
  -9  -4   2    2.25    0.68
   8   4  -2    3.33    0.54
  -8  -4   2    2.99    0.55
  -8  -4   2    3.94    0.79
  -8  -4   2    4.12    0.67
  -8  -4   2    4.17    0.67
  -8  -4   2    3.75    0.73
   7   4  -2    0.98    0.37
   7   4  -2    0.24    0.35
  -7  -4   2    0.63    0.35
  -7  -4   2    0.50    0.37
  -7  -4   2    0.17    0.33
  -7  -4   2    0.40    0.42
  -7  -4   2    1.34    0.54
  -7  -4   2    0.47    0.63
  -7  -4   2    0.35    0.39
   6   4  -2    1.25    0.34
  -6  -4   2    1.25    0.36
  -6  -4   2    1.41    0.49
  -6  -4   2    0.71    0.53
  -6  -4   2    1.01    0.35
  -6  -4   2    1.40    0.34
  -6  -4   2    1.40    0.30
  -6  -4   2    0.89    0.52
  -6  -4   2    1.00    0.35
  -6  -4   2    0.98    0.42
   5   4  -2    0.15    0.24
   5   4  -2    0.03    0.21
  -5  -4   2    0.32    0.34
  -5  -4   2   -0.07    0.19
  -5  -4   2    0.07    0.20
  -5  -4   2    0.16    0.08
  -5  -4   2    0.00    0.25
  -5  -4   2    0.18    0.23
  -5  -4   2    0.01    0.22
  -5  -4   2   -0.14    0.34
  -5  -4   2   -0.10    0.11
  -5  -4   2   -0.13    0.33
  -5  -4   2   -0.17    0.18
   4   4  -2    0.44    0.10
   4   4  -2    0.14    0.19
   4   4  -2    0.46    0.24
  -4  -4   2    0.41    0.12
  -4  -4   2    0.17    0.17
  -4  -4   2    0.39    0.14
  -4  -4   2    0.07    0.14
  -4  -4   2    0.00    0.16
  -4  -4   2    0.56    0.26
  -4  -4   2    0.80    0.28
  -4  -4   2    0.62    0.28
  -4  -4   2    0.50    0.28
  -4  -4   2    0.24    0.22
  -4  -4   2    0.43    0.14
   3   4  -2    0.06    0.12
   3   4  -2    0.11    0.10
   3   4  -2    0.11    0.16
   3   4  -2   -0.03    0.18
  -3  -4   2    0.13    0.11
  -3  -4   2    0.02    0.11
  -3  -4   2    0.06    0.17
  -3  -4   2   -0.16    0.23
  -3  -4   2    0.15    0.20
  -3  -4   2    0.12    0.10
  -3  -4   2    0.06    0.21
  -3  -4   2    0.11    0.10
  -3  -4   2    0.15    0.08
   2   4  -2   22.36    1.10
   2   4  -2   22.05    1.10
   2   4  -2   21.56    1.23
   2   4  -2   22.17    1.12
   2   4  -2   24.68    1.29
   2   4  -2   22.82    1.19
  -2  -4   2   22.65    1.11
  -2  -4   2   22.15    1.13
  -2  -4   2   23.34    1.05
  -2  -4   2   22.08    0.96
  -2  -4   2   22.87    1.27
  -2  -4   2   21.84    1.26
  -2  -4   2   22.43    1.13
   1   4  -2    0.56    0.22
   1   4  -2    0.65    0.09
   1   4  -2    0.69    0.13
   1   4  -2    0.64    0.07
   1   4  -2    0.41    0.19
   1   4  -2    0.60    0.15
  -1  -4   2    1.10    0.24
  -1  -4   2    0.76    0.19
  -1  -4   2    0.83    0.11
  -1  -4   2    0.88    0.19
  -1  -4   2    0.65    0.18
  -1  -4   2    0.34    0.16
   0   4  -2    4.58    0.44
   0   4  -2    6.02    0.45
   0   4  -2    6.13    0.48
   0  -4   2    6.15    0.45
   0  -4   2    5.18    0.49
   0  -4   2    5.84    0.46
   0  -4   2    6.35    0.48
   0  -4   2    5.64    0.49
   0  -4   2    6.02    0.37
  -1   4  -2    0.05    0.15
  -1   4  -2    0.17    0.19
  -1   4  -2    0.07    0.08
  -1   4  -2    0.20    0.18
  -1   4  -2    0.00    0.12
  -1   4  -2   -0.19    0.17
   1  -4   2    0.22    0.21
   1  -4   2    0.02    0.18
   1  -4   2   -0.04    0.21
   1  -4   2    0.18    0.13
   1  -4   2    0.18    0.18
   1  -4   2    0.00    0.12
  -2   4  -2    0.12    0.09
  -2   4  -2    0.47    0.19
  -2   4  -2    0.30    0.22
  -2   4  -2   -0.08    0.21
  -2   4  -2    0.02    0.24
  -2   4  -2   -0.03    0.12
   2  -4   2    0.11    0.16
   2  -4   2    0.13    0.13
   2  -4   2    0.29    0.30
   2  -4   2    0.46    0.25
   2  -4   2    0.05    0.14
   2  -4   2   -0.10    0.21
  -3   4  -2    4.76    0.61
  -3   4  -2    6.05    0.52
  -3   4  -2    6.01    0.49
  -3   4  -2    6.00    0.44
  -3   4  -2    6.05    0.61
  -3   4  -2    7.04    0.65
   3  -4   2    7.63    0.51
   3  -4   2    5.59    0.63
   3  -4   2    6.06    0.55
   3  -4   2    5.13    0.74
   3  -4   2    5.52    0.65
  -4   4  -2    3.70    0.62
  -4   4  -2    3.95    0.46
  -4   4  -2    4.65    0.57
  -4   4  -2    4.17    0.53
  -4   4  -2    4.38    0.44
  -4   4  -2    4.29    0.57
  -4   4  -2    4.05    0.64
   4  -4   2    3.90    0.44
   4  -4   2    4.15    0.71
   4  -4   2    4.35    0.55
   4  -4   2    5.43    0.66
   4  -4   2    3.63    0.54
  -5   4  -2    0.77    0.49
  -5   4  -2    0.71    0.31
  -5   4  -2    0.55    0.26
  -5   4  -2   -0.04    0.44
  -5   4  -2    0.86    0.43
  -5   4  -2    0.62    0.43
  -5   4  -2    0.47    0.39
   5  -4   2    0.49    0.26
   5  -4   2    0.26    0.40
   5  -4   2    0.46    0.45
  -6   4  -2    0.79    0.55
  -6   4  -2    1.61    0.60
  -6   4  -2    1.42    0.54
  -6   4  -2    1.56    0.32
  -6   4  -2    2.38    0.71
   6  -4   2    1.46    0.54
   6  -4   2    1.54    0.61
  -7   4  -2    2.92    0.81
  -7   4  -2    5.01    0.82
  -7   4  -2    5.55    1.03
  -7   4  -2    2.98    0.86
   7  -4   2    4.87    0.85
   7  -4   2    4.86    0.81
   7  -4   2    2.97    0.90
  -8   4  -2    1.08    0.73
  -8   4  -2    0.28    0.86
  -8   4  -2   -0.74    1.05
   8  -4   2   -0.45    0.85
   8  -4   2   -0.10    0.84
  10   3  -2   -0.21    0.70
 -10  -3   2    0.80    0.87
 -10  -3   2    1.03    0.95
 -10  -3   2   -0.50    1.02
   9   3  -2    0.31    0.54
  -9  -3   2    0.13    0.68
  -9  -3   2    0.79    0.46
  -9  -3   2    0.23    0.57
  -9  -3   2    0.53    0.73
   8   3  -2    1.42    0.44
  -8  -3   2    0.81    0.50
  -8  -3   2    0.29    0.58
  -8  -3   2    0.35    0.51
  -8  -3   2    0.48    0.63
  -8  -3   2    0.68    0.70
  -8  -3   2    1.11    0.39
   7   3  -2    0.18    0.32
  -7  -3   2    0.58    0.37
  -7  -3   2    0.02    0.55
  -7  -3   2   -0.20    0.42
  -7  -3   2    0.50    0.30
  -7  -3   2   -0.48    0.34
  -7  -3   2    0.11    0.43
  -7  -3   2   -0.24    0.43
  -7  -3   2   -0.86    0.59
   6   3  -2   11.73    0.84
   6   3  -2   10.88    0.80
  -6  -3   2   11.74    0.96
  -6  -3   2   10.57    0.95
  -6  -3   2   12.87    0.90
  -6  -3   2   11.48    0.85
  -6  -3   2   12.29    1.03
  -6  -3   2   12.93    0.93
  -6  -3   2   11.11    0.81
  -6  -3   2   11.89    0.89
  -6  -3   2   10.81    0.92
   5   3  -2    0.65    0.26
   5   3  -2    0.48    0.25
  -5  -3   2    0.69    0.23
  -5  -3   2    0.34    0.31
  -5  -3   2    0.88    0.28
  -5  -3   2    0.85    0.26
  -5  -3   2    0.72    0.23
  -5  -3   2    0.38    0.21
  -5  -3   2    0.94    0.32
  -5  -3   2    0.40    0.33
  -5  -3   2    0.19    0.35
   4   3  -2    2.91    0.38
   4   3  -2    2.69    0.36
  -4  -3   2    3.16    0.43
  -4  -3   2    3.16    0.38
  -4  -3   2    3.19    0.38
  -4  -3   2    3.30    0.36
  -4  -3   2    2.81    0.31
  -4  -3   2    3.25    0.18
  -4  -3   2    2.78    0.36
  -4  -3   2    3.27    0.42
  -4  -3   2    3.54    0.46
   3   3  -2   23.08    1.02
   3   3  -2   23.57    1.23
   3   3  -2   22.28    1.21
   3   3  -2   22.97    1.02
   3   3  -2   23.32    1.23
  -3  -3   2   23.54    1.21
  -3  -3   2   24.59    1.17
  -3  -3   2   22.12    1.24
  -3  -3   2   18.51    1.20
  -3  -3   2   20.65    1.15
  -3  -3   2   23.04    1.03
  -3  -3   2   21.40    1.03
  -3  -3   2   22.39    1.04
   2   3  -2    1.40    0.24
   2   3  -2    1.71    0.23
   2   3  -2    2.06    0.19
   2   3  -2    1.99    0.21
   2   3  -2    2.35    0.31
  -2  -3   2    1.85    0.21
  -2  -3   2    2.20    0.24
  -2  -3   2    2.10    0.15
  -2  -3   2    1.98    0.30
  -2  -3   2    2.40    0.30
  -2  -3   2    1.80    0.21
  -2  -3   2    2.26    0.28
  -2  -3   2    2.36    0.19
  -2  -3   2    2.04    0.20
  -2  -3   2    2.09    0.14
   1   3  -2    0.66    0.18
   1   3  -2    0.98    0.16
   1   3  -2    0.76    0.19
   1   3  -2    0.83    0.09
   1   3  -2    0.79    0.12
   1   3  -2    0.81    0.15
   1   3  -2    0.83    0.08
  -1  -3   2    0.81    0.10
  -1  -3   2    0.75    0.17
  -1  -3   2    1.09    0.18
  -1  -3   2    0.79    0.20
  -1  -3   2    0.65    0.15
  -1  -3   2    0.63    0.14
   0   3  -2   35.22    1.73
   0   3  -2   33.44    1.59
   0   3  -2   32.62    1.60
   0   3  -2   32.90    1.70
   0   3  -2   33.61    1.62
   0   3  -2   33.16    1.57
   0  -3   2   34.53    1.65
   0  -3   2   34.01    1.59
   0  -3   2   32.02    1.58
   0  -3   2   29.98    1.72
   0  -3   2   34.60    1.70
   0  -3   2   34.84    1.61
  -1   3  -2    5.71    0.38
  -1   3  -2    4.65    0.45
  -1   3  -2    5.69    0.41
  -1   3  -2    5.68    0.43
  -1   3  -2    5.61    0.44
  -1   3  -2    5.50    0.33
   1  -3   2    5.43    0.40
   1  -3   2    5.81    0.39
   1  -3   2    6.07    0.40
   1  -3   2    5.21    0.44
   1  -3   2    5.73    0.44
   1  -3   2    5.33    0.50
  -2   3  -2    7.72    0.47
  -2   3  -2    7.88    0.43
  -2   3  -2    7.72    0.57
  -2   3  -2    7.79    0.51
  -2   3  -2    8.63    0.67
  -2   3  -2    7.74    0.60
   2  -3   2    6.83    0.58
   2  -3   2    8.02    0.47
   2  -3   2    7.54    0.50
   2  -3   2    7.94    0.50
   2  -3   2    6.82    0.53
   2  -3   2    8.06    0.71
  -3   3  -2    1.94    0.34
  -3   3  -2    2.32    0.28
  -3   3  -2    2.24    0.29
  -3   3  -2    1.79    0.37
  -3   3  -2    2.30    0.36
  -3   3  -2    2.55    0.38
   3  -3   2    2.33    0.42
   3  -3   2    1.82    0.26
   3  -3   2    3.15    0.40
   3  -3   2    2.26    0.32
   3  -3   2    2.37    0.39
  -4   3  -2    0.23    0.16
  -4   3  -2    0.30    0.32
  -4   3  -2    0.11    0.19
  -4   3  -2   -0.21    0.23
  -4   3  -2    0.01    0.30
   4  -3   2   -0.41    0.26
   4  -3   2   -0.10    0.29
   4  -3   2    0.23    0.23
   4  -3   2    0.18    0.18
   4  -3   2    0.08    0.39
  -5   3  -2    0.21    0.37
  -5   3  -2    0.13    0.26
  -5   3  -2    0.24    0.33
  -5   3  -2    0.38    0.20
  -5   3  -2    0.27    0.33
  -5   3  -2    0.53    0.36
  -5   3  -2    0.76    0.43
   5  -3   2    0.27    0.42
   5  -3   2    0.05    0.22
   5  -3   2    0.00    0.29
  -6   3  -2    6.43    0.54
  -6   3  -2    6.70    0.91
  -6   3  -2    5.87    0.90
  -6   3  -2    6.74    0.81
   6  -3   2    5.83    0.76
   6  -3   2    6.24    0.82
   6  -3   2    7.22    0.95
  -7   3  -2    2.22    0.35
  -7   3  -2    2.05    0.62
  -7   3  -2    3.16    0.67
  -7   3  -2    2.29    0.74
  -7   3  -2    4.37    0.93
   7  -3   2    2.39    0.65
   7  -3   2    2.52    0.71
  -8   3  -2    1.08    0.91
  -8   3  -2   -0.28    0.69
  -8   3  -2    2.23    0.88
   8  -3   2    1.73    0.87
   8  -3   2    3.06    0.80
   8  -3   2    0.81    0.90
  -9   3  -2    4.49    1.45
  -9   3  -2    5.54    1.24
  -9   3  -2    5.32    1.02
   9  -3   2    4.13    1.20
   9  -3   2    6.60    1.17
  10   2  -2    1.07    0.77
 -10  -2   2    3.23    1.05
 -10  -2   2    0.34    0.87
 -10  -2   2    2.03    1.13
   9   2  -2   -0.08    0.54
  -9  -2   2    0.96    0.62
  -9  -2   2    1.23    0.83
  -9  -2   2    0.27    0.39
  -8  -2   2    0.36    0.47
  -8  -2   2    1.39    0.57
  -8  -2   2    1.29    0.35
  -8  -2   2   -0.09    0.64
  -8  -2   2    1.60    0.69
   7   2  -2    1.32    0.42
  -7  -2   2    0.98    0.58
  -7  -2   2    0.88    0.40
  -7  -2   2    0.67    0.45
  -7  -2   2    1.03    0.43
  -7  -2   2    0.91    0.47
  -7  -2   2    0.84    0.48
  -7  -2   2    0.96    0.30
   6   2  -2    0.07    0.25
  -6  -2   2    0.52    0.27
  -6  -2   2    0.38    0.33
  -6  -2   2    0.45    0.36
  -6  -2   2    0.30    0.22
  -6  -2   2    0.52    0.44
  -6  -2   2    0.62    0.40
  -6  -2   2    0.05    0.29
  -6  -2   2   -0.36    0.35
  -6  -2   2    0.53    0.33
   5   2  -2    3.26    0.39
   5   2  -2    3.22    0.41
  -5  -2   2    4.39    0.54
  -5  -2   2    3.64    0.51
  -5  -2   2    3.79    0.48
  -5  -2   2    3.03    0.48
  -5  -2   2    3.22    0.44
  -5  -2   2    4.27    0.51
  -5  -2   2    3.51    0.48
  -5  -2   2    3.16    0.38
  -5  -2   2    3.61    0.42
   4   2  -2    0.11    0.17
   4   2  -2    0.11    0.16
  -4  -2   2    0.09    0.17
  -4  -2   2    0.22    0.16
  -4  -2   2    0.07    0.19
  -4  -2   2    0.27    0.16
  -4  -2   2    0.30    0.24
  -4  -2   2    0.28    0.21
   3   2  -2    1.95    0.28
   3   2  -2    1.46    0.24
   3   2  -2    1.70    0.23
  -3  -2   2    2.18    0.29
  -3  -2   2    1.38    0.20
  -3  -2   2    1.83    0.27
  -3  -2   2    1.91    0.28
  -3  -2   2    1.78    0.21
  -3  -2   2    1.45    0.24
  -3  -2   2    1.58    0.23
  -3  -2   2    1.57    0.26
   2   2  -2    1.95    0.21
   2   2  -2    1.98    0.27
   2   2  -2    2.13    0.15
   2   2  -2    2.38    0.26
   2   2  -2    1.96    0.22
   2   2  -2    2.02    0.16
  -2  -2   2    2.23    0.17
  -2  -2   2    2.35    0.20
  -2  -2   2    2.19    0.25
  -2  -2   2    2.12    0.18
  -2  -2   2    2.74    0.28
  -2  -2   2    2.04    0.16
  -2  -2   2    2.25    0.28
  -2  -2   2    2.18    0.20
  -2  -2   2    2.29    0.24
  -2  -2   2    2.25    0.25
   1   2  -2    2.85    0.26
   1   2  -2    2.85    0.22
   1   2  -2    3.08    0.18
   1   2  -2    2.76    0.22
   1   2  -2    2.89    0.29
   1   2  -2    2.43    0.25
   1   2  -2    2.70    0.20
  -1  -2   2    2.77    0.25
  -1  -2   2    3.09    0.29
  -1  -2   2    3.04    0.31
  -1  -2   2    3.08    0.22
  -1  -2   2    3.07    0.24
  -1  -2   2    2.69    0.18
  -1  -2   2    3.52    0.25
   0   2  -2   28.37    1.43
   0   2  -2   30.36    1.46
   0   2  -2   30.48    1.44
   0   2  -2   28.41    1.56
   0   2  -2   27.37    1.55
   0   2  -2   31.30    1.45
   0   2  -2   29.62    1.55
   0   2  -2   31.62    1.45
   0  -2   2   33.78    1.56
   0  -2   2   31.18    1.45
   0  -2   2   34.91    1.46
   0  -2   2   31.36    1.46
   0  -2   2   32.23    1.59
   0  -2   2   31.22    1.48
  -1   2  -2   65.15    2.98
  -1   2  -2   66.66    2.99
  -1   2  -2   66.26    2.98
  -1   2  -2   66.88    3.19
  -1   2  -2   67.76    3.27
  -1   2  -2   66.15    3.06
   1  -2   2   68.59    2.99
   1  -2   2   66.61    3.11
   1  -2   2   60.66    3.17
   1  -2   2   66.37    3.01
   1  -2   2   66.95    3.01
   1  -2   2   67.29    3.29
  -2   2  -2   47.83    2.34
  -2   2  -2   46.32    2.28
  -2   2  -2   47.59    2.24
  -2   2  -2   46.20    2.46
  -2   2  -2   48.41    2.37
  -2   2  -2   45.20    2.24
   2  -2   2   47.22    2.23
   2  -2   2   50.13    2.28
   2  -2   2   47.16    2.19
   2  -2   2   51.99    2.36
   2  -2   2   48.74    2.17
   2  -2   2   47.19    2.49
  -3   2  -2   20.54    1.22
  -3   2  -2   18.85    1.07
  -3   2  -2   19.58    1.04
  -3   2  -2   20.44    1.11
  -3   2  -2   20.54    1.09
  -3   2  -2   18.57    1.16
   3  -2   2   19.51    1.24
   3  -2   2   19.99    1.10
   3  -2   2   20.83    1.14
   3  -2   2   20.93    1.09
   3  -2   2   19.28    1.07
  -4   2  -2    0.00    0.27
  -4   2  -2   -0.19    0.22
  -4   2  -2    0.06    0.12
  -4   2  -2   -0.02    0.18
  -4   2  -2    0.34    0.27
  -4   2  -2    0.08    0.17
  -4   2  -2   -0.06    0.22
   4  -2   2   -0.17    0.29
   4  -2   2   -0.29    0.20
   4  -2   2    0.12    0.20
   4  -2   2    0.37    0.30
   4  -2   2   -0.01    0.16
  -5   2  -2    3.21    0.49
  -5   2  -2    3.45    0.56
  -5   2  -2    3.33    0.42
  -5   2  -2    3.37    0.54
  -5   2  -2    3.13    0.45
  -5   2  -2    2.91    0.46
  -5   2  -2    3.44    0.34
   5  -2   2    2.65    0.46
   5  -2   2    3.55    0.49
   5  -2   2    4.05    0.53
   5  -2   2    2.63    0.46
   5  -2   2    4.05    0.65
   5  -2   2    2.65    0.37
  -6   2  -2    0.23    0.47
  -6   2  -2    0.19    0.35
  -6   2  -2    0.62    0.45
  -6   2  -2    0.07    0.37
  -6   2  -2    0.00    0.35
  -6   2  -2    0.33    0.44
  -6   2  -2   -0.35    0.30
  -6   2  -2    0.21    0.18
   6  -2   2    0.97    0.40
   6  -2   2    0.06    0.40
   6  -2   2   -0.26    0.58
   6  -2   2   -0.20    0.41
   6  -2   2    0.55    0.38
  -7   2  -2    0.58    0.63
  -7   2  -2   -0.01    0.25
  -7   2  -2    0.78    0.55
  -7   2  -2    1.11    0.47
   7  -2   2    0.39    0.51
   7  -2   2    1.05    0.53
   7  -2   2    0.97    0.54
  -8   2  -2    7.06    1.12
  -8   2  -2    9.44    1.05
  -8   2  -2   12.06    1.56
   8  -2   2    9.01    1.13
   8  -2   2    7.34    0.96
   8  -2   2    8.33    1.05
  -9   2  -2    0.70    0.88
  -9   2  -2   -1.31    0.66
  -9   2  -2   -2.38    0.97
   9  -2   2    1.18    0.87
   9  -2   2    2.02    0.90
  10   1  -2    0.62    0.76
 -10  -1   2    0.14    1.22
 -10  -1   2   -0.89    1.05
   9   1  -2    0.09    0.72
   9   1  -2    0.36    0.62
  -9  -1   2    1.53    0.80
  -9  -1   2    0.34    0.85
   8   1  -2    0.77    0.48
   8   1  -2   -0.96    0.51
  -8  -1   2    0.43    0.26
  -8  -1   2    0.70    0.60
  -8  -1   2    0.42    0.65
  -8  -1   2    0.90    0.60
  -8  -1   2    0.79    0.36
   7   1  -2    1.14    0.39
   7   1  -2    2.25    0.58
  -7  -1   2    1.13    0.53
  -7  -1   2    1.69    0.51
  -7  -1   2    1.44    0.19
  -7  -1   2    1.97    0.37
  -7  -1   2    1.72    0.57
  -7  -1   2    2.02    0.48
  -7  -1   2    1.83    0.20
  -7  -1   2    1.14    0.26
  -7  -1   2    2.30    0.55
   6   1  -2   11.18    0.80
   6   1  -2   12.37    0.97
  -6  -1   2   11.16    0.93
  -6  -1   2   11.26    0.53
  -6  -1   2   11.47    0.96
  -6  -1   2   10.30    0.90
  -6  -1   2   10.44    0.89
  -6  -1   2   10.65    0.54
  -6  -1   2   10.41    0.70
  -6  -1   2   10.74    0.85
  -6  -1   2   11.50    0.97
  -6  -1   2   10.72    0.84
   5   1  -2    1.35    0.26
   5   1  -2    1.57    0.36
  -5  -1   2    1.69    0.35
  -5  -1   2    2.05    0.28
  -5  -1   2    1.69    0.36
  -5  -1   2    2.00    0.30
  -5  -1   2    1.65    0.34
  -5  -1   2    1.39    0.36
  -5  -1   2    1.92    0.39
  -5  -1   2    1.64    0.14
  -5  -1   2    1.63    0.32
  -5  -1   2    1.44    0.14
   4   1  -2    5.39    0.44
   4   1  -2    5.85    0.53
  -4  -1   2    4.70    0.49
  -4  -1   2    5.20    0.48
  -4  -1   2    5.26    0.49
  -4  -1   2    5.30    0.40
  -4  -1   2    5.57    0.50
  -4  -1   2    4.69    0.40
  -4  -1   2    5.15    0.46
   3   1  -2   28.66    1.36
   3   1  -2   28.12    1.45
   3   1  -2   29.83    1.38
  -3  -1   2   28.60    1.33
  -3  -1   2   27.52    1.45
  -3  -1   2   30.05    1.45
  -3  -1   2   29.38    1.55
  -3  -1   2   30.10    1.44
  -3  -1   2   27.87    1.39
  -3  -1   2   28.43    1.49
   2   1  -2   10.77    0.62
   2   1  -2   10.58    0.48
   2   1  -2   10.78    0.57
   2   1  -2   11.32    0.48
   2   1  -2   10.84    0.65
  -2  -1   2   11.15    0.55
  -2  -1   2   11.60    0.64
  -2  -1   2   10.85    0.59
  -2  -1   2   11.05    0.62
  -2  -1   2   11.06    0.50
  -2  -1   2   11.58    0.66
  -2  -1   2   11.86    0.60
  -2  -1   2   10.59    0.51
  -2  -1   2   11.05    0.61
   1   1  -2   74.96    3.43
   1   1  -2   71.81    3.47
   1   1  -2   69.80    3.16
   1   1  -2   68.12    3.05
   1   1  -2   76.35    3.34
  -1  -1   2   76.15    3.32
  -1  -1   2   74.75    3.17
  -1  -1   2   74.10    3.32
  -1  -1   2   68.69    3.03
  -1  -1   2   74.90    3.20
   0   1  -2   26.18    1.27
   0   1  -2   26.83    1.36
   0   1  -2   30.78    1.26
   0   1  -2   28.45    1.27
   0  -1   2   26.09    1.28
   0  -1   2   27.53    1.39
   0  -1   2   27.70    1.28
   0  -1   2   25.37    1.36
   0  -1   2   27.04    1.28
   0  -1   2   26.40    1.26
   1  -1   2 1000.00   42.32
   1  -1   2  985.60   42.34
  -2   1  -2    5.95    0.42
  -2   1  -2    5.49    0.42
  -2   1  -2    5.64    0.35
  -2   1  -2    6.10    0.37
  -2   1  -2    5.64    0.44
  -2   1  -2    5.45    0.39
  -2   1  -2    5.62    0.45
   2  -1   2    5.67    0.38
   2  -1   2    5.55    0.30
   2  -1   2    5.96    0.46
   2  -1   2    6.29    0.40
   2  -1   2    5.71    0.45
  -3   1  -2    9.16    0.50
  -3   1  -2    8.11    0.56
  -3   1  -2    7.99    0.61
  -3   1  -2    7.24    0.49
  -3   1  -2    8.08    0.54
  -3   1  -2    7.64    0.61
   3  -1   2    7.46    0.53
   3  -1   2    8.58    0.53
   3  -1   2    7.21    0.63
   3  -1   2    7.18    0.58
   3  -1   2    6.98    0.53
  -4   1  -2    0.10    0.18
  -4   1  -2    0.01    0.18
  -4   1  -2   -0.13    0.22
  -4   1  -2    0.08    0.12
  -4   1  -2    0.28    0.23
  -4   1  -2    0.17    0.19
   4  -1   2   -0.03    0.15
   4  -1   2    0.04    0.27
   4  -1   2    0.30    0.23
   4  -1   2    0.28    0.20
   4  -1   2    0.23    0.20
   4  -1   2    0.00    0.20
  -5   1  -2    7.34    0.74
  -5   1  -2    8.84    0.55
  -5   1  -2    8.48    0.65
  -5   1  -2    7.77    0.64
  -5   1  -2    7.13    0.61
  -5   1  -2    8.25    0.74
   5  -1   2    7.50    0.78
   5  -1   2    8.07    0.71
   5  -1   2    7.53    0.70
   5  -1   2    8.29    0.69
   5  -1   2    7.83    0.65
  -6   1  -2    1.65    0.45
  -6   1  -2    1.95    0.52
  -6   1  -2    1.97    0.40
  -6   1  -2    2.29    0.33
  -6   1  -2    2.76    0.45
  -6   1  -2    1.95    0.39
   6  -1   2    2.01    0.44
   6  -1   2    2.63    0.45
   6  -1   2    2.83    0.50
   6  -1   2    2.13    0.48
   6  -1   2    1.08    0.51
  -7   1  -2    1.17    0.43
  -7   1  -2    0.85    0.50
  -7   1  -2    1.05    0.43
   7  -1   2    1.99    0.57
   7  -1   2    0.39    0.50
   7  -1   2    1.56    0.54
  -8   1  -2    2.60    0.41
  -8   1  -2    3.11    0.83
  -8   1  -2    1.43    0.70
  -8   1  -2    2.26    0.53
  -8   1  -2    2.78    0.61
   8  -1   2    1.30    0.69
   8  -1   2    1.67    0.64
   8  -1   2    2.46    0.75
  -9   1  -2   -0.08    0.75
  -9   1  -2    0.90    0.62
  -9   1  -2    0.83    0.92
   9  -1   2    2.01    0.93
   9  -1   2   -0.15    0.79
   9   0  -2    0.44    0.60
   9   0  -2    0.90    0.78
  -9   0   2    0.08    0.92
  -9   0   2    1.47    0.89
  -9   0   2    0.55    0.30
   8   0  -2    0.79    0.46
   8   0  -2   -0.11    0.61
  -8   0   2    0.35    0.54
  -8   0   2   -0.02    0.26
  -8   0   2    0.14    0.26
  -8   0   2    0.02    0.67
  -8   0   2   -0.14    0.63
   7   0  -2    1.87    0.45
   7   0  -2    1.42    0.26
   7   0  -2    1.76    0.23
  -7   0   2    1.08    0.54
  -7   0   2    1.90    0.26
  -7   0   2    0.98    0.51
  -7   0   2    2.06    0.53
  -7   0   2    1.35    0.26
  -7   0   2    1.18    0.23
  -7   0   2    1.47    0.43
   6   0  -2   21.03    1.02
   6   0  -2   20.17    1.00
   6   0  -2   20.85    1.20
   6   0  -2   19.02    1.32
  -6   0   2   20.44    1.01
  -6   0   2   21.07    1.34
  -6   0   2   19.13    1.40
  -6   0   2   20.23    1.22
  -6   0   2   20.87    1.07
  -6   0   2   19.52    1.02
  -6   0   2   22.18    1.11
  -6   0   2   21.18    1.28
  -6   0   2   21.03    1.28
  -6   0   2   20.55    1.23
  -6   0   2   20.59    1.42
   5   0  -2   15.80    0.93
   5   0  -2   16.44    0.79
   5   0  -2   15.90    1.04
  -5   0   2   16.18    0.78
  -5   0   2   15.67    0.94
  -5   0   2   16.24    1.13
  -5   0   2   15.90    1.04
  -5   0   2   15.25    0.97
  -5   0   2   15.09    0.97
  -5   0   2   16.28    1.08
  -5   0   2   14.57    0.92
  -5   0   2   14.92    0.79
   4   0  -2   -0.03    0.09
   4   0  -2    0.33    0.23
   4   0  -2    0.01    0.10
   4   0  -2   -0.18    0.14
  -4   0   2    0.17    0.18
  -4   0   2    0.02    0.17
  -4   0   2    0.30    0.21
  -4   0   2    0.34    0.19
  -4   0   2   -0.04    0.20
  -4   0   2   -0.07    0.14
  -4   0   2    0.11    0.09
  -4   0   2   -0.04    0.08
   3   0  -2   14.11    0.67
   3   0  -2   13.85    0.78
   3   0  -2   14.92    0.75
   3   0  -2   14.01    0.66
   3   0  -2   15.07    0.83
  -3   0   2   14.60    0.66
  -3   0   2   14.13    0.79
  -3   0   2   14.58    0.77
  -3   0   2   14.47    0.74
  -3   0   2   14.93    0.85
  -3   0   2   14.61    0.90
  -3   0   2   13.30    0.76
  -3   0   2   13.63    0.67
  -3   0   2   12.33    0.72
   2   0  -2    3.58    0.28
   2   0  -2    3.28    0.21
   2   0  -2    3.42    0.30
   2   0  -2    3.56    0.19
  -2   0   2    3.30    0.21
  -2   0   2    3.47    0.26
  -2   0   2    3.47    0.23
  -2   0   2    3.24    0.25
  -2   0   2    3.25    0.20
  -2   0   2    3.28    0.27
  -2   0   2    3.66    0.25
  -2   0   2    3.76    0.32
   1   0  -2   40.16    1.75
   1   0  -2   39.48    1.90
   1   0  -2   39.42    1.89
   1   0  -2   39.73    1.76
  -1   0   2   39.61    1.90
  -1   0   2   39.04    1.75
  -1   0   2   38.75    1.75
  -1   0   2   40.90    1.88
  -1   0   2   35.54    1.67
  -1   0   2   40.64    1.80
  -1   0   2   39.40    1.73
   0   0  -2   71.85    3.24
   0   0  -2   71.54    3.05
   0   0  -2   72.65    3.19
   0   0  -2   66.61    3.29
   0   0  -2   63.95    3.16
   0   0  -2   72.14    3.07
   0   0   2   71.46    3.07
   0   0   2   68.83    3.30
   0   0   2   66.85    3.20
   0   0   2   71.44    3.05
   0   0   2   69.71    3.24
  -1   0  -2   11.34    0.61
  -1   0  -2   10.82    0.60
  -1   0  -2   12.67    0.62
  -1   0  -2   10.84    0.62
  -1   0  -2   12.19    0.63
  -1   0  -2   11.65    0.55
   1   0   2   10.92    0.62
   1   0   2   12.38    0.64
   1   0   2   12.26    0.61
   1   0   2   11.37    0.55
   1   0   2   10.69    0.64
  -2   0  -2    5.74    0.42
  -2   0  -2    5.66    0.41
  -2   0  -2    5.69    0.39
  -2   0  -2    5.48    0.42
  -2   0  -2    6.46    0.38
  -2   0  -2    5.28    0.35
   2   0   2    5.60    0.39
   2   0   2    5.66    0.42
   2   0   2    5.74    0.41
   2   0   2    5.74    0.42
   2   0   2    5.59    0.40
  -3   0  -2    4.33    0.36
  -3   0  -2    4.58    0.37
  -3   0  -2    3.32    0.38
  -3   0  -2    4.31    0.37
  -3   0  -2    3.74    0.33
  -3   0  -2    4.63    0.41
   3   0   2    3.75    0.35
   3   0   2    4.88    0.39
   3   0   2    4.82    0.42
   3   0   2    4.67    0.39
   3   0   2    4.40    0.37
   3   0   2    4.40    0.41
  -4   0  -2    5.01    0.50
  -4   0  -2    4.05    0.40
  -4   0  -2    4.76    0.52
  -4   0  -2    4.59    0.39
  -4   0  -2    4.66    0.44
   4   0   2    4.54    0.30
   4   0   2    5.06    0.55
   4   0   2    5.00    0.48
   4   0   2    4.98    0.47
   4   0   2    4.30    0.48
   4   0   2    5.00    0.43
  -5   0  -2    2.36    0.35
  -5   0  -2    2.19    0.34
  -5   0  -2    3.22    0.41
  -5   0  -2    2.67    0.43
  -5   0  -2    2.18    0.44
  -5   0  -2    2.43    0.33
   5   0   2    2.64    0.42
   5   0   2    2.74    0.45
   5   0   2    2.22    0.20
   5   0   2    2.16    0.42
   5   0   2    2.58    0.41
   5   0   2    2.75    0.35
  -6   0  -2   -0.01    0.38
  -6   0  -2    0.81    0.35
  -6   0  -2    0.21    0.28
  -6   0  -2    0.06    0.34
  -6   0  -2    0.34    0.24
   6   0   2    0.46    0.35
   6   0   2    0.58    0.33
   6   0   2    0.18    0.34
   6   0   2    0.66    0.32
   6   0   2    0.45    0.43
  -7   0  -2    1.42    0.56
  -7   0  -2    1.01    0.35
  -7   0  -2    0.37    0.45
  -7   0  -2    0.93    0.38
  -7   0  -2    1.22    0.32
   7   0   2    0.12    0.42
   7   0   2    0.82    0.49
   7   0   2    1.40    0.51
   7   0   2    0.45    0.40
   7   0   2    0.47    0.56
  -8   0  -2   -0.41    0.61
  -8   0  -2    0.12    0.36
  -8   0  -2   -0.41    0.46
  -8   0  -2   -1.06    0.36
   8   0   2    0.35    0.55
   8   0   2    1.24    0.59
   8   0   2   -0.05    0.61
  -9   0  -2    0.23    0.70
  -9   0  -2    0.26    0.84
  -9   0  -2    0.40    0.53
   9   0   2    0.37    0.77
   9   0   2    0.11    0.75
 -10   0  -2    0.69    0.71
 -10   0  -2    1.10    1.02
 -10   0  -2   -0.38    1.14
  10   0   2    0.65    1.02
   9  -1  -2   -0.18    0.65
   9  -1  -2   -0.77    0.87
  -9   1   2    0.09    0.42
  -9   1   2   -0.33    0.96
  -9   1   2    0.47    1.01
   8  -1  -2    0.11    0.69
   8  -1  -2   -0.54    0.50
  -8   1   2   -0.05    0.68
  -8   1   2    0.66    0.35
  -8   1   2    0.32    0.71
   7  -1  -2   16.64    0.99
   7  -1  -2   17.01    0.96
   7  -1  -2   15.84    1.12
   7  -1  -2   14.98    1.29
  -7   1   2   15.30    0.92
  -7   1   2   15.63    0.94
  -7   1   2   15.30    1.38
  -7   1   2   13.97    1.13
   6  -1  -2   11.72    0.73
   6  -1  -2   11.13    1.00
   6  -1  -2   10.77    0.71
   6  -1  -2    9.94    0.83
  -6   1   2   10.76    0.70
  -6   1   2   10.67    0.90
  -6   1   2   10.78    1.00
  -6   1   2   10.94    0.78
  -6   1   2   10.49    1.04
  -6   1   2   11.30    1.00
  -6   1   2   10.97    0.67
   5  -1  -2    4.94    0.41
   5  -1  -2    4.49    0.56
   5  -1  -2    4.64    0.41
   5  -1  -2    3.85    0.45
  -5   1   2    4.05    0.52
  -5   1   2    4.12    0.50
  -5   1   2    4.32    0.63
  -5   1   2    3.21    0.41
   4  -1  -2    9.76    0.61
   4  -1  -2   10.38    0.72
  -4   1   2    8.47    0.61
  -4   1   2    9.81    0.56
  -4   1   2    8.73    0.63
  -4   1   2   10.38    0.81
  -4   1   2    9.34    0.54
  -4   1   2   10.24    0.62
  -4   1   2    9.17    0.58
   3  -1  -2    0.20    0.11
   3  -1  -2    0.01    0.14
   3  -1  -2    0.09    0.16
   3  -1  -2    0.10    0.12
  -3   1   2    0.04    0.08
  -3   1   2    0.03    0.04
  -3   1   2   -0.15    0.18
  -3   1   2    0.04    0.09
  -3   1   2    0.07    0.13
  -3   1   2   -0.06    0.12
   2  -1  -2    8.19    0.48
   2  -1  -2    9.31    0.44
   2  -1  -2    9.03    0.51
   2  -1  -2    8.45    0.44
   2  -1  -2    7.60    0.51
  -2   1   2    8.48    0.46
  -2   1   2    8.96    0.62
  -2   1   2    9.51    0.48
  -2   1   2    8.56    0.49
  -2   1   2    8.23    0.46
  -2   1   2    8.47    0.46
  -2   1   2    8.01    0.46
  -2   1   2    8.81    0.44
   1  -1  -2    2.87    0.22
   1  -1  -2    2.91    0.21
   1  -1  -2    3.12    0.19
   1  -1  -2    3.01    0.21
  -1   1   2    2.88    0.25
  -1   1   2    2.87    0.20
  -1   1   2    3.07    0.17
  -1   1   2    2.69    0.23
  -1   1   2    2.98    0.19
  -1   1   2    2.78    0.21
   0  -1  -2   21.20    1.07
   0  -1  -2   21.65    1.08
   0  -1  -2   25.58    1.14
   0  -1  -2   23.14    1.06
   0  -1  -2   22.39    1.06
   0  -1  -2   23.39    0.98
   0   1   2   21.99    1.08
   0   1   2   22.84    1.12
   0   1   2   22.88    1.15
   0   1   2   23.48    1.07
   0   1   2   23.30    1.10
   0   1   2   22.43    1.07
  -1  -1  -2   11.72    0.64
  -1  -1  -2   12.11    0.63
  -1  -1  -2   12.04    0.59
  -1  -1  -2   11.84    0.66
  -1  -1  -2   12.46    0.62
   1   1   2   12.56    0.65
   1   1   2   12.64    0.65
   1   1   2   11.76    0.62
   1   1   2   10.79    0.59
  -2  -1  -2   39.53    1.76
  -2  -1  -2   37.11    1.86
  -2  -1  -2   36.83    1.74
  -2  -1  -2   39.40    1.78
  -2  -1  -2   37.69    1.89
   2   1   2   38.46    1.75
   2   1   2   37.73    1.78
   2   1   2   39.50    1.88
   2   1   2   35.29    1.90
   2   1   2   37.41    1.89
   2   1   2   37.75    1.74
  -3  -1  -2    1.45    0.23
  -3  -1  -2    1.20    0.24
  -3  -1  -2    1.17    0.21
  -3  -1  -2    1.22    0.21
  -3  -1  -2    1.42    0.22
  -3  -1  -2    1.46    0.22
   3   1   2    1.57    0.24
   3   1   2    1.44    0.22
   3   1   2    1.58    0.27
   3   1   2    1.67    0.25
   3   1   2    1.50    0.25
   3   1   2    1.39    0.24
  -4  -1  -2    1.40    0.25
  -4  -1  -2    1.64    0.25
  -4  -1  -2    1.29    0.23
  -4  -1  -2    0.99    0.23
  -4  -1  -2    1.39    0.29
  -4  -1  -2    1.46    0.26
   4   1   2    1.57    0.27
   4   1   2    1.35    0.28
   4   1   2    0.97    0.20
   4   1   2    1.20    0.32
   4   1   2    1.57    0.28
   4   1   2    0.85    0.24
  -5  -1  -2   18.51    1.01
  -5  -1  -2   19.23    1.11
  -5  -1  -2   18.48    1.03
  -5  -1  -2   18.65    1.07
  -5  -1  -2   14.26    1.08
  -5  -1  -2   17.54    1.18
   5   1   2   17.86    0.99
   5   1   2   18.55    0.96
   5   1   2   17.98    1.11
   5   1   2   17.39    1.06
   5   1   2   18.99    1.12
   5   1   2   16.68    1.13
  -6  -1  -2    3.50    0.51
  -6  -1  -2    2.64    0.47
  -6  -1  -2    2.40    0.37
  -6  -1  -2    2.45    0.40
  -6  -1  -2    2.29    0.48
  -6  -1  -2    3.06    0.41
   6   1   2    1.90    0.46
   6   1   2    2.34    0.46
   6   1   2    3.10    0.53
   6   1   2    2.57    0.30
   6   1   2    2.27    0.43
   6   1   2    3.19    0.40
  -7  -1  -2   -0.43    0.45
  -7  -1  -2    0.45    0.46
  -7  -1  -2    0.43    0.34
  -7  -1  -2    0.50    0.30
  -7  -1  -2    0.40    0.31
  -7  -1  -2   -0.08    0.35
   7   1   2    0.48    0.18
   7   1   2    0.04    0.38
   7   1   2   -0.23    0.38
   7   1   2    1.02    0.52
   7   1   2    0.20    0.42
   7   1   2    0.44    0.35
  -8  -1  -2    2.09    0.45
  -8  -1  -2    0.99    0.60
  -8  -1  -2    2.11    0.51
  -8  -1  -2    1.75    0.47
  -8  -1  -2    0.86    0.51
   8   1   2    1.00    0.59
   8   1   2    1.36    0.53
   8   1   2    1.01    0.67
   8   1   2    0.97    0.57
  -9  -1  -2   -0.16    0.69
  -9  -1  -2   -0.35    0.46
  -9  -1  -2    0.61    0.67
  -9  -1  -2   -0.11    0.67
   9   1   2    0.67    0.69
 -10  -1  -2    1.11    0.92
 -10  -1  -2    1.39    1.05
 -10  -1  -2    1.32    0.61
  10   1   2    0.33    0.88
   9  -2  -2    2.88    1.07
   9  -2  -2   -0.89    0.73
  -9   2   2   -0.09    0.55
  -9   2   2    0.04    1.03
  -9   2   2    2.23    1.16
   8  -2  -2   -0.46    0.54
   8  -2  -2    0.94    0.76
  -8   2   2    0.05    0.81
  -8   2   2    0.89    0.86
   7  -2  -2   -0.17    0.48
   7  -2  -2    1.28    0.45
  -7   2   2   -0.23    0.34
  -7   2   2    0.17    0.55
  -7   2   2    0.53    0.33
  -7   2   2    0.55    0.35
  -7   2   2   -0.05    0.44
  -7   2   2    0.15    0.60
   6  -2  -2    2.76    0.58
   6  -2  -2    1.98    0.37
   6  -2  -2    2.50    0.43
   6  -2  -2    1.91    0.41
  -6   2   2    2.54    0.59
  -6   2   2    2.30    0.47
  -6   2   2    2.75    0.37
  -6   2   2    1.90    0.35
  -6   2   2    2.06    0.36
   5  -2  -2    0.08    0.21
   5  -2  -2    0.06    0.28
   5  -2  -2    0.56    0.24
   5  -2  -2    0.30    0.25
  -5   2   2    0.15    0.19
  -5   2   2   -0.06    0.19
  -5   2   2    0.09    0.34
  -5   2   2   -0.02    0.18
  -5   2   2    0.44    0.23
  -5   2   2    0.70    0.27
  -5   2   2   -0.18    0.28
   4  -2  -2   -0.23    0.22
   4  -2  -2    0.12    0.17
   4  -2  -2    0.08    0.15
   4  -2  -2   -0.54    0.27
   4  -2  -2    0.03    0.19
  -4   2   2   -0.12    0.15
  -4   2   2    0.22    0.16
  -4   2   2   -0.10    0.18
  -4   2   2    0.41    0.30
  -4   2   2    0.02    0.13
  -4   2   2    0.11    0.17
   3  -2  -2   13.66    0.80
   3  -2  -2   14.29    0.74
   3  -2  -2   14.14    0.75
   3  -2  -2   13.83    0.84
  -3   2   2   13.75    0.74
  -3   2   2   13.03    0.75
  -3   2   2   15.01    0.75
  -3   2   2   11.57    0.91
  -3   2   2   14.04    0.75
   2  -2  -2   71.69    3.23
   2  -2  -2   74.48    3.29
   2  -2  -2   73.62    3.16
   2  -2  -2   74.87    3.26
   2  -2  -2   72.40    3.13
  -2   2   2   70.52    3.11
  -2   2   2   72.89    3.23
  -2   2   2   75.11    3.65
  -2   2   2   72.18    3.24
  -2   2   2   70.66    3.35
   1  -2  -2    8.95    0.47
   1  -2  -2    8.76    0.49
   1  -2  -2    9.08    0.46
   1  -2  -2    8.63    0.52
   1  -2  -2    9.70    0.48
  -1   2   2    8.72    0.59
  -1   2   2    8.62    0.43
  -1   2   2    8.76    0.52
  -1   2   2    8.24    0.49
  -1   2   2    8.85    0.44
   0  -2  -2   11.33    0.63
   0  -2  -2   11.99    0.52
   0  -2  -2   12.15    0.60
   0  -2  -2   12.18    0.63
   0  -2  -2    9.94    0.54
   0   2   2   11.74    0.60
   0   2   2   11.92    0.57
   0   2   2   11.28    0.50
   0   2   2    9.85    0.56
  -1  -2  -2    1.37    0.20
  -1  -2  -2    1.03    0.14
  -1  -2  -2    1.28    0.14
  -1  -2  -2    1.37    0.15
  -1  -2  -2    1.21    0.19
  -1  -2  -2    0.97    0.15
   1   2   2    1.11    0.15
   1   2   2    1.43    0.17
   1   2   2    1.26    0.15
   1   2   2    1.21    0.14
  -2  -2  -2   10.92    0.68
  -2  -2  -2   13.23    0.67
  -2  -2  -2   12.79    0.70
  -2  -2  -2   10.72    0.64
  -2  -2  -2   12.31    0.73
   2   2   2   13.10    0.67
   2   2   2   11.72    0.65
   2   2   2   12.44    0.66
   2   2   2   11.53    0.68
   2   2   2   12.46    0.71
  -3  -2  -2    0.44    0.13
  -3  -2  -2    0.41    0.15
  -3  -2  -2    0.33    0.15
  -3  -2  -2    0.52    0.07
  -3  -2  -2    0.43    0.16
  -3  -2  -2    0.24    0.16
  -3  -2  -2    0.63    0.18
  -3  -2  -2    0.46    0.13
   3   2   2    0.41    0.14
   3   2   2    0.54    0.16
   3   2   2    0.52    0.18
   3   2   2    0.58    0.19
   3   2   2    0.76    0.21
  -4  -2  -2    3.29    0.41
  -4  -2  -2    3.57    0.40
  -4  -2  -2    4.18    0.37
  -4  -2  -2    4.17    0.43
  -4  -2  -2    4.71    0.39
  -4  -2  -2    4.47    0.47
   4   2   2    4.51    0.42
   4   2   2    5.18    0.42
   4   2   2    4.54    0.44
   4   2   2    4.30    0.42
  -5  -2  -2    0.22    0.20
  -5  -2  -2   -0.04    0.22
  -5  -2  -2    0.14    0.16
  -5  -2  -2    0.02    0.22
  -5  -2  -2    0.11    0.18
  -5  -2  -2    0.31    0.26
   5   2   2    0.23    0.18
   5   2   2    0.26    0.28
   5   2   2   -0.06    0.21
   5   2   2    0.30    0.22
   5   2   2   -0.22    0.21
   5   2   2    0.08    0.19
  -6  -2  -2    1.02    0.29
  -6  -2  -2    1.61    0.42
  -6  -2  -2    1.48    0.37
  -6  -2  -2    1.22    0.39
  -6  -2  -2    1.51    0.26
  -6  -2  -2    1.17    0.32
  -6  -2  -2    0.92    0.26
   6   2   2    1.64    0.30
   6   2   2    1.03    0.27
   6   2   2    1.44    0.38
   6   2   2    1.08    0.30
   6   2   2    1.12    0.35
  -7  -2  -2    1.04    0.38
  -7  -2  -2    1.26    0.43
  -7  -2  -2    1.24    0.32
  -7  -2  -2    1.71    0.42
  -7  -2  -2    1.20    0.51
  -7  -2  -2    1.09    0.37
   7   2   2    0.96    0.39
   7   2   2    1.73    0.30
   7   2   2    0.78    0.43
   7   2   2    1.28    0.49
   7   2   2    1.10    0.35
  -8  -2  -2    4.85    0.61
  -8  -2  -2    5.18    0.61
  -8  -2  -2    4.83    0.60
  -8  -2  -2    5.94    0.74
  -8  -2  -2    4.74    0.80
  -8  -2  -2    4.98    0.70
   8   2   2    5.03    0.79
   8   2   2    6.54    0.86
   8   2   2    5.23    0.54
   8   2   2    5.55    0.64
  -9  -2  -2   -0.40    0.60
  -9  -2  -2   -0.11    0.40
  -9  -2  -2    0.71    0.55
  -9  -2  -2    0.14    0.57
  -9  -2  -2    0.62    0.75
   9   2   2    0.05    0.60
 -10  -2  -2    4.10    1.04
 -10  -2  -2    2.22    0.59
 -10  -2  -2    2.51    0.86
  10   2   2    2.05    0.91
   8  -3  -2   -0.59    0.78
   8  -3  -2   -1.45    0.61
  -8   3   2    0.88    0.53
  -8   3   2   -0.25    0.83
  -8   3   2   -0.62    0.86
   7  -3  -2    0.47    0.64
   7  -3  -2   -0.09    0.45
   7  -3  -2    1.21    0.54
  -7   3   2    0.94    0.71
  -7   3   2    0.85    0.67
  -7   3   2    0.30    0.40
  -7   3   2    0.13    0.34
  -7   3   2   -0.37    0.42
   6  -3  -2    1.42    0.46
   6  -3  -2    1.98    0.42
  -6   3   2    2.01    0.38
  -6   3   2    2.31    0.34
  -6   3   2    3.32    0.46
   5  -3  -2    0.78    0.32
   5  -3  -2    0.65    0.29
   5  -3  -2    1.29    0.53
   5  -3  -2    1.19    0.40
   5  -3  -2    0.85    0.37
  -5   3   2    1.29    0.24
  -5   3   2    1.65    0.37
  -5   3   2    0.77    0.24
  -5   3   2    0.92    0.42
  -5   3   2    0.69    0.26
  -5   3   2    0.67    0.28
   4  -3  -2    2.25    0.48
   4  -3  -2    1.30    0.26
   4  -3  -2    1.16    0.31
   4  -3  -2    1.19    0.29
  -4   3   2    0.96    0.39
  -4   3   2    1.25    0.27
  -4   3   2    1.36    0.28
  -4   3   2    0.76    0.26
  -4   3   2    1.02    0.20
   3  -3  -2    4.28    0.45
   3  -3  -2    4.81    0.54
   3  -3  -2    4.46    0.43
   3  -3  -2    4.35    0.35
   3  -3  -2    3.66    0.43
  -3   3   2    3.70    0.38
  -3   3   2    4.41    0.40
  -3   3   2    3.77    0.53
  -3   3   2    4.47    0.38
   2  -3  -2    0.67    0.15
   2  -3  -2    0.78    0.12
   2  -3  -2    0.90    0.20
   2  -3  -2    1.00    0.20
   2  -3  -2    0.80    0.10
   2  -3  -2    0.56    0.15
  -2   3   2    0.74    0.24
  -2   3   2    0.67    0.17
  -2   3   2    0.54    0.13
  -2   3   2    0.38    0.15
  -2   3   2    0.47    0.09
   1  -3  -2   27.12    1.23
   1  -3  -2   27.90    1.34
   1  -3  -2   27.66    1.31
   1  -3  -2   22.46    1.27
  -1   3   2   26.33    1.18
  -1   3   2   26.44    1.48
  -1   3   2   27.68    1.33
  -1   3   2   27.15    1.26
  -1   3   2   28.63    1.32
   0  -3  -2    0.22    0.06
   0  -3  -2    0.21    0.05
   0  -3  -2    0.50    0.17
   0  -3  -2    0.33    0.06
   0  -3  -2    0.34    0.13
   0   3   2    0.14    0.06
   0   3   2    0.17    0.13
   0   3   2    0.19    0.11
   0   3   2    0.17    0.06
   0   3   2    0.28    0.14
  -1  -3  -2    2.98    0.22
  -1  -3  -2    2.31    0.21
  -1  -3  -2    2.60    0.29
  -1  -3  -2    2.62    0.25
  -1  -3  -2    2.28    0.18
   1   3   2    2.68    0.25
   1   3   2    2.48    0.23
   1   3   2    2.81    0.29
   1   3   2    2.76    0.21
   1   3   2    2.68    0.21
  -2  -3  -2   47.49    2.32
  -2  -3  -2   46.47    2.33
  -2  -3  -2   47.57    2.19
  -2  -3  -2   50.52    2.27
  -2  -3  -2   51.48    2.23
   2   3   2   47.94    2.18
   2   3   2   45.75    2.35
   2   3   2   50.13    2.23
  -3  -3  -2   10.01    0.65
  -3  -3  -2    9.37    0.59
  -3  -3  -2   10.19    0.64
  -3  -3  -2   11.03    0.66
  -3  -3  -2   10.82    0.67
   3   3   2   10.19    0.61
   3   3   2   10.87    0.70
   3   3   2    9.98    0.58
   3   3   2   10.81    0.65
   3   3   2    9.37    0.64
   3   3   2   10.10    0.67
  -4  -3  -2   30.84    1.40
  -4  -3  -2   29.68    1.54
  -4  -3  -2   30.87    1.62
  -4  -3  -2   31.45    1.59
  -4  -3  -2   30.55    1.53
  -4  -3  -2   24.90    1.51
  -4  -3  -2   29.61    1.47
   4   3   2   31.43    1.66
   4   3   2   28.07    1.53
   4   3   2   30.05    1.51
   4   3   2   29.33    1.55
   4   3   2   34.19    1.61
   4   3   2   30.09    1.48
  -5  -3  -2    0.06    0.10
  -5  -3  -2    0.00    0.22
  -5  -3  -2   -0.02    0.26
  -5  -3  -2    0.14    0.16
  -5  -3  -2    0.32    0.17
  -5  -3  -2   -0.26    0.27
  -5  -3  -2    0.32    0.26
  -5  -3  -2    0.24    0.23
   5   3   2   -0.33    0.28
   5   3   2    0.22    0.20
   5   3   2    0.21    0.23
   5   3   2    0.28    0.22
   5   3   2    0.00    0.19
   5   3   2    0.28    0.19
  -6  -3  -2   15.68    1.12
  -6  -3  -2   15.43    1.01
  -6  -3  -2   17.78    1.20
  -6  -3  -2   16.29    0.96
  -6  -3  -2   16.78    1.13
  -6  -3  -2   14.69    1.00
  -6  -3  -2   18.22    1.14
   6   3   2   16.33    1.19
   6   3   2   16.37    0.96
   6   3   2   18.10    1.07
   6   3   2   15.01    1.10
   6   3   2   17.36    1.06
   6   3   2   16.63    1.01
  -7  -3  -2    3.50    0.69
  -7  -3  -2    3.37    0.44
  -7  -3  -2    4.87    0.56
  -7  -3  -2    4.47    0.54
  -7  -3  -2    3.87    0.64
  -7  -3  -2    3.20    0.63
  -7  -3  -2    3.52    0.45
   7   3   2    3.57    0.60
   7   3   2    3.69    0.48
   7   3   2    3.03    0.45
   7   3   2    3.97    0.49
   7   3   2    3.87    0.53
  -8  -3  -2    0.88    0.42
  -8  -3  -2    0.36    0.55
  -8  -3  -2    0.57    0.33
  -8  -3  -2    1.49    0.43
  -8  -3  -2    0.91    0.54
  -8  -3  -2    1.10    0.37
   8   3   2    0.32    0.41
   8   3   2    0.60    0.35
   8   3   2    0.47    0.46
   8   3   2    0.97    0.52
  -9  -3  -2    2.85    0.75
  -9  -3  -2    1.62    0.74
  -9  -3  -2    0.86    0.42
  -9  -3  -2    2.18    0.53
  -9  -3  -2    1.87    0.58
   9   3   2    2.71    0.77
   9   3   2    2.10    0.70
   9   3   2    2.52    0.43
 -10  -3  -2   -0.83    0.84
 -10  -3  -2    0.83    0.50
  10   3   2    0.24    0.78
   8  -4  -2    1.08    0.73
   8  -4  -2    1.73    0.92
  -8   4   2    2.25    0.72
  -8   4   2    2.08    1.11
  -8   4   2    1.01    1.02
   7  -4  -2    3.85    0.90
   7  -4  -2    2.33    0.54
   7  -4  -2    2.19    0.70
  -7   4   2    2.58    0.59
  -7   4   2    2.62    0.89
   6  -4  -2   -0.25    0.45
   6  -4  -2    0.88    0.56
   6  -4  -2   -0.08    0.36
  -6   4   2    0.15    0.31
  -6   4   2    0.11    0.57
  -6   4   2   -0.02    0.25
  -6   4   2   -0.59    0.44
  -6   4   2    0.17    0.35
   5  -4  -2   10.46    0.95
   5  -4  -2   11.30    0.88
   5  -4  -2   11.53    0.79
  -5   4   2   10.32    0.68
  -5   4   2   11.21    0.85
  -5   4   2   11.39    0.87
  -5   4   2   11.96    0.73
  -5   4   2   11.23    1.16
  -5   4   2   11.28    0.87
   4  -4  -2    0.06    0.42
   4  -4  -2    0.21    0.21
   4  -4  -2    0.22    0.33
   4  -4  -2   -0.23    0.28
   4  -4  -2    0.13    0.26
  -4   4   2    0.15    0.34
  -4   4   2    0.23    0.27
  -4   4   2    0.11    0.14
  -4   4   2    0.21    0.26
  -4   4   2    0.33    0.25
   3  -4  -2   18.59    1.24
   3  -4  -2   18.03    1.04
   3  -4  -2   19.01    0.93
   3  -4  -2   18.50    1.08
   3  -4  -2   19.43    1.09
   3  -4  -2   17.19    1.04
  -3   4   2   19.05    1.06
  -3   4   2   15.35    0.91
  -3   4   2   18.96    1.27
  -3   4   2   17.54    0.94
  -3   4   2   18.25    1.04
   2  -4  -2    1.05    0.20
   2  -4  -2    0.74    0.12
   2  -4  -2    1.01    0.21
   2  -4  -2    0.68    0.24
   2  -4  -2    1.17    0.31
   2  -4  -2    0.46    0.20
   2  -4  -2    0.84    0.20
  -2   4   2    1.16    0.23
  -2   4   2    0.76    0.28
  -2   4   2    0.67    0.11
  -2   4   2    1.04    0.25
   1  -4  -2   11.13    0.61
   1  -4  -2   10.62    0.59
   1  -4  -2   11.48    0.68
   1  -4  -2   11.27    0.73
  -1   4   2   11.34    0.71
  -1   4   2   11.06    0.68
  -1   4   2    9.60    0.56
  -1   4   2   11.81    0.80
  -1   4   2   11.07    0.54
   0  -4  -2    0.94    0.12
   0  -4  -2    0.78    0.22
   0  -4  -2    0.97    0.13
   0  -4  -2    1.25    0.23
   0  -4  -2    0.86    0.11
   0   4   2    0.95    0.13
   0   4   2    0.80    0.19
   0   4   2    0.99    0.21
   0   4   2    1.36    0.15
   0   4   2    1.06    0.23
  -1  -4  -2   14.51    0.84
  -1  -4  -2   14.34    0.79
  -1  -4  -2   14.62    0.64
  -1  -4  -2   14.26    0.73
  -1  -4  -2   15.32    0.73
  -1  -4  -2   14.19    0.74
   1   4   2   12.57    0.75
   1   4   2   14.15    0.79
   1   4   2   14.56    0.83
   1   4   2   14.77    0.80
   1   4   2   14.00    0.82
  -2  -4  -2   58.20    2.61
  -2  -4  -2   51.38    2.68
  -2  -4  -2   61.09    2.73
  -2  -4  -2   59.06    2.67
  -2  -4  -2   58.29    2.57
   2   4   2   56.66    2.75
   2   4   2   55.83    2.54
   2   4   2   57.19    2.62
   2   4   2   55.32    2.64
   2   4   2   57.56    2.77
  -3  -4  -2    0.11    0.15
  -3  -4  -2   -0.10    0.12
  -3  -4  -2    0.09    0.17
  -3  -4  -2    0.19    0.20
  -3  -4  -2    0.15    0.13
   3   4   2    0.24    0.18
   3   4   2    0.06    0.06
   3   4   2    0.25    0.18
   3   4   2    0.27    0.17
   3   4   2    0.23    0.21
   3   4   2    0.15    0.07
  -4  -4  -2    2.55    0.36
  -4  -4  -2    3.03    0.41
  -4  -4  -2    2.31    0.39
  -4  -4  -2    2.63    0.32
  -4  -4  -2    2.80    0.38
   4   4   2    2.58    0.41
   4   4   2    2.80    0.35
   4   4   2    2.85    0.42
   4   4   2    3.40    0.26
   4   4   2    2.44    0.36
   4   4   2    2.43    0.35
  -5  -4  -2    3.69    0.52
  -5  -4  -2    3.12    0.46
  -5  -4  -2    3.20    0.44
  -5  -4  -2    2.63    0.35
  -5  -4  -2    2.78    0.29
  -5  -4  -2    2.81    0.42
  -5  -4  -2    2.97    0.40
   5   4   2    3.46    0.32
   5   4   2    3.04    0.46
   5   4   2    3.05    0.46
   5   4   2    3.08    0.49
   5   4   2    2.46    0.36
   5   4   2    2.77    0.36
  -6  -4  -2    0.45    0.20
  -6  -4  -2    0.20    0.37
  -6  -4  -2    0.27    0.28
  -6  -4  -2    0.56    0.37
  -6  -4  -2    0.18    0.28
  -6  -4  -2    0.22    0.31
  -6  -4  -2    0.17    0.18
  -6  -4  -2    0.10    0.15
   6   4   2    0.42    0.30
   6   4   2    0.25    0.26
   6   4   2    0.18    0.25
   6   4   2   -0.20    0.29
   6   4   2   -0.09    0.20
   6   4   2    0.33    0.42
  -7  -4  -2    4.89    0.51
  -7  -4  -2    5.46    0.77
  -7  -4  -2    4.85    0.53
  -7  -4  -2    4.12    0.57
  -7  -4  -2    4.32    0.66
  -7  -4  -2    5.13    0.70
  -7  -4  -2    3.79    0.46
   7   4   2    4.58    0.59
   7   4   2    5.00    0.60
   7   4   2    3.91    0.58
   7   4   2    3.97    0.57
   7   4   2    3.20    0.66
   7   4   2    3.45    0.60
  -8  -4  -2    1.17    0.38
  -8  -4  -2    1.25    0.33
  -8  -4  -2    1.27    0.43
  -8  -4  -2    0.74    0.61
  -8  -4  -2    0.89    0.50
  -8  -4  -2    0.86    0.34
   8   4   2    1.21    0.51
   8   4   2    0.65    0.40
   8   4   2    1.78    0.47
  -9  -4  -2    0.83    0.63
  -9  -4  -2   -0.49    0.45
  -9  -4  -2    0.33    0.35
  -9  -4  -2   -0.30    0.61
   9   4   2    0.20    0.59
   9   4   2    0.74    0.45
   9   4   2   -0.19    0.67
 -10  -4  -2    1.33    0.47
 -10  -4  -2    1.22    0.87
 -10  -4  -2    1.91    0.72
 -10  -4  -2    1.62    0.92
  10   4   2    0.40    0.82
  10   4   2    1.17    0.56
   7  -5  -2   -0.33    0.56
   7  -5  -2   -0.41    0.70
  -7   5   2    0.25    0.59
  -7   5   2   -0.72    0.82
   6  -5  -2    2.25    0.50
   6  -5  -2    1.93    0.61
   6  -5  -2    2.92    0.72
  -6   5   2    2.56    0.54
  -6   5   2    2.20    0.31
  -6   5   2    1.40    0.58
  -6   5   2    1.39    0.71
   5  -5  -2   -0.24    0.40
   5  -5  -2    0.28    0.33
   5  -5  -2   -0.04    0.41
  -5   5   2    0.14    0.22
  -5   5   2    0.35    0.37
  -5   5   2   -0.03    0.50
   4  -5  -2    0.33    0.33
   4  -5  -2    0.12    0.24
   4  -5  -2   -0.04    0.32
   4  -5  -2    0.34    0.57
  -4   5   2    0.11    0.26
  -4   5   2    0.15    0.41
  -4   5   2    0.04    0.27
  -4   5   2    0.14    0.16
   3  -5  -2    0.61    0.20
   3  -5  -2    0.34    0.25
   3  -5  -2    0.46    0.39
   3  -5  -2    0.48    0.08
   3  -5  -2   -0.08    0.41
   3  -5  -2    0.63    0.32
  -3   5   2    0.47    0.35
  -3   5   2    0.59    0.14
  -3   5   2    0.34    0.26
  -3   5   2    0.76    0.23
   2  -5  -2    2.04    0.30
   2  -5  -2    2.04    0.26
   2  -5  -2    2.39    0.35
   2  -5  -2    2.02    0.41
   2  -5  -2    1.62    0.32
   2  -5  -2    1.72    0.39
  -2   5   2    2.44    0.44
  -2   5   2    2.11    0.24
  -2   5   2    2.36    0.35
  -2   5   2    2.24    0.22
  -2   5   2    1.92    0.35
   1  -5  -2    2.38    0.35
   1  -5  -2    2.01    0.23
   1  -5  -2    2.11    0.28
   1  -5  -2    2.13    0.36
   1  -5  -2    2.09    0.37
  -1   5   2    2.11    0.18
  -1   5   2    2.17    0.34
  -1   5   2    2.26    0.22
  -1   5   2    2.07    0.38
  -1   5   2    1.59    0.30
   0  -5  -2    4.19    0.27
   0  -5  -2    3.23    0.44
   0  -5  -2    3.60    0.28
   0  -5  -2    3.87    0.29
   0  -5  -2    3.33    0.39
   0   5   2    3.64    0.27
   0   5   2    3.58    0.43
   0   5   2    4.47    0.45
  -1  -5  -2   10.90    0.75
  -1  -5  -2   10.97    0.58
  -1  -5  -2   10.14    0.50
  -1  -5  -2   10.38    0.67
  -1  -5  -2   10.89    0.61
   1   5   2   10.69    0.69
   1   5   2    9.87    0.69
  -2  -5  -2    3.46    0.44
  -2  -5  -2    3.07    0.29
  -2  -5  -2    3.20    0.24
  -2  -5  -2    2.82    0.35
  -2  -5  -2    3.87    0.36
   2   5   2    2.87    0.31
   2   5   2    3.20    0.40
   2   5   2    3.70    0.38
   2   5   2    2.99    0.36
  -3  -5  -2   35.49    1.56
  -3  -5  -2   30.92    1.59
  -3  -5  -2   32.01    1.62
  -3  -5  -2   30.72    1.53
   3   5   2   33.54    1.66
   3   5   2   27.86    1.51
   3   5   2   27.81    1.68
   3   5   2   28.99    1.49
   3   5   2   30.16    1.57
   3   5   2   31.16    1.54
   3   5   2   30.48    1.51
   3   5   2   28.91    1.64
  -4  -5  -2    0.49    0.19
  -4  -5  -2    0.75    0.24
  -4  -5  -2    0.39    0.25
  -4  -5  -2    0.77    0.20
  -4  -5  -2    0.52    0.28
   4   5   2    0.45    0.10
   4   5   2    0.50    0.25
   4   5   2    0.62    0.24
   4   5   2    0.36    0.28
   4   5   2    0.37    0.21
   4   5   2    0.48    0.27
  -5  -5  -2   -0.03    0.19
  -5  -5  -2   -0.14    0.17
  -5  -5  -2    0.14    0.26
  -5  -5  -2    0.03    0.23
  -5  -5  -2    0.18    0.31
   5   5   2   -0.08    0.08
   5   5   2    0.28    0.34
   5   5   2   -0.11    0.24
   5   5   2    0.18    0.29
   5   5   2    0.02    0.24
   5   5   2   -0.01    0.24
  -6  -5  -2    5.72    0.63
  -6  -5  -2    4.91    0.48
  -6  -5  -2    4.03    0.67
  -6  -5  -2    4.54    0.66
  -6  -5  -2    4.76    0.60
  -6  -5  -2    4.22    0.61
   6   5   2    5.46    0.71
   6   5   2    5.08    0.57
   6   5   2    4.74    0.63
   6   5   2    6.24    0.84
   6   5   2    5.19    0.39
   6   5   2    4.73    0.56
  -7  -5  -2    9.90    0.93
  -7  -5  -2    9.10    0.68
  -7  -5  -2    8.13    0.58
  -7  -5  -2    7.82    0.86
  -7  -5  -2    6.97    0.78
   7   5   2    6.81    0.86
   7   5   2    9.08    0.64
   7   5   2    9.19    0.75
   7   5   2    7.92    1.13
   7   5   2    9.03    0.93
   7   5   2    8.08    0.75
  -8  -5  -2    2.66    0.58
  -8  -5  -2    2.36    0.37
  -8  -5  -2    2.10    0.40
  -8  -5  -2    2.62    0.39
  -8  -5  -2    2.12    0.92
  -8  -5  -2    3.01    0.54
   8   5   2    2.42    0.52
   8   5   2    3.35    0.63
  -9  -5  -2    0.73    0.63
  -9  -5  -2    0.22    0.61
  -9  -5  -2    0.11    0.35
  -9  -5  -2    0.53    0.41
   9   5   2    0.34    0.53
   9   5   2    0.75    0.64
 -10  -5  -2    1.29    0.85
 -10  -5  -2    2.96    0.94
 -10  -5  -2    1.54    0.46
  10   5   2    0.93    0.74
  10   5   2    1.76    0.69
   7  -6  -2    0.96    0.99
  -7   6   2    0.06    0.75
  -7   6   2   -0.24    1.16
   6  -6  -2   -0.97    0.50
   6  -6  -2    0.55    0.67
   6  -6  -2    0.18    0.70
  -6   6   2   -0.51    0.55
  -6   6   2   -0.41    0.80
   5  -6  -2    2.15    0.56
   5  -6  -2    2.75    0.64
   5  -6  -2    2.77    0.44
  -5   6   2    2.41    0.45
  -5   6   2    2.35    0.76
  -5   6   2    2.39    0.62
  -5   6   2    2.42    0.56
   4  -6  -2    1.30    0.32
   4  -6  -2    0.81    0.39
   4  -6  -2    0.73    0.45
  -4   6   2    0.85    0.33
  -4   6   2    0.86    0.41
  -4   6   2    1.47    0.24
  -4   6   2    0.57    0.45
   3  -6  -2    2.23    0.43
   3  -6  -2    1.76    0.65
   3  -6  -2    2.37    0.33
   3  -6  -2    1.95    0.22
   3  -6  -2    2.01    0.29
   3  -6  -2    2.03    0.44
  -3   6   2    2.28    0.29
  -3   6   2    2.34    0.48
  -3   6   2    1.96    0.56
  -3   6   2    1.39    0.39
  -3   6   2    1.99    0.24
   2  -6  -2    0.09    0.39
   2  -6  -2    0.33    0.24
   2  -6  -2   -0.06    0.14
   2  -6  -2    0.42    0.28
   2  -6  -2    0.51    0.41
   2  -6  -2    0.17    0.20
  -2   6   2    0.15    0.14
  -2   6   2    0.02    0.26
  -2   6   2   -0.17    0.11
  -2   6   2   -0.35    0.30
  -2   6   2    0.15    0.33
   1  -6  -2    1.63    0.23
   1  -6  -2    1.65    0.27
   1  -6  -2    1.22    0.40
   1  -6  -2    1.33    0.33
  -1   6   2    1.37    0.17
  -1   6   2    1.16    0.20
  -1   6   2    1.65    0.21
  -1   6   2    1.85    0.36
  -1   6   2    1.88    0.40
  -1   6   2    1.09    0.32
   0  -6  -2    3.60    0.28
   0  -6  -2    3.53    0.52
   0  -6  -2    3.49    0.32
   0  -6  -2    3.13    0.32
   0  -6  -2    3.26    0.43
   0   6   2    3.61    0.46
   0   6   2    2.75    0.44
   0   6   2    3.65    0.48
   0   6   2    3.36    0.28
   0   6   2    3.77    0.35
  -1  -6  -2    0.46    0.30
  -1  -6  -2    0.28    0.10
  -1  -6  -2    0.21    0.08
  -1  -6  -2    0.13    0.19
  -1  -6  -2    0.12    0.17
   1   6   2    0.09    0.19
   1   6   2    0.11    0.22
   1   6   2    0.42    0.15
   1   6   2    0.19    0.16
   1   6   2    0.34    0.23
  -2  -6  -2    0.70    0.23
  -2  -6  -2    0.88    0.30
  -2  -6  -2    0.62    0.22
  -2  -6  -2    0.81    0.12
  -2  -6  -2    0.76    0.15
  -2  -6  -2    0.89    0.11
   2   6   2    0.68    0.25
   2   6   2    0.54    0.19
   2   6   2    0.56    0.24
   2   6   2    0.85    0.24
   2   6   2    0.35    0.28
   2   6   2    0.43    0.19
  -3  -6  -2    0.91    0.26
  -3  -6  -2    0.74    0.31
  -3  -6  -2    1.04    0.21
  -3  -6  -2    1.58    0.21
  -3  -6  -2    1.55    0.35
   3   6   2    1.59    0.30
   3   6   2    1.34    0.36
   3   6   2    1.23    0.32
   3   6   2    1.22    0.15
   3   6   2    0.98    0.28
   3   6   2    0.69    0.28
  -4  -6  -2    1.95    0.41
  -4  -6  -2    2.74    0.44
  -4  -6  -2    1.86    0.30
  -4  -6  -2    1.88    0.31
  -4  -6  -2    1.80    0.27
   4   6   2    2.94    0.51
   4   6   2    2.29    0.35
   4   6   2    2.61    0.39
   4   6   2    1.95    0.37
   4   6   2    2.35    0.34
   4   6   2    2.08    0.25
  -5  -6  -2   17.29    1.09
  -5  -6  -2   18.42    1.24
  -5  -6  -2   19.77    1.18
  -5  -6  -2   18.83    1.16
  -5  -6  -2   19.17    1.07
   5   6   2   18.30    1.26
   5   6   2   18.68    0.93
   5   6   2   18.56    1.26
   5   6   2   17.56    1.12
   5   6   2   17.91    1.11
   5   6   2   17.82    1.10
  -6  -6  -2    1.83    0.53
  -6  -6  -2    2.21    0.49
  -6  -6  -2    2.11    0.39
  -6  -6  -2    1.82    0.44
  -6  -6  -2    1.88    0.33
   6   6   2    1.69    0.52
   6   6   2    2.65    0.57
   6   6   2    2.18    0.45
   6   6   2    2.93    0.44
   6   6   2    2.10    0.43
  -7  -6  -2   -0.42    0.40
  -7  -6  -2   -0.29    0.34
  -7  -6  -2   -0.05    0.26
   7   6   2   -0.15    0.44
   7   6   2    0.15    0.38
   7   6   2    0.07    0.65
   7   6   2    0.10    0.33
  -8  -6  -2   -0.40    0.42
  -8  -6  -2   -0.77    0.43
  -8  -6  -2   -0.63    0.46
   8   6   2    0.33    0.50
   8   6   2    0.27    0.49
  -9  -6  -2    5.06    0.65
  -9  -6  -2    2.61    0.72
  -9  -6  -2    5.92    0.89
   9   6   2    4.12    0.79
   9   6   2    3.79    0.74
 -10  -6  -2    0.15    0.76
 -10  -6  -2    1.46    0.48
 -10  -6  -2    1.39    0.79
  10   6   2    0.82    0.77
  10   6   2    0.60    0.72
   6  -7  -2    0.19    0.84
  -6   7   2    0.49    1.03
  -6   7   2   -0.48    0.72
   5  -7  -2    0.70    0.60
   5  -7  -2    2.22    0.71
   5  -7  -2    1.08    0.47
  -5   7   2    0.40    0.58
  -5   7   2    1.34    0.79
  -5   7   2    1.64    0.46
   4  -7  -2    5.56    0.78
   4  -7  -2    8.01    0.69
   4  -7  -2    5.95    0.86
  -4   7   2    8.88    1.12
  -4   7   2    6.27    0.98
  -4   7   2    7.58    0.95
  -4   7   2    7.35    0.85
   3  -7  -2    1.12    0.37
   3  -7  -2    2.51    0.58
   3  -7  -2    1.26    0.21
   3  -7  -2    2.02    0.42
  -3   7   2    1.14    0.27
  -3   7   2    1.67    0.30
  -3   7   2    1.90    0.58
  -3   7   2    0.81    0.49
  -3   7   2    1.97    0.51
  -3   7   2    1.44    0.42
   2  -7  -2   17.05    0.96
   2  -7  -2   14.36    1.02
   2  -7  -2   16.41    1.37
   2  -7  -2   15.42    1.33
   2  -7  -2   17.49    1.18
  -2   7   2   17.58    0.82
  -2   7   2   16.90    0.95
  -2   7   2   16.78    1.31
  -2   7   2   17.66    1.21
  -2   7   2   15.07    1.12
  -2   7   2   16.88    1.17
   1  -7  -2    0.41    0.21
   1  -7  -2   -0.04    0.28
   1  -7  -2    0.11    0.24
   1  -7  -2    0.94    0.48
   1  -7  -2    0.23    0.16
  -1   7   2    0.04    0.31
  -1   7   2    0.25    0.34
  -1   7   2    0.28    0.32
  -1   7   2    0.26    0.15
  -1   7   2   -0.37    0.35
  -1   7   2    0.18    0.20
   0  -7  -2    9.13    0.56
   0  -7  -2    7.38    0.80
   0  -7  -2    8.98    0.57
   0  -7  -2    8.17    0.57
   0  -7  -2    7.92    0.72
   0   7   2    9.19    0.80
   0   7   2    9.57    0.76
   0   7   2    8.93    0.74
   0   7   2    9.29    0.58
   0   7   2    8.92    0.79
   0   7   2    8.73    0.64
  -1  -7  -2    0.52    0.28
  -1  -7  -2    0.77    0.15
  -1  -7  -2    0.70    0.22
  -1  -7  -2    0.35    0.38
  -1  -7  -2    0.35    0.12
   1   7   2    0.06    0.29
   1   7   2    0.66    0.26
   1   7   2    0.76    0.26
   1   7   2    0.21    0.30
   1   7   2    0.52    0.19
   1   7   2    0.39    0.27
  -2  -7  -2    1.30    0.39
  -2  -7  -2    0.95    0.28
  -2  -7  -2    0.83    0.17
  -2  -7  -2    1.14    0.28
  -2  -7  -2    0.94    0.12
   2   7   2    0.65    0.23
   2   7   2    0.58    0.29
   2   7   2    0.30    0.34
   2   7   2    1.25    0.26
   2   7   2    0.66    0.33
   2   7   2    0.40    0.29
  -3  -7  -2    8.02    0.55
  -3  -7  -2    9.82    0.63
  -3  -7  -2    9.35    0.71
  -3  -7  -2   10.08    0.77
   3   7   2   10.34    0.78
   3   7   2    8.94    0.78
   3   7   2   10.48    0.75
   3   7   2   10.48    0.88
   3   7   2    9.21    0.55
   3   7   2   10.63    0.77
  -4  -7  -2   16.54    1.07
  -4  -7  -2   15.06    0.95
  -4  -7  -2   14.67    0.91
  -4  -7  -2   15.44    0.86
  -4  -7  -2   15.14    1.12
   4   7   2   14.01    0.99
   4   7   2   14.33    1.11
   4   7   2   14.41    1.05
   4   7   2   15.48    1.18
   4   7   2   14.13    1.00
   4   7   2   15.47    0.89
  -5  -7  -2   22.96    1.45
  -5  -7  -2   20.49    1.20
  -5  -7  -2   20.51    1.23
  -5  -7  -2   22.11    1.29
  -5  -7  -2   20.67    1.40
   5   7   2   22.95    1.46
   5   7   2   20.88    1.27
   5   7   2   23.84    1.45
   5   7   2   21.23    1.13
   5   7   2   21.91    1.29
   5   7   2   21.31    1.26
  -6  -7  -2    0.59    0.32
  -6  -7  -2    0.15    0.27
  -6  -7  -2    0.19    0.46
  -6  -7  -2    0.36    0.29
   6   7   2    0.20    0.39
   6   7   2    0.40    0.53
   6   7   2    0.66    0.40
   6   7   2    0.70    0.47
   6   7   2    0.76    0.37
  -7  -7  -2    0.88    0.34
  -7  -7  -2    0.83    0.44
  -7  -7  -2    0.81    0.38
  -7  -7  -2    1.15    0.54
   7   7   2    0.26    0.40
   7   7   2    1.00    0.40
  -8  -7  -2    0.48    0.35
  -8  -7  -2   -0.97    0.55
  -8  -7  -2   -0.73    0.42
  -8  -7  -2    0.39    0.51
   8   7   2   -0.32    0.46
   8   7   2   -0.39    0.49
   8   7   2   -0.34    0.57
  -9  -7  -2    0.37    0.39
  -9  -7  -2    0.82    0.69
  -9  -7  -2    0.02    0.55
   9   7   2    0.34    0.72
   9   7   2   -0.53    0.62
 -10  -7  -2   -0.56    0.86
 -10  -7  -2   -0.56    0.78
 -10  -7  -2    0.89    0.49
  10   7   2    1.75    0.89
  10   7   2    0.89    0.82
   5  -8  -2   -0.47    0.69
   5  -8  -2   -0.64    0.87
  -5   8   2   -0.05    0.73
  -5   8   2    0.10    0.96
   4  -8  -2    2.12    0.73
   4  -8  -2   -0.42    0.41
   4  -8  -2    0.55    0.53
  -4   8   2   -0.23    0.51
  -4   8   2    0.01    0.75
  -4   8   2    0.46    0.58
  -4   8   2   -0.01    0.81
   3  -8  -2    5.63    0.46
   3  -8  -2    3.93    0.61
   3  -8  -2    5.17    0.69
   3  -8  -2    6.25    0.88
  -3   8   2    4.26    0.81
  -3   8   2    6.31    0.85
  -3   8   2    5.19    0.73
  -3   8   2    5.14    0.50
  -3   8   2    5.93    0.95
   2  -8  -2    3.20    0.62
   2  -8  -2    3.25    0.45
   2  -8  -2    3.32    0.50
  -2   8   2    3.96    0.35
  -2   8   2    2.77    0.60
  -2   8   2    3.58    0.72
  -2   8   2    2.71    0.67
  -2   8   2    3.40    0.61
   1  -8  -2    2.26    0.48
   1  -8  -2    3.12    0.71
   1  -8  -2    1.46    0.34
   1  -8  -2    1.62    0.32
  -1   8   2    1.19    0.32
  -1   8   2    1.98    0.49
  -1   8   2    1.58    0.50
  -1   8   2    1.23    0.49
  -1   8   2    1.09    0.53
  -1   8   2    1.61    0.26
   0  -8  -2    3.23    0.71
   0  -8  -2    3.40    0.41
   0  -8  -2    3.52    0.43
   0  -8  -2    3.20    0.52
   0  -8  -2    3.20    0.37
   0   8   2    4.94    0.50
   0   8   2    3.55    0.63
   0   8   2    3.21    0.41
   0   8   2    3.46    0.58
   0   8   2    4.34    0.61
   0   8   2    3.41    0.57
  -1  -8  -2    0.04    0.31
  -1  -8  -2    0.02    0.17
  -1  -8  -2    0.50    0.28
  -1  -8  -2    0.66    0.52
   1   8   2    0.56    0.40
   1   8   2   -0.10    0.23
   1   8   2    0.39    0.32
   1   8   2    0.21    0.37
   1   8   2    0.49    0.36
   1   8   2    0.40    0.31
  -2  -8  -2   10.62    0.97
  -2  -8  -2    9.62    0.60
  -2  -8  -2    9.88    0.82
  -2  -8  -2   10.79    0.77
  -2  -8  -2    9.10    0.52
   2   8   2    9.74    0.74
   2   8   2    9.73    0.82
   2   8   2    9.34    0.88
   2   8   2    9.44    0.90
   2   8   2    9.70    0.98
   2   8   2   10.46    0.77
  -3  -8  -2    0.21    0.09
  -3  -8  -2   -0.19    0.35
  -3  -8  -2    0.37    0.46
  -3  -8  -2    0.51    0.32
  -3  -8  -2    0.20    0.11
  -3  -8  -2    0.31    0.16
   3   8   2    0.56    0.33
   3   8   2    0.49    0.40
   3   8   2    0.86    0.41
   3   8   2    0.52    0.37
  -4  -8  -2    0.83    0.24
  -4  -8  -2    0.63    0.17
  -4  -8  -2    1.22    0.46
  -4  -8  -2    0.43    0.29
  -4  -8  -2   -0.86    0.42
   4   8   2    0.68    0.35
   4   8   2    0.38    0.27
   4   8   2    0.67    0.46
   4   8   2    0.03    0.47
   4   8   2    0.10    0.39
  -5  -8  -2    0.39    0.54
  -5  -8  -2    1.04    0.24
  -5  -8  -2    1.28    0.37
  -5  -8  -2    0.97    0.30
  -5  -8  -2    1.40    0.51
   5   8   2    0.22    0.52
   5   8   2    1.18    0.50
   5   8   2    0.87    0.38
   5   8   2    1.20    0.28
  -6  -8  -2    0.27    0.25
  -6  -8  -2    0.29    0.32
  -6  -8  -2    0.20    0.51
   6   8   2    0.23    0.21
   6   8   2   -0.40    0.50
   6   8   2   -0.35    0.36
   6   8   2    1.02    0.62
  -7  -8  -2    0.87    0.46
  -7  -8  -2    0.65    0.37
  -7  -8  -2    0.79    0.63
  -7  -8  -2    0.73    0.35
   7   8   2    0.99    0.46
   7   8   2    0.67    0.58
  -8  -8  -2    2.42    0.63
  -8  -8  -2    3.88    0.60
  -8  -8  -2    2.10    0.48
  -8  -8  -2    3.32    0.83
   8   8   2    3.15    0.66
   8   8   2    0.78    0.67
  -9  -8  -2    0.69    0.57
  -9  -8  -2   -0.25    0.66
  -9  -8  -2    0.47    0.45
   9   8   2   -0.46    0.69
   9   8   2   -0.28    0.76
   4  -9  -2   -0.92    0.61
   4  -9  -2    0.00    0.90
  -4   9   2    1.73    0.83
  -4   9   2   -1.35    0.88
   3  -9  -2    0.61    0.57
   3  -9  -2   -0.67    0.67
   3  -9  -2    0.80    0.28
  -3   9   2    0.84    0.60
  -3   9   2    0.59    0.66
  -3   9   2    1.73    0.87
   2  -9  -2    0.05    0.30
   2  -9  -2    0.09    0.39
   2  -9  -2    0.43    0.36
   2  -9  -2    0.28    0.38
  -2   9   2    0.12    0.56
  -2   9   2    0.57    0.54
  -2   9   2    0.79    0.68
   1  -9  -2   -0.41    0.32
   1  -9  -2    0.04    0.31
   1  -9  -2   -0.11    0.28
   1  -9  -2    0.26    0.51
  -1   9   2   -0.27    0.54
  -1   9   2   -0.55    0.49
  -1   9   2   -0.09    0.50
   0  -9  -2    2.01    0.41
   0  -9  -2    2.90    0.61
   0  -9  -2    2.43    0.48
   0   9   2    2.48    0.60
   0   9   2    1.78    0.59
   0   9   2    4.34    0.66
  -1  -9  -2   10.14    0.92
  -1  -9  -2   10.84    1.18
  -1  -9  -2    7.87    0.57
  -1  -9  -2    8.77    0.80
   1   9   2    9.26    0.75
   1   9   2    7.91    0.85
   1   9   2    8.45    1.02
   1   9   2    7.80    0.93
  -2  -9  -2    1.28    0.63
  -2  -9  -2    0.36    0.17
  -2  -9  -2    0.61    0.39
  -2  -9  -2    0.38    0.40
   2   9   2    0.84    0.55
   2   9   2    0.38    0.41
   2   9   2    0.29    0.31
  -3  -9  -2    8.11    0.90
  -3  -9  -2    6.62    0.88
  -3  -9  -2    7.15    0.52
   3   9   2    5.41    0.52
   3   9   2    7.22    0.93
   3   9   2    7.98    0.82
   3   9   2    7.09    0.82
  -4  -9  -2    3.43    0.34
  -4  -9  -2    4.38    0.70
  -4  -9  -2    3.96    0.58
  -4  -9  -2    4.16    0.76
  -4  -9  -2    3.61    0.25
   4   9   2    4.00    0.78
   4   9   2    3.98    0.58
   4   9   2    4.07    0.66
   4   9   2    3.11    0.52
  -5  -9  -2    0.44    0.19
  -5  -9  -2   -0.41    0.62
  -5  -9  -2    0.73    0.37
  -5  -9  -2    1.38    0.28
   5   9   2    0.91    0.55
   5   9   2    1.02    0.46
   5   9   2    1.25    0.34
   5   9   2    0.43    0.57
  -6  -9  -2   -0.36    0.29
  -6  -9  -2   -0.51    0.74
  -6  -9  -2   -0.05    0.35
  -6  -9  -2    0.22    0.24
   6   9   2    0.69    0.63
   6   9   2    0.81    0.48
   6   9   2   -0.13    0.26
  -7  -9  -2    0.79    0.43
  -7  -9  -2    0.18    0.40
  -7  -9  -2    0.62    0.57
   7   9   2    0.04    0.62
   7   9   2    0.26    0.55
  -8  -9  -2    1.17    0.58
  -8  -9  -2    1.57    0.49
  -8  -9  -2    1.48    0.46
   8   9   2    1.39    0.83
  -9  -9  -2    1.03    0.56
  -9  -9  -2    1.99    0.55
  -9  -9  -2    0.31    0.68
   9   9   2    0.07    0.86
   3 -10  -2   -0.56    0.61
   3 -10  -2   -1.10    0.95
  -3  10   2    0.96    0.94
  -3  10   2    0.37    0.92
   2 -10  -2    0.39    0.52
   2 -10  -2   -0.92    0.45
   2 -10  -2    1.04    0.52
   2 -10  -2   -0.18    0.80
  -2  10   2   -0.89    0.77
  -2  10   2    0.10    0.64
  -2  10   2   -0.23    0.73
   1 -10  -2    2.55    0.70
   1 -10  -2    1.44    0.45
   1 -10  -2    1.81    0.46
  -1  10   2    1.17    0.69
  -1  10   2    1.34    0.72
  -1  10   2    2.46    0.73
   0 -10  -2    0.80    0.30
   0 -10  -2    0.49    0.60
   0 -10  -2    0.01    0.49
   0 -10  -2    0.41    0.43
   0  10   2    0.58    0.59
   0  10   2    1.00    0.58
  -1 -10  -2   -0.20    0.50
  -1 -10  -2   -0.57    0.21
  -1 -10  -2   -0.26    0.54
  -1 -10  -2   -0.01    0.43
   1  10   2    0.92    0.56
   1  10   2    0.43    0.50
  -2 -10  -2    2.59    0.58
  -2 -10  -2    2.55    0.93
  -2 -10  -2    3.35    0.41
  -2 -10  -2    3.24    0.64
   2  10   2    2.36    0.68
   2  10   2    3.36    0.72
   2  10   2    3.62    0.51
  -3 -10  -2    2.20    0.31
  -3 -10  -2    2.42    0.57
  -3 -10  -2    1.23    0.64
  -3 -10  -2    2.33    0.87
   3  10   2    1.93    0.66
   3  10   2    2.18    0.33
   3  10   2    2.94    0.63
   3  10   2    2.04    0.60
  -4 -10  -2    0.33    0.45
  -4 -10  -2    2.22    0.78
  -4 -10  -2    1.86    0.32
   4  10   2    0.98    0.64
   4  10   2    1.16    0.57
   4  10   2    1.60    0.48
  -5 -10  -2    0.24    0.29
  -5 -10  -2   -0.22    0.42
  -5 -10  -2    0.14    0.13
  -5 -10  -2    0.11    0.79
  -5 -10  -2    0.39    0.21
  -5 -10  -2    0.86    0.31
   5  10   2    0.87    0.59
   5  10   2    0.21    0.40
   5  10   2    0.01    0.60
  -6 -10  -2   -0.08    0.46
  -6 -10  -2   -0.22    0.32
   6  10   2   -0.69    0.36
   6  10   2   -0.94    0.66
   6  10   2   -0.81    0.59
  -7 -10  -2    1.53    0.57
  -7 -10  -2    2.24    0.39
  -7 -10  -2    1.99    0.47
   7  10   2    3.37    0.91
  -8 -10  -2    0.50    0.41
  -8 -10  -2   -0.43    0.56
  -8 -10  -2    0.61    0.54
   8  10   2   -0.49    0.86
   2 -11  -2   -1.53    0.97
   2 -11  -2    0.06    0.69
   2 -11  -2    0.21    0.64
  -2  11   2    0.50    1.07
  -2  11   2   -0.22    0.86
  -2  11   2    0.07    0.93
   1 -11  -2    1.43    0.96
   1 -11  -2    0.67    0.53
   1 -11  -2    1.25    0.56
  -1  11   2    0.07    0.80
  -1  11   2    0.75    0.88
  -1  11   2    0.85    0.92
   0 -11  -2    0.96    0.52
   0 -11  -2   -1.52    0.73
   0 -11  -2    0.29    0.42
   0  11   2    1.41    0.81
   0  11   2    1.68    0.74
  -1 -11  -2    1.95    0.59
  -1 -11  -2    1.81    0.41
  -1 -11  -2    2.22    0.73
   1  11   2    1.97    0.70
   1  11   2    1.51    0.62
   1  11   2    1.40    0.79
  -2 -11  -2   -0.09    0.52
  -2 -11  -2    0.19    0.61
  -2 -11  -2   -0.04    0.25
   2  11   2   -0.42    0.73
   2  11   2   -0.27    0.45
   2  11   2   -0.31    0.66
  -3 -11  -2   -0.51    1.22
  -3 -11  -2    0.30    0.23
  -3 -11  -2   -1.14    0.57
   3  11   2   -0.16    0.32
   3  11   2   -0.38    0.65
   3  11   2   -0.03    0.73
  -4 -11  -2    0.64    0.29
  -4 -11  -2    0.98    0.62
  -4 -11  -2    1.20    1.12
   4  11   2    0.79    0.70
   4  11   2    0.70    0.72
   4  11   2    0.16    0.58
  -5 -11  -2   -0.22    0.26
  -5 -11  -2    1.44    0.60
   5  11   2   -0.46    0.67
   5  11   2    0.38    0.57
   5  11   2   -1.25    0.75
  -6 -11  -2    0.69    0.62
  -6 -11  -2    0.21    0.25
  -6 -11  -2    0.18    0.37
   6  11   2    0.75    0.84
  -7 -11  -2    0.05    0.33
  -7 -11  -2    0.00    0.41
  -7 -11  -2    0.06    0.61
   7  11   2   -0.44    0.96
   0 -12  -2   -0.05    0.56
   0 -12  -2    0.91    0.72
   0 -12  -2    1.70    1.04
   0  12   2    2.03    0.97
   0  12   2    1.24    1.15
   0  12   2   -0.53    0.87
  -1 -12  -2    0.43    0.88
  -1 -12  -2   -0.72    0.66
  -1 -12  -2    0.71    0.47
   1  12   2   -0.01    0.81
   1  12   2   -2.66    0.98
   1  12   2   -0.65    0.96
  -2 -12  -2   -0.30    0.67
  -2 -12  -2    2.05    0.86
  -2 -12  -2    0.27    0.37
   2  12   2    0.60    0.95
   2  12   2   -2.30    0.89
  -3 -12  -2   -0.17    0.32
  -3 -12  -2    0.59    0.74
  -3 -12  -2    0.16    0.72
   3  12   2   -1.50    0.87
   3  12   2    0.31    0.83
   3  12   2   -0.39    0.80
  -4 -12  -2    0.25    0.77
  -4 -12  -2    0.52    0.32
   4  12   2   -0.25    0.93
   4  12   2   -0.03    0.96
  -5 -12  -2    2.65    0.42
  -5 -12  -2    3.59    0.85
   5  12   2    3.37    1.11
  -6 -12  -2   -0.13    0.42
  -6 -12  -2    0.33    0.80
   6  12   2    2.47    1.20
   5  11  -3    0.25    0.88
   5  11  -3    1.04    0.85
  -5 -11   3    0.92    0.79
  -5 -11   3    1.19    0.40
  -5 -11   3    0.23    0.71
   4  11  -3    0.54    0.78
   4  11  -3    0.41    0.93
  -4 -11   3   -0.08    0.37
  -4 -11   3    0.95    0.74
  -4 -11   3    0.75    0.74
   3  11  -3    1.28    0.94
   3  11  -3    0.77    0.78
  -3 -11   3    0.13    0.78
  -3 -11   3    0.50    0.71
  -3 -11   3    0.07    0.39
   2  11  -3    5.27    1.15
   2  11  -3    2.48    0.84
  -2 -11   3    2.61    0.72
  -2 -11   3    3.90    0.90
  -2 -11   3    4.18    0.62
   1  11  -3    1.67    1.03
   1  11  -3   -0.32    0.71
  -1 -11   3   -2.33    0.81
  -1 -11   3   -0.06    0.53
  -1 -11   3    1.91    0.73
   0  11  -3    0.18    1.12
   0  11  -3    1.08    0.75
   0  11  -3    0.91    0.75
   0 -11   3    0.92    0.97
   0 -11   3   -0.08    0.61
   0 -11   3    0.57    0.67
   7  10  -3    4.42    1.07
   7  10  -3    4.61    0.98
  -7 -10   3    3.93    0.69
  -7 -10   3    3.86    1.01
  -7 -10   3    3.30    0.52
   6  10  -3    0.82    0.82
   6  10  -3    0.53    0.80
  -6 -10   3    1.16    0.70
  -6 -10   3    0.97    0.34
  -6 -10   3    0.93    0.57
   5  10  -3    0.19    0.70
   5  10  -3   -0.96    0.70
  -5 -10   3   -0.46    0.60
  -5 -10   3   -0.06    0.28
  -5 -10   3    0.26    0.56
   4  10  -3    0.30    0.68
   4  10  -3   -0.92    0.57
  -4 -10   3    0.55    0.57
  -4 -10   3    0.43    0.54
  -4 -10   3   -0.04    0.25
   3  10  -3   -0.42    0.59
   3  10  -3    1.11    0.69
   3  10  -3   -0.16    0.67
  -3 -10   3    0.39    0.57
  -3 -10   3    0.20    0.27
  -3 -10   3   -0.02    0.49
   2  10  -3    1.26    0.78
   2  10  -3    1.83    0.63
   2  10  -3    3.21    0.72
  -2 -10   3    2.95    0.69
  -2 -10   3    2.64    0.45
  -2 -10   3    2.30    0.64
   1  10  -3    0.46    0.47
   1  10  -3    0.14    0.54
   1  10  -3   -0.11    0.81
   1  10  -3    0.90    0.77
  -1 -10   3   -0.73    0.64
  -1 -10   3    1.34    0.42
  -1 -10   3   -0.40    1.05
  -1 -10   3    0.76    0.53
   0  10  -3    0.22    0.53
   0  10  -3    0.06    0.84
   0 -10   3    0.43    0.54
   0 -10   3    0.49    0.71
   0 -10   3   -0.59    0.46
  -1  10  -3    0.12    0.64
  -1  10  -3   -1.84    0.87
  -1  10  -3    1.14    0.59
   1 -10   3   -0.11    0.52
   1 -10   3    0.79    0.81
   1 -10   3    0.11    0.60
  -2  10  -3    0.33    1.04
  -2  10  -3    0.20    0.82
   2 -10   3   -0.10    0.69
   2 -10   3    0.38    0.57
   2 -10   3    0.20    0.60
   2 -10   3    0.48    1.01
   8   9  -3   -0.12    0.83
   8   9  -3    1.31    0.95
  -8  -9   3    0.66    0.44
  -8  -9   3    0.16    0.82
   7   9  -3    0.44    0.78
   7   9  -3    0.44    0.68
  -7  -9   3    0.33    0.42
  -7  -9   3   -0.31    0.35
  -7  -9   3    1.16    0.72
   6   9  -3    1.36    0.67
   6   9  -3    2.08    0.65
  -6  -9   3    1.77    0.35
  -6  -9   3    1.90    0.69
  -6  -9   3    0.70    0.46
   5   9  -3    1.26    0.60
   5   9  -3    0.07    0.57
   5   9  -3   -0.12    0.50
  -5  -9   3    1.57    0.55
  -5  -9   3    1.35    0.28
  -5  -9   3    1.34    0.46
   4   9  -3    2.69    0.68
   4   9  -3    1.72    0.61
   4   9  -3    2.00    0.62
  -4  -9   3    2.21    0.30
  -4  -9   3    2.15    0.69
  -4  -9   3    2.68    0.61
  -4  -9   3    2.19    0.55
  -4  -9   3    2.48    0.37
   3   9  -3    6.17    0.94
   3   9  -3    6.15    0.75
   3   9  -3    5.32    0.51
   3   9  -3    5.78    0.77
  -3  -9   3    5.94    0.76
  -3  -9   3    4.45    0.67
  -3  -9   3    5.84    0.87
  -3  -9   3    4.95    0.46
  -3  -9   3    4.69    0.64
   2   9  -3    2.92    0.61
   2   9  -3    2.03    0.58
   2   9  -3    2.91    0.74
   2   9  -3    1.96    0.33
  -2  -9   3    2.56    0.71
  -2  -9   3    2.12    0.61
  -2  -9   3    2.02    0.50
  -2  -9   3    2.04    0.53
  -2  -9   3    1.96    0.34
   1   9  -3    5.40    0.89
   1   9  -3    4.01    0.43
   1   9  -3    5.14    0.70
   1   9  -3    5.23    0.73
   1   9  -3    4.02    0.66
  -1  -9   3    5.24    0.74
  -1  -9   3    4.56    0.53
  -1  -9   3    4.13    0.74
  -1  -9   3    4.51    0.83
   0   9  -3    0.50    0.24
   0   9  -3    0.66    0.46
   0   9  -3    0.67    0.45
   0   9  -3    0.47    0.62
   0  -9   3    0.41    0.35
   0  -9   3    0.59    0.83
   0  -9   3    0.89    0.47
   0  -9   3    0.42    0.59
   0  -9   3    1.15    0.76
  -1   9  -3   -0.02    0.24
  -1   9  -3    0.29    0.41
   1  -9   3    0.23    0.43
   1  -9   3    0.26    0.42
   1  -9   3   -0.85    0.63
  -2   9  -3    0.32    0.71
  -2   9  -3   -1.07    0.73
  -2   9  -3    1.10    0.66
  -2   9  -3    0.33    0.43
   2  -9   3    0.36    0.76
   2  -9   3   -0.03    0.56
   2  -9   3   -0.32    0.44
   2  -9   3    0.38    0.42
  -3   9  -3    1.72    0.84
  -3   9  -3    1.19    0.94
  -3   9  -3    0.85    0.91
   3  -9   3    1.74    1.01
   3  -9   3    0.48    0.49
   3  -9   3    0.97    0.61
  -4   9  -3   -1.64    1.21
  -4   9  -3    0.61    1.03
  -4   9  -3   -0.03    1.01
   4  -9   3    0.59    1.15
   4  -9   3    1.99    0.85
   8   8  -3    0.75    0.79
  -8  -8   3    2.11    0.48
  -8  -8   3    1.87    0.79
   7   8  -3    1.01    0.66
   7   8  -3    1.01    0.64
  -7  -8   3    0.49    0.31
  -7  -8   3   -0.01    0.23
  -7  -8   3    0.05    0.56
  -7  -8   3    0.83    0.35
   6   8  -3   -0.09    0.54
   6   8  -3    0.07    0.51
  -6  -8   3   -0.56    0.33
  -6  -8   3    0.70    0.52
  -6  -8   3    0.09    0.14
  -6  -8   3    0.42    0.47
  -6  -8   3    0.44    0.27
   5   8  -3    0.12    0.49
   5   8  -3    0.44    0.50
  -5  -8   3    0.36    0.43
  -5  -8   3    0.30    0.42
  -5  -8   3    0.41    0.35
  -5  -8   3    0.31    0.21
   4   8  -3    1.23    0.50
   4   8  -3    2.69    0.47
   4   8  -3    1.59    0.54
  -4  -8   3    1.80    0.44
  -4  -8   3    1.64    0.48
  -4  -8   3    1.42    0.49
  -4  -8   3    1.43    0.25
  -4  -8   3    1.76    0.33
   3   8  -3    1.41    0.53
   3   8  -3    1.97    0.25
   3   8  -3    1.88    0.47
   3   8  -3    2.41    0.57
  -3  -8   3    1.46    0.49
  -3  -8   3    1.86    0.47
  -3  -8   3    2.47    0.32
  -3  -8   3    1.95    0.42
   2   8  -3    0.73    0.41
   2   8  -3    0.69    0.44
   2   8  -3    0.56    0.21
   2   8  -3    0.49    0.50
  -2  -8   3    0.70    0.35
  -2  -8   3    0.50    0.19
  -2  -8   3    0.99    0.43
  -2  -8   3    0.74    0.49
   1   8  -3    0.19    0.49
   1   8  -3    0.32    0.28
   1   8  -3    0.17    0.18
   1   8  -3    0.26    0.44
   1   8  -3    0.42    0.37
  -1  -8   3    0.44    0.46
  -1  -8   3   -0.04    0.19
  -1  -8   3    0.22    0.36
  -1  -8   3   -0.73    0.65
  -1  -8   3   -0.39    0.54
   0   8  -3    7.53    0.86
   0   8  -3    4.52    0.62
   0   8  -3    6.66    0.72
   0  -8   3    6.99    0.74
   0  -8   3    6.70    0.84
   0  -8   3    5.60    0.84
   0  -8   3    5.40    0.74
  -1   8  -3    1.58    0.50
  -1   8  -3    1.18    0.21
  -1   8  -3    1.27    0.41
   1  -8   3    3.15    0.62
   1  -8   3    1.94    0.78
   1  -8   3    2.06    0.45
   1  -8   3    1.00    0.81
   1  -8   3    1.66    0.40
  -2   8  -3   -0.24    0.33
  -2   8  -3    0.78    0.52
  -2   8  -3    0.55    0.22
   2  -8   3    0.18    0.37
   2  -8   3    0.19    0.35
   2  -8   3   -0.26    0.42
   2  -8   3   -0.34    0.58
  -3   8  -3    2.50    0.75
  -3   8  -3    3.10    0.76
  -3   8  -3    1.98    0.75
   3  -8   3    2.32    0.54
   3  -8   3    1.55    0.45
   3  -8   3    2.05    0.84
  -4   8  -3   -0.96    0.79
  -4   8  -3   -0.72    0.89
  -4   8  -3   -0.51    0.79
   4  -8   3    0.53    0.89
   4  -8   3    0.23    0.67
   4  -8   3    0.37    0.46
  -5   8  -3    1.29    0.93
  -5   8  -3    2.17    1.23
  -5   8  -3   -0.40    0.96
   5  -8   3    2.79    1.16
   5  -8   3    0.59    0.83
  -9  -7   3   -0.14    0.53
  -9  -7   3   -0.46    0.77
   8   7  -3   -0.17    0.65
  -8  -7   3    0.60    0.44
  -8  -7   3    0.76    0.64
  -8  -7   3   -0.29    0.43
   7   7  -3    0.23    0.52
   7   7  -3   -0.03    0.55
  -7  -7   3   -0.34    0.29
  -7  -7   3   -0.60    0.45
  -7  -7   3    0.58    0.35
  -7  -7   3    0.38    0.32
   6   7  -3    2.36    0.56
   6   7  -3    2.36    0.25
   6   7  -3    2.04    0.25
   6   7  -3    1.67    0.51
  -6  -7   3    1.83    0.27
  -6  -7   3    1.76    0.32
  -6  -7   3    1.79    0.53
  -6  -7   3    1.96    0.28
  -6  -7   3    1.97    0.34
   5   7  -3    8.43    0.61
   5   7  -3    7.30    0.58
   5   7  -3    7.23    0.82
   5   7  -3    6.09    0.80
  -5  -7   3    5.74    0.39
  -5  -7   3    7.77    0.56
  -5  -7   3    6.66    0.40
  -5  -7   3    6.52    0.53
  -5  -7   3    6.07    0.68
  -5  -7   3    7.19    0.60
  -5  -7   3    8.05    0.52
  -5  -7   3    6.98    0.90
   4   7  -3   15.93    0.95
   4   7  -3   16.31    1.17
   4   7  -3   14.85    1.14
   4   7  -3   14.04    1.20
  -4  -7   3   16.20    1.14
  -4  -7   3   15.21    0.98
  -4  -7   3   15.45    0.86
  -4  -7   3   16.39    1.02
  -4  -7   3   14.18    0.93
   3   7  -3    0.09    0.38
   3   7  -3    0.35    0.35
   3   7  -3    0.20    0.14
   3   7  -3    0.07    0.31
   3   7  -3   -0.14    0.29
   3   7  -3    0.01    0.36
  -3  -7   3    0.23    0.31
  -3  -7   3   -0.07    0.13
  -3  -7   3   -0.10    0.26
  -3  -7   3   -0.04    0.34
  -3  -7   3    0.24    0.55
   2   7  -3    3.33    0.30
   2   7  -3    3.28    0.45
   2   7  -3    3.42    0.49
   2   7  -3    3.23    0.53
   2   7  -3    3.88    0.52
   2   7  -3    4.31    0.67
  -2  -7   3    3.98    0.70
  -2  -7   3    3.00    0.32
  -2  -7   3    2.07    0.42
  -2  -7   3    3.34    0.54
  -2  -7   3    3.74    0.53
   1   7  -3    0.39    0.25
   1   7  -3    0.58    0.41
   1   7  -3    0.66    0.33
   1   7  -3    0.18    0.24
   1   7  -3    0.48    0.14
   1   7  -3    0.38    0.32
  -1  -7   3    1.14    0.44
  -1  -7   3    0.03    0.38
  -1  -7   3    0.51    0.17
  -1  -7   3    0.51    0.54
  -1  -7   3    0.17    0.31
  -1  -7   3    0.29    0.27
   0   7  -3   11.02    0.83
   0   7  -3   12.06    0.94
   0   7  -3   10.14    0.87
   0   7  -3    9.54    0.57
   0   7  -3   10.26    0.86
   0   7  -3   10.99    0.71
   0  -7   3   10.73    1.02
   0  -7   3   11.35    0.94
   0  -7   3   11.03    0.73
   0  -7   3    9.82    0.83
   0  -7   3   11.64    1.02
  -1   7  -3    0.81    0.29
  -1   7  -3    1.32    0.51
  -1   7  -3    0.81    0.40
  -1   7  -3    1.13    0.16
   1  -7   3    0.71    0.27
   1  -7   3    0.47    0.54
   1  -7   3    0.86    0.31
   1  -7   3    1.21    0.57
   1  -7   3    1.29    0.47
  -2   7  -3    0.64    0.23
  -2   7  -3    0.43    0.42
  -2   7  -3    0.37    0.26
  -2   7  -3    0.11    0.50
   2  -7   3    0.26    0.27
   2  -7   3    0.09    0.47
   2  -7   3   -0.23    0.71
   2  -7   3    0.21    0.27
   2  -7   3   -0.19    0.58
  -3   7  -3    0.96    0.35
  -3   7  -3    0.02    0.58
  -3   7  -3    0.70    0.48
  -3   7  -3    0.65    0.58
   3  -7   3    1.15    0.62
   3  -7   3    0.06    0.37
   3  -7   3    0.70    0.35
  -4   7  -3   -0.14    0.61
  -4   7  -3    0.22    0.49
  -4   7  -3   -1.32    0.63
   4  -7   3    0.43    0.68
   4  -7   3   -0.63    0.50
   4  -7   3   -0.07    0.34
  -5   7  -3    0.60    0.77
  -5   7  -3    1.06    0.76
  -5   7  -3   -0.13    0.93
   5  -7   3    0.18    0.63
   5  -7   3   -1.55    0.80
   5  -7   3   -0.06    0.48
  -6   7  -3    1.37    1.30
  -6   7  -3    3.06    1.07
  -6   7  -3    2.10    1.00
   6  -7   3    1.55    1.00
   6  -7   3    1.24    1.27
  -9  -6   3    0.09    0.56
  -9  -6   3   -0.36    0.67
   8   6  -3    0.29    0.56
  -8  -6   3    0.02    0.51
  -8  -6   3    0.59    0.42
  -8  -6   3    1.11    0.46
  -8  -6   3    1.15    0.56
   7   6  -3    0.03    0.46
  -7  -6   3    0.61    0.34
  -7  -6   3    0.16    0.74
  -7  -6   3   -0.18    0.37
  -7  -6   3    0.10    0.35
  -7  -6   3    0.04    0.36
   6   6  -3    7.84    0.85
  -6  -6   3    7.09    0.49
  -6  -6   3    7.81    0.61
  -6  -6   3    7.14    0.94
  -6  -6   3    7.97    0.60
  -6  -6   3    8.09    0.53
  -6  -6   3    8.39    0.86
  -6  -6   3    8.21    1.07
  -6  -6   3    7.89    0.66
  -6  -6   3    8.85    0.65
  -6  -6   3    8.38    0.66
   5   6  -3    2.45    0.46
   5   6  -3    2.71    0.34
   5   6  -3    2.46    0.28
   5   6  -3    2.07    0.48
  -5  -6   3    2.58    0.32
  -5  -6   3    4.07    0.69
  -5  -6   3    2.57    0.63
  -5  -6   3    2.97    0.38
  -5  -6   3    2.81    0.36
  -5  -6   3    2.46    0.34
  -5  -6   3    2.17    0.30
  -5  -6   3    2.44    0.50
  -5  -6   3    2.01    0.26
  -5  -6   3    2.29    0.71
   4   6  -3    2.43    0.46
   4   6  -3    1.88    0.29
   4   6  -3    1.56    0.44
   4   6  -3    2.28    0.45
  -4  -6   3    1.69    0.37
  -4  -6   3    2.69    0.35
  -4  -6   3    2.38    0.19
  -4  -6   3    1.67    0.32
  -4  -6   3    1.88    0.28
  -4  -6   3    1.58    0.24
   3   6  -3    0.29    0.22
   3   6  -3    0.40    0.24
   3   6  -3    0.43    0.31
   3   6  -3   -0.12    0.29
   3   6  -3    0.49    0.28
  -3  -6   3    0.24    0.23
  -3  -6   3    0.22    0.26
  -3  -6   3    0.36    0.13
  -3  -6   3    0.40    0.26
  -3  -6   3    0.66    0.22
  -3  -6   3    0.04    0.46
  -3  -6   3    0.80    0.32
   2   6  -3    0.64    0.11
   2   6  -3    0.99    0.25
   2   6  -3    0.95    0.28
   2   6  -3    0.38    0.28
   2   6  -3    0.86    0.35
   2   6  -3    0.73    0.30
  -2  -6   3    0.31    0.26
  -2  -6   3    0.42    0.24
  -2  -6   3    0.43    0.25
  -2  -6   3    0.47    0.14
  -2  -6   3    0.45    0.42
   1   6  -3    1.08    0.24
   1   6  -3    1.27    0.18
   1   6  -3    1.53    0.34
   1   6  -3    1.08    0.26
   1   6  -3    1.58    0.35
   1   6  -3    1.51    0.40
   1   6  -3    1.33    0.32
  -1  -6   3    1.50    0.21
  -1  -6   3    0.71    0.43
  -1  -6   3    1.32    0.36
  -1  -6   3    1.13    0.31
  -1  -6   3    1.44    0.34
  -1  -6   3    1.86    0.34
   0   6  -3    0.89    0.34
   0   6  -3    1.86    0.11
   0   6  -3    2.11    0.28
   0   6  -3    2.34    0.36
   0   6  -3    1.15    0.32
   0   6  -3    2.16    0.38
   0   6  -3    2.10    0.15
   0   6  -3    2.24    0.17
   0  -6   3    2.49    0.32
   0  -6   3    2.44    0.45
   0  -6   3    2.18    0.47
   0  -6   3    2.36    0.37
   0  -6   3    1.43    0.36
   0  -6   3    1.66    0.43
  -1   6  -3    0.52    0.23
  -1   6  -3    0.48    0.16
  -1   6  -3    0.73    0.34
  -1   6  -3    0.45    0.30
  -1   6  -3    0.42    0.16
   1  -6   3    1.02    0.39
   1  -6   3    0.32    0.35
   1  -6   3    0.68    0.36
   1  -6   3    0.64    0.24
   1  -6   3    0.71    0.24
   1  -6   3    0.55    0.42
  -2   6  -3    4.92    0.66
  -2   6  -3    4.70    0.47
  -2   6  -3    4.30    0.65
  -2   6  -3    4.80    0.47
  -2   6  -3    4.79    0.68
   2  -6   3    5.72    0.72
   2  -6   3    5.19    0.53
   2  -6   3    6.01    0.76
   2  -6   3    4.73    0.49
   2  -6   3    4.94    0.57
   2  -6   3    5.36    0.78
  -3   6  -3    0.45    0.40
  -3   6  -3   -0.23    0.49
  -3   6  -3    0.07    0.30
  -3   6  -3    0.01    0.41
  -3   6  -3    0.18    0.41
   3  -6   3   -0.16    0.69
   3  -6   3    0.53    0.57
   3  -6   3    0.58    0.32
   3  -6   3   -0.13    0.45
   3  -6   3    0.18    0.26
  -4   6  -3   11.46    1.21
  -4   6  -3   12.64    1.24
  -4   6  -3   10.02    1.20
  -4   6  -3    9.90    1.14
  -4   6  -3   11.32    0.96
   4  -6   3   11.35    1.21
   4  -6   3   10.33    0.84
   4  -6   3   11.12    1.01
  -5   6  -3   -0.18    0.64
  -5   6  -3    1.10    0.73
  -5   6  -3    1.02    0.59
   5  -6   3    0.64    0.40
   5  -6   3    1.76    0.78
   5  -6   3    1.02    0.55
  -6   6  -3    2.78    1.03
  -6   6  -3    0.27    0.78
  -6   6  -3    2.34    0.86
   6  -6   3    1.46    0.82
   6  -6   3    2.68    0.58
  -7   6  -3   -0.05    1.32
  -7   6  -3    2.28    1.03
  -7   6  -3    0.96    1.04
   7  -6   3    2.79    1.01
   7  -6   3    1.31    0.99
   7  -6   3    0.66    1.31
  -9  -5   3   -0.46    0.56
  -9  -5   3    1.25    0.62
  -9  -5   3   -0.09    0.69
  -8  -5   3    2.21    0.60
  -8  -5   3    3.93    0.63
  -8  -5   3    2.96    0.64
  -8  -5   3    2.51    0.54
   7   5  -3    1.19    0.47
  -7  -5   3   -0.06    0.36
  -7  -5   3    0.69    0.43
  -7  -5   3    0.54    0.35
  -7  -5   3    0.27    0.39
  -7  -5   3    1.20    0.41
  -7  -5   3    0.21    0.66
   6   5  -3    0.08    0.36
   6   5  -3    0.30    0.33
  -6  -5   3   -0.25    0.33
  -6  -5   3    0.21    0.24
  -6  -5   3    0.05    0.26
  -6  -5   3    0.12    0.30
  -6  -5   3    0.20    0.28
  -6  -5   3   -0.79    0.57
  -6  -5   3   -1.00    0.68
   5   5  -3   11.57    0.88
   5   5  -3   11.71    0.88
  -5  -5   3   12.62    0.90
  -5  -5   3   10.83    0.61
  -5  -5   3   10.07    1.00
  -5  -5   3   10.11    1.00
  -5  -5   3   10.47    0.65
  -5  -5   3   10.80    0.73
  -5  -5   3   12.93    0.75
  -5  -5   3   11.33    0.99
  -5  -5   3   11.82    0.79
  -5  -5   3    9.94    1.03
   4   5  -3    3.19    0.46
   4   5  -3    3.27    0.32
   4   5  -3    4.06    0.52
   4   5  -3    3.52    0.31
   4   5  -3    3.92    0.53
  -4  -5   3    3.33    0.33
  -4  -5   3    2.77    0.29
  -4  -5   3    3.20    0.49
  -4  -5   3    3.26    0.26
  -4  -5   3    3.02    0.35
  -4  -5   3    2.42    0.42
  -4  -5   3    2.88    0.50
  -4  -5   3    3.59    0.41
  -4  -5   3    3.69    0.51
  -4  -5   3    2.98    0.35
  -4  -5   3    2.55    0.47
   3   5  -3   14.62    0.85
   3   5  -3   13.55    1.01
   3   5  -3   15.70    0.83
   3   5  -3   16.29    1.01
   3   5  -3   14.45    0.95
  -3  -5   3   14.84    0.69
  -3  -5   3   14.08    0.85
  -3  -5   3   15.67    0.72
  -3  -5   3   15.47    0.82
  -3  -5   3   16.14    1.10
  -3  -5   3   16.02    1.01
  -3  -5   3   14.89    0.94
  -3  -5   3   17.91    0.92
  -3  -5   3   14.78    0.86
   2   5  -3    1.92    0.38
   2   5  -3    1.18    0.25
   2   5  -3    1.30    0.30
   2   5  -3    1.33    0.24
  -2  -5   3    1.74    0.29
  -2  -5   3    1.93    0.29
  -2  -5   3    1.32    0.31
  -2  -5   3    1.56    0.29
  -2  -5   3    1.81    0.18
  -2  -5   3    1.05    0.31
   1   5  -3    1.95    0.42
   1   5  -3    3.63    0.20
   1   5  -3    3.15    0.29
   1   5  -3    2.60    0.38
   1   5  -3    3.20    0.41
   1   5  -3    3.16    0.18
   1   5  -3    3.21    0.39
  -1  -5   3    3.34    0.41
  -1  -5   3    3.09    0.45
  -1  -5   3    3.01    0.41
  -1  -5   3    3.34    0.42
  -1  -5   3    1.92    0.38
   0   5  -3    0.60    0.13
   0   5  -3    0.37    0.22
   0   5  -3    0.65    0.09
   0   5  -3    0.78    0.24
   0   5  -3    0.69    0.23
   0  -5   3    1.05    0.29
   0  -5   3    0.76    0.32
   0  -5   3    0.52    0.29
   0  -5   3    0.59    0.16
   0  -5   3    0.23    0.23
   0  -5   3    0.56    0.22
  -1   5  -3    3.83    0.47
  -1   5  -3    2.85    0.44
  -1   5  -3    3.31    0.38
  -1   5  -3    3.81    0.50
  -1   5  -3    3.60    0.28
  -1   5  -3    3.81    0.49
   1  -5   3    3.27    0.47
   1  -5   3    4.08    0.52
   1  -5   3    3.16    0.51
   1  -5   3    3.25    0.40
   1  -5   3    3.78    0.38
   1  -5   3    4.30    0.52
  -2   5  -3    0.14    0.26
  -2   5  -3    0.48    0.33
  -2   5  -3    0.01    0.25
  -2   5  -3   -0.03    0.31
  -2   5  -3   -0.20    0.27
  -2   5  -3    0.04    0.13
  -2   5  -3   -0.01    0.15
   2  -5   3   -0.06    0.40
   2  -5   3    0.05    0.22
   2  -5   3    0.16    0.17
   2  -5   3    0.27    0.20
   2  -5   3    0.28    0.32
   2  -5   3    0.97    0.35
  -3   5  -3   -0.35    0.26
  -3   5  -3   -0.17    0.38
  -3   5  -3   -0.19    0.33
  -3   5  -3   -0.19    0.33
  -3   5  -3    0.20    0.27
  -3   5  -3   -0.21    0.31
   3  -5   3    0.65    0.50
   3  -5   3    0.00    0.37
   3  -5   3   -0.33    0.21
   3  -5   3    0.32    0.43
   3  -5   3    0.19    0.24
  -4   5  -3    3.92    0.65
  -4   5  -3    4.47    0.59
  -4   5  -3    3.83    0.65
  -4   5  -3    4.15    0.67
  -4   5  -3    3.95    0.51
  -4   5  -3    4.05    0.66
   4  -5   3    4.48    0.61
   4  -5   3    4.23    0.69
   4  -5   3    4.57    0.53
   4  -5   3    4.15    0.68
  -5   5  -3    0.53    0.50
  -5   5  -3    0.22    0.62
  -5   5  -3   -0.62    0.58
  -5   5  -3    0.20    0.37
  -5   5  -3    0.60    0.53
  -5   5  -3   -0.61    0.50
   5  -5   3    0.52    0.34
   5  -5   3   -0.44    0.45
   5  -5   3    1.16    0.62
  -6   5  -3    0.91    0.64
  -6   5  -3   -0.20    0.67
  -6   5  -3   -1.11    0.78
  -6   5  -3    0.58    0.73
   6  -5   3    0.82    0.64
   6  -5   3    0.99    0.43
   6  -5   3   -0.14    0.76
  -7   5  -3    1.16    0.82
  -7   5  -3    2.42    1.09
  -7   5  -3    0.61    0.87
   7  -5   3    1.38    0.83
   7  -5   3    3.41    1.12
   7  -5   3    1.68    0.85
  -9  -4   3    0.34    0.55
  -9  -4   3    1.14    0.63
  -9  -4   3   -0.27    0.72
  -9  -4   3    1.54    0.76
  -8  -4   3   -0.88    0.49
  -8  -4   3    0.36    0.45
  -8  -4   3   -0.68    0.57
  -8  -4   3   -0.11    0.41
  -7  -4   3    0.88    0.37
  -7  -4   3    1.73    0.48
  -7  -4   3    1.81    0.41
  -7  -4   3    0.94    0.43
  -7  -4   3    2.10    0.69
  -7  -4   3    1.04    0.73
  -7  -4   3    0.99    0.47
   6   4  -3    1.77    0.41
  -6  -4   3    1.19    0.34
  -6  -4   3    2.68    0.62
  -6  -4   3    0.54    0.54
  -6  -4   3    1.34    0.39
  -6  -4   3    1.73    0.34
  -6  -4   3    2.12    0.52
  -6  -4   3    1.79    0.40
  -6  -4   3    1.71    0.58
  -6  -4   3    1.61    0.35
   5   4  -3    1.65    0.37
   5   4  -3    1.50    0.34
  -5  -4   3    1.58    0.44
  -5  -4   3    1.85    0.29
  -5  -4   3    1.39    0.33
  -5  -4   3    1.86    0.45
  -5  -4   3    2.17    0.35
  -5  -4   3    2.38    0.54
  -5  -4   3    1.65    0.43
  -5  -4   3    1.75    0.32
  -5  -4   3    1.30    0.27
   4   4  -3    4.27    0.52
   4   4  -3    3.84    0.25
   4   4  -3    3.53    0.47
   4   4  -3    4.42    0.26
  -4  -4   3    4.03    0.59
  -4  -4   3    4.47    0.48
  -4  -4   3    3.53    0.48
  -4  -4   3    3.74    0.32
  -4  -4   3    3.33    0.34
  -4  -4   3    3.94    0.31
  -4  -4   3    4.09    0.39
  -4  -4   3    5.34    0.58
  -4  -4   3    3.73    0.51
  -4  -4   3    4.03    0.31
   3   4  -3    1.37    0.19
   3   4  -3    1.24    0.28
   3   4  -3    1.23    0.17
   3   4  -3    1.25    0.25
   3   4  -3    1.57    0.23
   3   4  -3    1.54    0.30
  -3  -4   3    1.06    0.19
  -3  -4   3    1.04    0.24
  -3  -4   3    1.68    0.31
  -3  -4   3    1.07    0.18
  -3  -4   3    1.41    0.19
  -3  -4   3    0.70    0.18
  -3  -4   3    1.46    0.15
  -3  -4   3    1.60    0.37
  -3  -4   3    0.84    0.27
  -3  -4   3    0.62    0.28
  -3  -4   3    0.93    0.12
   2   4  -3   25.47    1.23
   2   4  -3   25.57    1.45
   2   4  -3   24.55    1.36
   2   4  -3   23.58    1.14
   2   4  -3   24.94    1.25
   2   4  -3   27.03    1.33
  -2  -4   3   24.21    1.26
  -2  -4   3   24.93    1.42
  -2  -4   3   23.49    1.23
  -2  -4   3   25.38    1.22
  -2  -4   3   26.94    1.41
   1   4  -3    2.85    0.34
   1   4  -3    3.30    0.34
   1   4  -3    2.89    0.19
   1   4  -3    3.23    0.45
  -1  -4   3    2.55    0.35
  -1  -4   3    2.44    0.35
  -1  -4   3    2.76    0.22
  -1  -4   3    3.45    0.46
  -1  -4   3    3.19    0.35
  -1  -4   3    3.25    0.35
   0   4  -3    2.13    0.20
   0   4  -3    1.58    0.31
   0   4  -3    1.87    0.29
   0   4  -3    2.30    0.30
   0   4  -3    2.66    0.34
   0   4  -3    2.03    0.23
   0   4  -3    1.95    0.34
   0  -4   3    2.17    0.33
   0  -4   3    1.96    0.21
   0  -4   3    2.04    0.32
   0  -4   3    2.10    0.30
   0  -4   3    2.14    0.31
   0  -4   3    1.83    0.32
  -1   4  -3    0.30    0.21
  -1   4  -3    0.81    0.19
  -1   4  -3    0.68    0.19
  -1   4  -3    0.20    0.22
  -1   4  -3    0.56    0.11
  -1   4  -3    0.54    0.24
  -1   4  -3    0.45    0.21
   1  -4   3    0.57    0.20
   1  -4   3    0.39    0.22
   1  -4   3    0.59    0.18
   1  -4   3    0.72    0.27
   1  -4   3    0.29    0.24
   1  -4   3    0.64    0.21
  -2   4  -3    2.19    0.38
  -2   4  -3    2.23    0.35
  -2   4  -3    2.28    0.24
  -2   4  -3    2.40    0.35
  -2   4  -3    2.30    0.39
  -2   4  -3    1.96    0.37
   2  -4   3    2.23    0.37
   2  -4   3    2.09    0.31
   2  -4   3    1.58    0.46
   2  -4   3    1.58    0.36
   2  -4   3    1.76    0.26
   2  -4   3    2.16    0.31
   2  -4   3    2.27    0.35
  -3   4  -3    4.83    0.62
  -3   4  -3    3.93    0.52
  -3   4  -3    4.37    0.37
  -3   4  -3    3.80    0.59
  -3   4  -3    3.52    0.45
  -3   4  -3    3.56    0.50
   3  -4   3    4.59    0.58
   3  -4   3    3.48    0.57
   3  -4   3    4.19    0.57
   3  -4   3    4.29    0.44
   3  -4   3    3.89    0.47
  -4   4  -3    0.30    0.40
  -4   4  -3    0.53    0.40
  -4   4  -3    0.97    0.35
  -4   4  -3    0.43    0.43
   4  -4   3    0.60    0.41
   4  -4   3    0.67    0.26
   4  -4   3    0.60    0.30
   4  -4   3    0.20    0.42
   4  -4   3   -0.02    0.48
  -5   4  -3    1.26    0.51
  -5   4  -3    0.67    0.30
  -5   4  -3    0.45    0.48
  -5   4  -3    0.58    0.47
  -5   4  -3    0.44    0.48
  -5   4  -3    1.07    0.51
   5  -4   3    0.42    0.43
   5  -4   3    0.64    0.56
   5  -4   3    0.90    0.32
  -6   4  -3    1.63    0.66
  -6   4  -3    1.04    0.53
  -6   4  -3    0.68    0.68
  -6   4  -3    1.12    0.62
  -6   4  -3    1.13    0.37
   6  -4   3    1.15    0.39
   6  -4   3    1.35    0.65
  -7   4  -3    0.67    0.70
  -7   4  -3   -1.45    0.95
  -7   4  -3    1.16    0.84
   7  -4   3    0.25    0.66
   7  -4   3   -1.29    0.81
   7  -4   3   -0.10    0.69
  -8   4  -3    7.45    1.39
  -8   4  -3   10.41    1.21
  -8   4  -3    8.86    1.30
   8  -4   3    7.55    1.25
   8  -4   3    7.30    1.17
  -9  -3   3    1.46    0.82
  -9  -3   3    1.95    0.52
  -9  -3   3    2.07    0.65
  -9  -3   3    2.69    0.84
  -8  -3   3    0.30    0.53
  -8  -3   3    0.38    0.62
  -8  -3   3    0.29    0.38
  -8  -3   3    0.29    0.45
  -7  -3   3    0.05    0.66
  -7  -3   3    0.13    0.41
  -7  -3   3    0.55    0.32
  -7  -3   3   -0.02    0.34
  -7  -3   3    0.30    0.60
  -7  -3   3    0.98    0.46
  -7  -3   3    0.07    0.60
  -7  -3   3    1.26    0.44
  -6  -3   3   -0.09    0.26
  -6  -3   3    0.18    0.43
  -6  -3   3   -0.07    0.47
  -6  -3   3    0.25    0.28
  -6  -3   3    0.25    0.27
  -6  -3   3    0.09    0.35
  -6  -3   3    0.84    0.47
  -6  -3   3    0.07    0.30
  -6  -3   3    0.27    0.45
   5   3  -3    0.87    0.29
   5   3  -3    1.16    0.33
  -5  -3   3    1.70    0.41
  -5  -3   3    1.12    0.42
  -5  -3   3    1.06    0.38
  -5  -3   3    1.42    0.33
  -5  -3   3    1.04    0.26
  -5  -3   3    1.32    0.38
  -5  -3   3    1.29    0.25
  -5  -3   3    1.51    0.32
  -5  -3   3    1.63    0.31
   4   3  -3    1.96    0.31
   4   3  -3    2.07    0.34
  -4  -3   3    2.42    0.40
  -4  -3   3    2.78    0.36
  -4  -3   3    1.63    0.37
  -4  -3   3    1.56    0.28
  -4  -3   3    2.39    0.41
  -4  -3   3    1.74    0.22
  -4  -3   3    2.43    0.30
  -4  -3   3    1.57    0.33
   3   3  -3   18.93    1.06
   3   3  -3   15.48    0.99
   3   3  -3   17.72    1.07
   3   3  -3   18.44    0.85
   3   3  -3   18.29    0.93
   3   3  -3   17.85    0.83
  -3  -3   3   18.24    0.95
  -3  -3   3   18.40    0.84
  -3  -3   3   18.96    1.02
  -3  -3   3   18.02    1.05
  -3  -3   3   18.71    1.02
  -3  -3   3   17.48    1.11
  -3  -3   3   15.84    0.92
  -3  -3   3   18.79    0.87
  -3  -3   3   18.01    0.88
  -3  -3   3   20.96    1.13
   2   3  -3    5.61    0.41
   2   3  -3    6.24    0.37
   2   3  -3    6.02    0.37
   2   3  -3    5.82    0.47
   2   3  -3    6.20    0.52
  -2  -3   3    5.93    0.29
  -2  -3   3    5.57    0.37
  -2  -3   3    5.80    0.45
  -2  -3   3    5.27    0.39
  -2  -3   3    5.00    0.28
  -2  -3   3    5.51    0.52
  -2  -3   3    6.27    0.34
   1   3  -3    6.54    0.39
   1   3  -3    6.93    0.48
   1   3  -3    6.35    0.44
   1   3  -3    7.23    0.47
   1   3  -3    6.51    0.52
   1   3  -3    6.45    0.54
  -1  -3   3    5.29    0.46
  -1  -3   3    7.14    0.53
  -1  -3   3    7.06    0.37
  -1  -3   3    6.37    0.49
  -1  -3   3    6.76    0.47
  -1  -3   3    6.65    0.45
   0   3  -3    0.85    0.23
   0   3  -3    0.81    0.24
   0   3  -3    0.80    0.12
   0   3  -3    1.33    0.22
   0   3  -3    0.73    0.18
   0   3  -3    0.88    0.19
   0   3  -3    0.97    0.12
   0   3  -3    0.82    0.18
   0  -3   3    0.84    0.21
   0  -3   3    0.90    0.22
   0  -3   3    0.83    0.20
   0  -3   3    0.77    0.20
   0  -3   3    0.95    0.14
   0  -3   3    0.81    0.18
  -1   3  -3  160.15    7.38
  -1   3  -3  150.98    7.25
  -1   3  -3  149.44    7.08
  -1   3  -3  152.14    6.76
  -1   3  -3  162.31    6.97
   1  -3   3  146.81    7.23
   1  -3   3  152.91    6.73
   1  -3   3  160.84    7.42
   1  -3   3  152.59    6.87
   1  -3   3  152.29    6.77
   1  -3   3  140.28    7.04
  -2   3  -3   -0.14    0.17
  -2   3  -3   -0.07    0.21
  -2   3  -3   -0.08    0.22
  -2   3  -3   -0.08    0.17
  -2   3  -3   -0.05    0.14
  -2   3  -3   -0.09    0.09
   2  -3   3    0.00    0.13
   2  -3   3    0.17    0.25
   2  -3   3   -0.05    0.12
   2  -3   3   -0.13    0.21
   2  -3   3   -0.14    0.13
   2  -3   3   -0.18    0.20
  -3   3  -3    5.77    0.44
  -3   3  -3    5.21    0.58
  -3   3  -3    4.50    0.54
  -3   3  -3    4.29    0.56
  -3   3  -3    4.18    0.52
   3  -3   3    5.14    0.45
   3  -3   3    5.66    0.69
   3  -3   3    5.48    0.57
   3  -3   3    5.69    0.49
   3  -3   3    6.08    0.36
   3  -3   3    5.63    0.62
  -4   3  -3    0.39    0.20
  -4   3  -3    0.78    0.34
  -4   3  -3    0.74    0.39
  -4   3  -3    0.37    0.21
  -4   3  -3    0.63    0.35
  -4   3  -3    0.40    0.33
   4  -3   3    1.30    0.45
   4  -3   3    0.35    0.27
   4  -3   3    0.67    0.37
   4  -3   3    0.59    0.23
   4  -3   3    1.14    0.42
  -5   3  -3    0.66    0.42
  -5   3  -3    0.65    0.26
  -5   3  -3    1.46    0.48
  -5   3  -3    1.04    0.42
  -5   3  -3    0.81    0.45
   5  -3   3    1.43    0.47
   5  -3   3    0.25    0.32
   5  -3   3    1.07    0.29
  -6   3  -3   -0.08    0.27
  -6   3  -3    0.51    0.53
  -6   3  -3    0.42    0.49
  -6   3  -3   -0.07    0.41
  -6   3  -3   -0.18    0.54
   6  -3   3   -0.04    0.32
   6  -3   3    1.13    0.58
   6  -3   3   -0.16    0.44
   6  -3   3   -0.63    0.44
  -7   3  -3    5.21    0.90
  -7   3  -3    5.95    0.84
  -7   3  -3    4.93    0.65
  -7   3  -3    7.01    1.06
  -7   3  -3    4.30    0.76
   7  -3   3    4.91    0.84
   7  -3   3    4.70    0.87
   7  -3   3    4.69    0.78
  -8   3  -3    9.73    1.29
  -8   3  -3    9.42    1.39
  -8   3  -3    7.57    1.03
   8  -3   3    7.71    1.28
   8  -3   3    6.21    1.05
   8  -3   3   10.36    1.20
  -9  -2   3    2.34    0.71
  -9  -2   3    3.89    0.97
  -9  -2   3    2.29    0.88
   8   2  -3    0.41    0.42
  -8  -2   3    0.20    0.31
  -8  -2   3    0.84    0.51
  -8  -2   3    0.52    0.75
  -8  -2   3    0.34    0.56
   7   2  -3    3.41    0.54
  -7  -2   3    2.79    0.60
  -7  -2   3    3.77    0.74
  -7  -2   3    3.03    0.63
  -7  -2   3    3.67    0.50
  -7  -2   3    4.03    0.67
  -7  -2   3    4.03    0.58
  -7  -2   3    4.98    0.76
  -6  -2   3    5.88    0.72
  -6  -2   3    5.71    0.75
  -6  -2   3    5.75    0.60
  -6  -2   3    5.81    0.77
  -6  -2   3    6.90    0.76
  -6  -2   3    5.58    0.71
  -6  -2   3    4.83    0.60
  -6  -2   3    5.90    0.54
  -6  -2   3    6.74    0.78
  -5  -2   3    0.03    0.17
  -5  -2   3   -0.03    0.29
  -5  -2   3    0.31    0.22
  -5  -2   3   -0.13    0.19
  -5  -2   3    0.61    0.30
  -5  -2   3    0.07    0.27
  -5  -2   3    0.30    0.26
  -5  -2   3   -0.33    0.28
  -5  -2   3    0.31    0.32
   4   2  -3    0.36    0.20
   4   2  -3    0.14    0.20
  -4  -2   3    0.52    0.21
  -4  -2   3    0.25    0.24
  -4  -2   3    0.33    0.24
  -4  -2   3    0.35    0.20
  -4  -2   3    0.13    0.22
  -4  -2   3    0.17    0.16
  -4  -2   3   -0.10    0.22
  -4  -2   3    0.42    0.16
  -4  -2   3    0.28    0.15
   3   2  -3    1.94    0.30
   3   2  -3    1.48    0.24
  -3  -2   3    1.86    0.16
  -3  -2   3    2.06    0.22
  -3  -2   3    2.18    0.29
  -3  -2   3    1.64    0.21
  -3  -2   3    1.92    0.29
  -3  -2   3    2.09    0.14
  -3  -2   3    1.63    0.26
  -3  -2   3    1.22    0.23
  -3  -2   3    2.66    0.35
   2   2  -3   12.12    0.78
   2   2  -3   12.34    0.62
   2   2  -3   12.47    0.64
   2   2  -3   13.14    0.62
   2   2  -3   12.32    0.76
   2   2  -3   12.67    0.69
  -2  -2   3   12.96    0.76
  -2  -2   3   12.97    0.70
  -2  -2   3   12.37    0.80
  -2  -2   3   12.11    0.63
  -2  -2   3   12.24    0.65
  -2  -2   3   12.12    0.65
  -2  -2   3   12.29    0.62
  -2  -2   3   13.21    0.75
  -2  -2   3   12.32    0.58
   1   2  -3    0.17    0.06
   1   2  -3    0.02    0.09
   1   2  -3    0.23    0.10
   1   2  -3   -0.01    0.13
   1   2  -3    0.20    0.06
   1   2  -3    0.28    0.14
  -1  -2   3    0.24    0.11
  -1  -2   3    0.26    0.14
  -1  -2   3    0.29    0.12
  -1  -2   3    0.15    0.12
  -1  -2   3    0.12    0.14
  -1  -2   3    0.10    0.04
   0   2  -3   27.04    1.57
   0   2  -3   33.20    1.43
   0   2  -3   33.25    1.58
   0   2  -3   32.01    1.47
   0   2  -3   32.45    1.49
   0   2  -3   28.97    1.43
   0  -2   3   31.06    1.50
   0  -2   3   27.21    1.46
   0  -2   3   28.69    1.56
   0  -2   3   32.12    1.51
   0  -2   3   29.89    1.46
   0  -2   3   32.00    1.62
  -1   2  -3    0.59    0.17
  -1   2  -3    0.67    0.15
  -1   2  -3    0.29    0.14
  -1   2  -3   -0.01    0.15
  -1   2  -3    0.50    0.10
   1  -2   3    0.35    0.12
   1  -2   3    0.36    0.17
   1  -2   3    0.48    0.13
   1  -2   3    0.49    0.13
   1  -2   3    0.39    0.09
   1  -2   3    0.20    0.14
   1  -2   3    0.32    0.18
  -2   2  -3   15.15    0.84
  -2   2  -3   14.84    0.80
  -2   2  -3   13.81    0.84
  -2   2  -3   13.24    0.90
  -2   2  -3   14.96    0.87
  -2   2  -3   14.61    0.88
   2  -2   3   13.93    0.84
   2  -2   3   14.92    0.84
   2  -2   3   15.48    0.93
   2  -2   3   14.14    0.75
   2  -2   3   15.22    0.78
  -3   2  -3    1.26    0.21
  -3   2  -3    0.95    0.26
  -3   2  -3    1.34    0.22
  -3   2  -3    0.55    0.23
  -3   2  -3    1.28    0.29
  -3   2  -3    1.34    0.29
   3  -2   3    1.29    0.24
   3  -2   3    1.12    0.33
   3  -2   3    1.29    0.31
   3  -2   3    1.52    0.34
   3  -2   3    1.01    0.15
   3  -2   3    0.56    0.21
  -4   2  -3    6.08    0.57
  -4   2  -3    5.64    0.65
  -4   2  -3    5.08    0.61
  -4   2  -3    4.92    0.43
  -4   2  -3    6.14    0.53
   4  -2   3    4.63    0.50
   4  -2   3    5.34    0.65
   4  -2   3    5.52    0.54
   4  -2   3    6.44    0.72
   4  -2   3    6.11    0.59
  -5   2  -3    3.07    0.55
  -5   2  -3    4.17    0.56
  -5   2  -3    4.30    0.42
  -5   2  -3    3.98    0.53
  -5   2  -3    3.52    0.48
  -5   2  -3    3.13    0.50
  -5   2  -3    5.14    0.68
   5  -2   3    4.02    0.51
   5  -2   3    4.25    0.67
   5  -2   3    3.16    0.49
   5  -2   3    4.73    0.64
   5  -2   3    3.23    0.51
  -6   2  -3    1.47    0.31
  -6   2  -3    1.07    0.40
  -6   2  -3    1.94    0.49
  -6   2  -3    1.16    0.41
  -6   2  -3    2.82    0.60
  -6   2  -3    1.32    0.52
   6  -2   3    0.87    0.49
   6  -2   3    1.67    0.53
   6  -2   3    1.94    0.52
  -7   2  -3    2.03    0.62
  -7   2  -3    0.63    0.31
  -7   2  -3    0.17    0.53
  -7   2  -3    0.40    0.45
  -7   2  -3    0.12    0.66
   7  -2   3    0.40    0.59
   7  -2   3    0.81    0.53
  -8   2  -3   -1.58    0.68
  -8   2  -3    0.70    0.61
  -8   2  -3    1.87    0.92
   8  -2   3    0.05    0.82
   8  -2   3    0.28    0.68
   8  -2   3   -0.35    0.71
  -9   2  -3    2.22    1.16
  -9   2  -3    1.29    0.80
  -9   2  -3    1.34    0.96
   9  -2   3   -0.21    0.99
   9  -2   3    0.41    0.93
   9   1  -3    1.61    0.61
  -9  -1   3    2.19    0.96
  -9  -1   3    1.62    0.73
  -9  -1   3   -0.64    0.85
   8   1  -3   -0.27    0.61
  -8  -1   3    0.21    0.25
  -8  -1   3    0.44    0.63
  -8  -1   3    0.47    0.67
  -8  -1   3    0.16    0.38
   7   1  -3    3.96    0.52
  -7  -1   3    3.14    0.70
  -7  -1   3    4.08    0.45
  -7  -1   3    5.00    0.71
  -7  -1   3    4.39    0.74
  -7  -1   3    4.68    0.74
  -7  -1   3    6.99    0.90
   6   1  -3   10.20    0.74
   6   1  -3   10.83    0.94
  -6  -1   3   11.10    0.94
  -6  -1   3   10.00    0.91
  -6  -1   3   11.51    0.94
  -6  -1   3   10.61    0.94
  -6  -1   3    9.62    0.67
  -6  -1   3   10.84    0.98
  -6  -1   3   10.19    0.95
  -6  -1   3   10.72    0.82
   5   1  -3   14.19    0.94
   5   1  -3   11.95    0.76
  -5  -1   3   12.25    0.78
  -5  -1   3   11.82    0.87
  -5  -1   3   10.80    0.90
  -5  -1   3   11.53    0.94
  -5  -1   3   11.84    0.85
  -5  -1   3   13.10    0.87
  -5  -1   3   12.12    0.91
  -5  -1   3   13.48    0.75
   4   1  -3   25.86    1.38
   4   1  -3   24.93    1.31
  -4  -1   3   26.19    1.48
  -4  -1   3   23.19    1.42
  -4  -1   3   25.26    1.34
  -4  -1   3   25.32    1.37
  -4  -1   3   25.42    1.23
  -4  -1   3   24.47    1.32
  -4  -1   3   25.40    1.31
   3   1  -3   -0.06    0.16
   3   1  -3    0.10    0.16
   3   1  -3    0.00    0.14
  -3  -1   3   -0.19    0.14
  -3  -1   3   -0.10    0.14
  -3  -1   3    0.05    0.11
  -3  -1   3    0.06    0.11
  -3  -1   3    0.01    0.05
  -3  -1   3    0.05    0.10
  -3  -1   3    0.10    0.05
  -3  -1   3    0.43    0.16
   2   1  -3   52.67    2.42
   2   1  -3   63.18    2.73
   2   1  -3   55.98    2.43
   2   1  -3   55.64    2.53
   2   1  -3   54.91    2.71
   2   1  -3   53.36    2.41
  -2  -1   3   46.30    2.68
  -2  -1   3   55.02    2.45
  -2  -1   3   55.71    2.37
  -2  -1   3   56.19    2.61
  -2  -1   3   55.61    2.52
  -2  -1   3   57.02    2.47
  -2  -1   3   55.36    2.44
  -2  -1   3   60.31    2.57
  -2  -1   3   56.58    2.72
   1   1  -3    0.02    0.08
   1   1  -3    0.01    0.04
   1   1  -3   -0.02    0.05
   1   1  -3   -0.12    0.10
   1   1  -3   -0.05    0.08
   1   1  -3    0.03    0.08
  -1  -1   3    0.00    0.06
  -1  -1   3    0.01    0.02
  -1  -1   3    0.11    0.13
  -1  -1   3   -0.03    0.07
  -1  -1   3   -0.02    0.10
  -1  -1   3   -0.04    0.09
  -1  -1   3    0.07    0.08
  -1  -1   3    0.02    0.02
   0   1  -3    4.45    0.33
   0   1  -3    4.50    0.24
   0   1  -3    4.32    0.33
   0   1  -3    4.33    0.32
   0   1  -3    4.09    0.37
   0  -1   3    4.29    0.33
   0  -1   3    4.32    0.27
   0  -1   3    4.22    0.38
   0  -1   3    4.68    0.35
   0  -1   3    4.31    0.33
   0  -1   3    4.26    0.35
   0  -1   3    4.75    0.28
  -1   1  -3   16.70    0.90
  -1   1  -3   15.68    0.94
  -1   1  -3   18.46    0.91
  -1   1  -3   16.67    0.90
  -1   1  -3   17.10    0.85
  -1   1  -3   16.91    0.89
   1  -1   3   15.67    0.95
   1  -1   3   15.99    0.91
   1  -1   3   16.93    0.89
   1  -1   3   16.95    0.78
   1  -1   3   17.15    0.89
   1  -1   3   17.69    0.94
  -2   1  -3    8.97    0.59
  -2   1  -3    9.96    0.62
  -2   1  -3    8.79    0.59
  -2   1  -3    9.23    0.63
  -2   1  -3    9.27    0.56
  -2   1  -3    9.02    0.56
  -2   1  -3    8.94    0.48
   2  -1   3    9.14    0.60
   2  -1   3    8.44    0.58
   2  -1   3    8.41    0.63
   2  -1   3    9.02    0.52
   2  -1   3    9.10    0.65
  -3   1  -3   18.42    1.09
  -3   1  -3   19.24    1.04
  -3   1  -3   17.28    0.93
  -3   1  -3   19.29    1.03
  -3   1  -3   16.32    1.00
  -3   1  -3   18.41    1.12
   3  -1   3   19.03    1.05
   3  -1   3   18.80    1.18
   3  -1   3   18.31    1.08
   3  -1   3   18.75    0.99
  -4   1  -3    6.21    0.61
  -4   1  -3    6.86    0.60
  -4   1  -3    7.04    0.50
  -4   1  -3    5.56    0.56
  -4   1  -3    7.03    0.51
  -4   1  -3    6.24    0.62
   4  -1   3    7.22    0.73
   4  -1   3    6.72    0.56
   4  -1   3    6.87    0.32
   4  -1   3    6.32    0.33
   4  -1   3    6.34    0.57
   4  -1   3    5.61    0.54
   4  -1   3    6.39    0.61
  -5   1  -3    7.57    0.67
  -5   1  -3    7.73    0.76
  -5   1  -3    7.20    0.61
  -5   1  -3    7.73    0.79
  -5   1  -3    7.77    0.67
   5  -1   3    7.78    0.84
   5  -1   3    7.41    0.73
   5  -1   3    7.38    0.64
   5  -1   3    7.58    0.72
   5  -1   3    6.19    0.65
   5  -1   3    8.39    0.69
  -6   1  -3    0.49    0.35
  -6   1  -3    0.60    0.40
  -6   1  -3    0.97    0.29
  -6   1  -3    0.99    0.39
  -6   1  -3    1.58    0.36
  -6   1  -3    0.56    0.44
   6  -1   3    0.58    0.38
   6  -1   3    0.68    0.56
   6  -1   3    0.72    0.40
   6  -1   3    1.06    0.43
  -7   1  -3   -0.10    0.41
  -7   1  -3   -0.19    0.43
  -7   1  -3    0.46    0.29
  -7   1  -3    0.12    0.55
   7  -1   3    0.71    0.54
   7  -1   3    0.43    0.54
   7  -1   3    0.08    0.44
  -8   1  -3    3.98    0.67
  -8   1  -3    2.85    0.74
  -8   1  -3    3.83    0.50
  -8   1  -3    1.83    0.86
  -8   1  -3    1.81    0.70
   8  -1   3    3.65    0.79
   8  -1   3    3.47    0.82
   8  -1   3    4.12    0.80
  -9   1  -3   -0.82    0.62
  -9   1  -3   -0.53    0.80
   9  -1   3    0.43    0.86
   9  -1   3    0.01    0.82
   9   0  -3    0.18    0.60
   9   0  -3    0.06    0.89
  -9   0   3    0.61    0.93
  -9   0   3   -2.09    0.87
   8   0  -3    0.20    0.64
   8   0  -3    0.39    0.43
  -8   0   3   -0.32    0.62
  -8   0   3    0.53    0.72
  -8   0   3   -0.21    0.66
   7   0  -3    0.19    0.52
   7   0  -3    0.18    0.34
  -7   0   3    0.39    0.17
  -7   0   3    0.50    0.58
  -7   0   3    0.48    0.21
  -7   0   3    0.13    0.16
  -7   0   3    0.03    0.49
  -7   0   3   -0.46    0.48
   6   0  -3    2.41    0.39
   6   0  -3    2.08    0.50
  -6   0   3    2.28    0.45
  -6   0   3    2.58    0.29
  -6   0   3    2.82    0.55
  -6   0   3    2.75    0.55
  -6   0   3    2.42    0.29
  -6   0   3    2.92    0.28
  -6   0   3    3.28    0.47
  -6   0   3    2.05    0.54
  -6   0   3    2.52    0.50
   5   0  -3   33.45    1.41
   5   0  -3   32.66    1.78
   5   0  -3   32.39    1.59
   5   0  -3   32.45    1.41
  -5   0   3   30.29    1.66
  -5   0   3   32.21    1.59
  -5   0   3   32.25    1.47
  -5   0   3   32.94    1.60
  -5   0   3   29.00    1.89
  -5   0   3   32.58    1.82
  -5   0   3   31.45    1.68
  -5   0   3   31.76    1.46
  -5   0   3   32.81    1.70
   4   0  -3   28.63    1.28
   4   0  -3   26.58    1.45
   4   0  -3   28.88    1.27
   4   0  -3   28.46    1.37
   4   0  -3   29.33    1.54
  -4   0   3   26.72    1.41
  -4   0   3   27.94    1.29
  -4   0   3   30.34    1.48
  -4   0   3   28.68    1.38
  -4   0   3   27.43    1.42
  -4   0   3   28.23    1.66
  -4   0   3   29.05    1.29
  -4   0   3   29.22    1.59
   3   0  -3    0.09    0.06
   3   0  -3    0.11    0.09
   3   0  -3    0.01    0.15
   3   0  -3    0.25    0.14
  -3   0   3   -0.09    0.13
  -3   0   3   -0.03    0.07
  -3   0   3    0.10    0.11
  -3   0   3    0.04    0.09
  -3   0   3    0.12    0.15
  -3   0   3   -0.04    0.14
  -3   0   3   -0.01    0.18
  -3   0   3    0.05    0.07
  -3   0   3    0.11    0.18
   2   0  -3    0.92    0.21
   2   0  -3    0.67    0.12
   2   0  -3    0.62    0.12
   2   0  -3    0.59    0.15
   2   0  -3    0.81    0.10
   2   0  -3    0.74    0.15
  -2   0   3    0.85    0.21
  -2   0   3    0.70    0.13
  -2   0   3    0.67    0.11
  -2   0   3    0.61    0.13
  -2   0   3    0.93    0.15
  -2   0   3    0.77    0.10
  -2   0   3    0.89    0.12
  -2   0   3    0.59    0.12
   1   0  -3    0.18    0.08
   1   0  -3    0.02    0.06
   1   0  -3    0.00    0.08
   1   0  -3    0.02    0.06
   1   0  -3   -0.05    0.09
   1   0  -3    0.08    0.07
  -1   0   3    0.06    0.08
  -1   0   3    0.03    0.01
  -1   0   3    0.02    0.03
  -1   0   3    0.03    0.08
  -1   0   3   -0.04    0.10
  -1   0   3    0.15    0.10
  -1   0   3    0.02    0.05
  -1   0   3    0.12    0.06
   0   0  -3    0.76    0.13
   0   0  -3    0.88    0.08
   0   0  -3    0.94    0.07
   0   0  -3    0.68    0.07
   0   0  -3    0.82    0.15
   0   0  -3    0.73    0.16
   0   0  -3    0.73    0.15
   0   0   3    0.88    0.11
   0   0   3    0.82    0.18
   0   0   3    0.67    0.13
   0   0   3    0.63    0.14
   0   0   3    0.81    0.14
  -1   0  -3    0.28    0.06
  -1   0  -3    0.25    0.12
  -1   0  -3    0.32    0.14
  -1   0  -3    0.32    0.11
  -1   0  -3    0.31    0.10
   1   0   3    0.37    0.14
   1   0   3    0.31    0.11
   1   0   3    0.41    0.13
   1   0   3    0.22    0.10
   1   0   3    0.35    0.11
  -2   0  -3   19.24    1.00
  -2   0  -3   18.54    1.02
  -2   0  -3   20.90    1.08
  -2   0  -3   19.39    1.02
  -2   0  -3   19.16    1.02
  -2   0  -3   18.44    0.91
   2   0   3   18.25    1.03
   2   0   3   18.28    1.06
   2   0   3   19.35    0.93
   2   0   3   18.90    0.99
   2   0   3   17.97    1.04
   2   0   3   18.26    1.04
  -3   0  -3    5.71    0.42
  -3   0  -3    5.98    0.44
  -3   0  -3    5.64    0.51
  -3   0  -3    5.62    0.48
  -3   0  -3    6.70    0.53
  -3   0  -3    5.49    0.46
   3   0   3    6.60    0.46
   3   0   3    6.47    0.50
   3   0   3    6.24    0.51
   3   0   3    5.63    0.53
   3   0   3    6.07    0.49
   3   0   3    6.34    0.53
  -4   0  -3   30.08    1.53
  -4   0  -3   28.57    1.48
  -4   0  -3   26.95    1.63
  -4   0  -3   29.12    1.64
  -4   0  -3   28.56    1.50
   4   0   3   27.85    1.50
   4   0   3   30.34    1.70
   4   0   3   29.84    1.60
   4   0   3   30.50    1.56
   4   0   3   30.54    1.52
   4   0   3   29.21    1.64
   4   0   3   29.30    1.56
  -5   0  -3    4.33    0.52
  -5   0  -3    5.22    0.56
  -5   0  -3    3.83    0.44
  -5   0  -3    2.97    0.43
  -5   0  -3    4.57    0.63
  -5   0  -3    3.86    0.48
   5   0   3    3.87    0.56
   5   0   3    4.82    0.57
   5   0   3    4.06    0.57
   5   0   3    3.35    0.46
   5   0   3    4.41    0.31
  -6   0  -3    2.27    0.46
  -6   0  -3    3.30    0.45
  -6   0  -3    2.11    0.40
  -6   0  -3    3.22    0.57
  -6   0  -3    2.53    0.50
  -6   0  -3    2.61    0.47
   6   0   3    3.09    0.52
   6   0   3    2.67    0.55
   6   0   3    2.39    0.18
   6   0   3    1.80    0.45
   6   0   3    2.25    0.41
   6   0   3    2.38    0.49
  -7   0  -3    1.27    0.34
  -7   0  -3    2.01    0.60
  -7   0  -3    1.30    0.41
  -7   0  -3    0.97    0.49
  -7   0  -3    0.98    0.45
   7   0   3    0.85    0.53
   7   0   3    1.80    0.69
   7   0   3    1.41    0.51
   7   0   3    0.20    0.48
  -8   0  -3    0.05    0.43
  -8   0  -3   -0.31    0.53
  -8   0  -3    0.05    0.63
  -8   0  -3   -0.25    0.41
  -8   0  -3    0.04    0.53
   8   0   3    0.25    0.58
   8   0   3   -0.48    0.63
   8   0   3   -0.94    0.56
  -9   0  -3   -0.59    0.58
  -9   0  -3    1.10    0.81
  -9   0  -3   -0.37    0.69
   9   0   3   -0.19    0.68
   9   0   3   -0.09    0.74
 -10   0  -3    0.13    0.79
 -10   0  -3   -0.19    0.98
 -10   0  -3    0.98    1.23
  10   0   3    0.68    1.10
   9  -1  -3    5.92    1.14
   9  -1  -3    6.78    0.84
  -9   1   3    4.33    1.21
  -9   1   3    6.41    0.65
  -9   1   3    6.59    1.25
   8  -1  -3    0.11    0.50
   8  -1  -3    0.62    0.71
  -8   1   3    0.50    0.33
  -8   1   3   -0.01    0.32
  -8   1   3    0.03    0.75
  -8   1   3    0.23    0.72
   7  -1  -3    0.22    0.49
   7  -1  -3    0.33    0.28
   7  -1  -3    0.58    0.36
   7  -1  -3    0.35    0.30
  -7   1   3    0.54    0.27
  -7   1   3    0.59    0.26
  -7   1   3   -0.29    0.47
  -7   1   3    0.51    0.52
  -7   1   3    0.54    0.43
   6  -1  -3    2.51    0.32
   6  -1  -3    3.28    0.43
   6  -1  -3    3.15    0.36
   6  -1  -3    3.05    0.55
  -6   1   3    2.39    0.52
  -6   1   3    3.92    0.54
  -6   1   3    2.21    0.58
  -6   1   3    2.90    0.59
  -6   1   3    3.43    0.40
  -6   1   3    3.04    0.38
  -6   1   3    2.83    0.46
   5  -1  -3   16.40    1.15
   5  -1  -3   17.26    0.90
   5  -1  -3   17.54    0.96
   5  -1  -3   16.85    0.89
  -5   1   3   18.20    1.04
  -5   1   3   15.93    1.00
  -5   1   3   16.87    0.87
  -5   1   3   17.22    1.02
  -5   1   3   16.25    0.99
  -5   1   3   15.70    1.21
  -5   1   3   17.05    0.89
  -5   1   3   17.73    1.20
   4  -1  -3    0.16    0.20
   4  -1  -3    0.41    0.16
   4  -1  -3    0.35    0.22
   4  -1  -3    0.28    0.13
   4  -1  -3    0.44    0.17
  -4   1   3    0.31    0.18
  -4   1   3    0.37    0.20
  -4   1   3    0.42    0.13
  -4   1   3    0.31    0.21
  -4   1   3    0.45    0.28
  -4   1   3    0.15    0.13
  -4   1   3    0.50    0.09
  -4   1   3    0.11    0.25
  -4   1   3    0.48    0.20
   3  -1  -3   23.95    1.12
   3  -1  -3   22.38    1.08
   3  -1  -3   22.94    1.24
  -3   1   3   22.27    1.10
  -3   1   3   21.85    1.35
  -3   1   3   22.81    1.10
  -3   1   3   21.84    1.11
  -3   1   3   23.90    1.31
  -3   1   3   22.76    1.09
  -3   1   3   21.49    1.13
  -3   1   3   24.98    1.13
   2  -1  -3    7.63    0.48
   2  -1  -3    7.10    0.45
   2  -1  -3    7.53    0.41
   2  -1  -3    6.66    0.45
  -2   1   3    7.26    0.44
  -2   1   3    6.02    0.40
  -2   1   3    6.72    0.42
  -2   1   3    7.06    0.53
  -2   1   3    7.33    0.42
  -2   1   3    6.69    0.40
  -2   1   3    7.40    0.41
  -2   1   3    7.96    0.38
   1  -1  -3    0.14    0.07
   1  -1  -3    0.24    0.09
   1  -1  -3    0.03    0.08
   1  -1  -3    0.11    0.07
   1  -1  -3    0.11    0.12
  -1   1   3    0.17    0.12
  -1   1   3    0.11    0.06
  -1   1   3    0.09    0.09
  -1   1   3   -0.08    0.09
  -1   1   3    0.13    0.02
   0  -1  -3    1.85    0.19
   0  -1  -3    2.10    0.24
   0  -1  -3    1.86    0.22
   0  -1  -3    1.99    0.20
   0  -1  -3    1.89    0.13
   0  -1  -3    1.93    0.14
   0  -1  -3    1.86    0.12
   0   1   3    1.85    0.15
   0   1   3    2.06    0.22
   0   1   3    1.81    0.21
   0   1   3    2.01    0.25
   0   1   3    2.18    0.22
  -1  -1  -3    1.10    0.15
  -1  -1  -3    1.09    0.19
  -1  -1  -3    0.81    0.13
  -1  -1  -3    0.96    0.19
  -1  -1  -3    1.39    0.19
   1   1   3    0.94    0.19
   1   1   3    1.10    0.21
   1   1   3    0.82    0.13
   1   1   3    1.09    0.16
   1   1   3    1.03    0.18
  -2  -1  -3   18.73    1.04
  -2  -1  -3   19.73    1.07
  -2  -1  -3   20.71    0.98
  -2  -1  -3   19.05    1.01
  -2  -1  -3   18.62    0.95
  -2  -1  -3   19.20    1.05
   2   1   3   20.61    1.10
   2   1   3   19.82    1.07
   2   1   3   19.09    1.05
   2   1   3   19.10    1.00
   2   1   3   19.08    1.06
  -3  -1  -3    5.22    0.44
  -3  -1  -3    5.04    0.41
  -3  -1  -3    5.27    0.45
  -3  -1  -3    4.96    0.42
  -3  -1  -3    4.69    0.39
  -3  -1  -3    4.98    0.42
   3   1   3    5.29    0.49
   3   1   3    4.54    0.43
   3   1   3    3.84    0.42
   3   1   3    5.05    0.45
   3   1   3    4.85    0.41
   3   1   3    5.09    0.45
  -4  -1  -3    4.95    0.46
  -4  -1  -3    5.07    0.46
  -4  -1  -3    4.95    0.54
  -4  -1  -3    4.66    0.49
  -4  -1  -3    5.48    0.47
  -4  -1  -3    4.96    0.47
   4   1   3    5.50    0.55
   4   1   3    5.41    0.52
   4   1   3    5.15    0.47
   4   1   3    5.36    0.52
   4   1   3    5.15    0.58
  -5  -1  -3    6.10    0.62
  -5  -1  -3    6.03    0.57
  -5  -1  -3    5.65    0.56
  -5  -1  -3    5.26    0.53
  -5  -1  -3    5.78    0.54
  -5  -1  -3    6.15    0.59
   5   1   3    5.64    0.47
   5   1   3    5.62    0.64
   5   1   3    6.47    0.63
   5   1   3    5.26    0.57
   5   1   3    4.87    0.64
   5   1   3    6.50    0.58
   5   1   3    5.57    0.55
  -6  -1  -3    0.16    0.28
  -6  -1  -3    0.07    0.32
  -6  -1  -3   -0.13    0.26
  -6  -1  -3   -0.18    0.34
  -6  -1  -3    0.06    0.27
  -6  -1  -3    0.30    0.36
   6   1   3   -0.18    0.32
   6   1   3    0.07    0.19
   6   1   3   -0.35    0.28
   6   1   3    0.16    0.33
   6   1   3    0.86    0.31
   6   1   3    0.31    0.36
  -7  -1  -3    1.28    0.42
  -7  -1  -3    1.42    0.51
  -7  -1  -3    1.48    0.45
  -7  -1  -3    1.71    0.43
  -7  -1  -3    1.28    0.43
  -7  -1  -3    1.30    0.57
   7   1   3    1.90    0.51
   7   1   3    0.81    0.47
   7   1   3    2.30    0.51
   7   1   3    2.47    0.62
   7   1   3    1.61    0.25
  -8  -1  -3   -0.14    0.47
  -8  -1  -3   -0.41    0.39
  -8  -1  -3    0.49    0.42
  -8  -1  -3   -0.01    0.51
  -8  -1  -3    1.18    0.62
   8   1   3   -0.68    0.53
   8   1   3   -0.62    0.53
  -9  -1  -3    1.17    0.66
  -9  -1  -3    1.25    0.58
  -9  -1  -3    0.24    0.80
   9   1   3    1.58    0.71
 -10  -1  -3   -0.76    0.94
 -10  -1  -3   -0.16    0.88
 -10  -1  -3    0.92    0.66
  10   1   3    2.46    1.00
   9  -2  -3    1.23    0.71
   9  -2  -3    1.46    1.13
  -9   2   3   -0.23    1.12
  -9   2   3    0.62    0.51
  -9   2   3    0.71    1.23
   8  -2  -3    0.54    0.53
   8  -2  -3   -0.42    0.72
  -8   2   3   -0.28    0.78
  -8   2   3    0.69    0.86
  -8   2   3   -0.21    0.40
   7  -2  -3    1.66    0.59
   7  -2  -3    0.75    0.43
   7  -2  -3    1.47    0.40
  -7   2   3    1.22    0.35
  -7   2   3    0.97    0.65
  -7   2   3    1.68    0.68
  -7   2   3    0.90    0.43
  -7   2   3    1.19    0.36
  -7   2   3    0.68    0.46
   6  -2  -3    0.47    0.30
   6  -2  -3   -0.51    0.27
   6  -2  -3    0.61    0.33
   6  -2  -3   -0.40    0.42
  -6   2   3   -0.22    0.48
  -6   2   3    0.35    0.33
  -6   2   3    0.49    0.25
  -6   2   3   -0.16    0.28
   5  -2  -3    0.31    0.34
   5  -2  -3    0.87    0.24
   5  -2  -3    0.73    0.28
  -5   2   3    0.52    0.22
  -5   2   3    0.49    0.21
  -5   2   3    0.50    0.39
  -5   2   3    0.43    0.40
  -5   2   3    0.00    0.30
  -5   2   3    0.21    0.25
  -5   2   3    0.39    0.21
   4  -2  -3   19.03    1.04
   4  -2  -3   21.81    1.24
   4  -2  -3   19.74    1.16
   4  -2  -3   20.06    1.09
   4  -2  -3   18.93    1.02
  -4   2   3   21.03    1.07
  -4   2   3   20.25    1.06
  -4   2   3   21.07    1.06
  -4   2   3   19.35    1.04
  -4   2   3   20.77    1.35
   3  -2  -3    0.08    0.12
   3  -2  -3    0.04    0.18
   3  -2  -3    0.07    0.17
   3  -2  -3    0.23    0.18
  -3   2   3    0.21    0.13
  -3   2   3    0.15    0.22
  -3   2   3    0.12    0.14
  -3   2   3    0.38    0.15
  -3   2   3    0.21    0.10
   2  -2  -3    6.18    0.45
   2  -2  -3    6.75    0.44
   2  -2  -3    5.77    0.34
   2  -2  -3    6.03    0.40
   2  -2  -3    7.01    0.46
  -2   2   3    6.29    0.37
  -2   2   3    5.84    0.38
  -2   2   3    6.40    0.57
  -2   2   3    5.75    0.32
  -2   2   3    6.34    0.44
  -2   2   3    6.05    0.41
   1  -2  -3   57.39    2.54
   1  -2  -3   51.47    2.39
   1  -2  -3   54.74    2.30
   1  -2  -3   50.47    2.43
   1  -2  -3   51.52    2.44
  -1   2   3   52.31    2.42
  -1   2   3   50.96    2.40
  -1   2   3   46.24    2.55
  -1   2   3   60.29    2.42
  -1   2   3   53.88    2.26
   0  -2  -3    8.43    0.53
   0  -2  -3    7.40    0.49
   0  -2  -3    8.59    0.41
   0   2   3    8.64    0.51
   0   2   3    7.72    0.44
   0   2   3    9.06    0.54
   0   2   3    9.03    0.45
   0   2   3    8.03    0.53
   0   2   3    7.12    0.39
   0   2   3    8.19    0.50
  -1  -2  -3    1.68    0.19
  -1  -2  -3    1.78    0.23
  -1  -2  -3    1.67    0.16
  -1  -2  -3    1.60    0.23
  -1  -2  -3    1.21    0.22
   1   2   3    2.00    0.27
   1   2   3    1.83    0.17
   1   2   3    1.77    0.20
   1   2   3    2.17    0.23
   1   2   3    1.54    0.24
   1   2   3    1.70    0.20
  -2  -2  -3    0.30    0.06
  -2  -2  -3    0.15    0.16
  -2  -2  -3    0.19    0.11
  -2  -2  -3   -0.04    0.11
  -2  -2  -3    0.27    0.13
   2   2   3    0.36    0.10
   2   2   3    0.21    0.14
   2   2   3    0.00    0.12
   2   2   3    0.14    0.06
   2   2   3    0.49    0.16
   2   2   3    0.37    0.18
  -3  -2  -3    2.12    0.31
  -3  -2  -3    1.69    0.14
  -3  -2  -3    1.32    0.24
  -3  -2  -3    1.53    0.28
  -3  -2  -3    1.72    0.26
  -3  -2  -3    2.06    0.29
   3   2   3    1.70    0.27
   3   2   3    1.98    0.28
   3   2   3    1.73    0.30
   3   2   3    1.70    0.31
   3   2   3    2.61    0.28
  -4  -2  -3    0.60    0.21
  -4  -2  -3    0.81    0.20
  -4  -2  -3    0.34    0.18
  -4  -2  -3    0.54    0.23
   4   2   3    0.35    0.20
   4   2   3    0.44    0.23
   4   2   3   -0.05    0.25
   4   2   3    0.38    0.24
   4   2   3    0.51    0.18
  -5  -2  -3    3.22    0.41
  -5  -2  -3    2.89    0.40
  -5  -2  -3    2.88    0.46
  -5  -2  -3    2.42    0.41
  -5  -2  -3    3.73    0.49
  -5  -2  -3    3.33    0.46
   5   2   3    3.30    0.41
   5   2   3    2.95    0.48
   5   2   3    3.52    0.44
   5   2   3    3.26    0.50
   5   2   3    2.73    0.46
  -6  -2  -3    2.90    0.45
  -6  -2  -3    3.19    0.53
  -6  -2  -3    2.88    0.44
  -6  -2  -3    3.31    0.48
  -6  -2  -3    3.68    0.46
  -6  -2  -3    3.40    0.54
   6   2   3    3.31    0.48
   6   2   3    3.28    0.56
   6   2   3    2.46    0.41
   6   2   3    2.78    0.49
   6   2   3    2.58    0.57
   6   2   3    3.08    0.40
  -7  -2  -3   10.91    0.96
  -7  -2  -3   12.58    0.89
  -7  -2  -3   13.28    1.15
  -7  -2  -3   10.74    1.10
  -7  -2  -3   11.99    0.98
   7   2   3   12.30    0.81
   7   2   3   12.18    1.05
   7   2   3   11.05    0.94
   7   2   3   12.83    1.13
   7   2   3   13.88    1.11
  -8  -2  -3    6.30    0.85
  -8  -2  -3    5.71    0.76
  -8  -2  -3    7.25    0.90
  -8  -2  -3    4.57    0.79
  -8  -2  -3    5.38    0.72
  -8  -2  -3    6.95    0.89
   8   2   3    6.86    0.91
   8   2   3    5.72    0.89
   8   2   3    6.18    0.59
   8   2   3    6.46    0.86
  -9  -2  -3    0.47    0.49
  -9  -2  -3   -1.27    0.63
  -9  -2  -3    0.04    0.70
  -9  -2  -3    0.46    0.62
   9   2   3    0.22    0.70
 -10  -2  -3    0.47    0.96
 -10  -2  -3   -0.66    0.59
 -10  -2  -3   -0.63    0.75
  10   2   3   -0.03    0.84
   8  -3  -3    0.34    0.83
   8  -3  -3    1.25    0.60
  -8   3   3    1.08    0.55
  -8   3   3    0.70    0.96
  -8   3   3    1.74    0.98
   7  -3  -3    0.10    0.40
   7  -3  -3    0.53    0.67
  -7   3   3   -0.08    0.41
  -7   3   3   -0.29    0.48
  -7   3   3   -0.05    0.72
  -7   3   3    0.12    0.42
   6  -3  -3    0.76    0.49
   6  -3  -3    0.40    0.37
   6  -3  -3    0.32    0.33
  -6   3   3    0.98    0.33
  -6   3   3    0.85    0.57
  -6   3   3    0.96    0.30
  -6   3   3    1.38    0.36
  -6   3   3    0.91    0.35
   5  -3  -3    5.44    0.61
   5  -3  -3    6.48    0.52
   5  -3  -3    5.89    0.75
   5  -3  -3    6.92    0.71
  -5   3   3    6.31    0.58
  -5   3   3    5.42    0.48
  -5   3   3    6.23    0.87
  -5   3   3    5.55    0.63
  -5   3   3    5.08    0.57
   4  -3  -3   16.13    1.05
   4  -3  -3   15.69    0.93
   4  -3  -3   15.76    1.02
   4  -3  -3   15.69    0.85
   4  -3  -3   16.02    0.99
  -4   3   3   18.13    0.87
  -4   3   3   14.76    1.21
  -4   3   3   14.94    0.91
  -4   3   3   14.63    0.92
  -4   3   3   16.53    0.91
   3  -3  -3   18.26    1.06
   3  -3  -3   17.08    1.06
   3  -3  -3   17.46    0.87
   3  -3  -3   18.49    1.01
   3  -3  -3   18.22    1.04
  -3   3   3   21.62    0.93
  -3   3   3   18.13    1.01
  -3   3   3   17.37    0.99
  -3   3   3   17.15    1.24
  -3   3   3   19.33    0.95
   2  -3  -3    6.40    0.50
   2  -3  -3    7.22    0.50
   2  -3  -3    7.14    0.56
  -2   3   3    8.18    0.54
  -2   3   3    7.42    0.50
  -2   3   3    7.30    0.66
  -2   3   3    7.93    0.44
  -2   3   3    7.49    0.39
   1  -3  -3   37.35    1.80
   1  -3  -3   37.46    1.74
   1  -3  -3   40.04    1.83
   1  -3  -3   37.97    1.76
  -1   3   3   32.14    1.72
  -1   3   3   38.90    1.61
  -1   3   3   37.24    1.76
  -1   3   3   35.92    1.98
  -1   3   3   36.20    1.79
   0  -3  -3    9.81    0.61
   0  -3  -3   10.04    0.64
   0  -3  -3   10.46    0.63
   0  -3  -3   10.58    0.51
   0  -3  -3    9.79    0.50
   0   3   3   10.25    0.61
   0   3   3    9.30    0.55
   0   3   3   11.12    0.56
   0   3   3   10.34    0.64
  -1  -3  -3   28.83    1.44
  -1  -3  -3   29.80    1.44
  -1  -3  -3   30.16    1.50
  -1  -3  -3   30.69    1.45
  -1  -3  -3   28.13    1.55
   1   3   3   30.40    1.46
   1   3   3   29.74    1.48
   1   3   3   30.52    1.50
   1   3   3   30.81    1.36
   1   3   3   29.30    1.47
  -2  -3  -3    6.35    0.43
  -2  -3  -3    7.28    0.49
  -2  -3  -3    7.01    0.52
  -2  -3  -3    6.82    0.55
  -2  -3  -3    7.42    0.46
  -2  -3  -3    7.14    0.49
   2   3   3    7.29    0.47
   2   3   3    6.73    0.48
   2   3   3    6.80    0.48
   2   3   3    6.76    0.51
   2   3   3    7.01    0.37
  -3  -3  -3    7.46    0.49
  -3  -3  -3    5.93    0.49
  -3  -3  -3    6.44    0.52
  -3  -3  -3    6.21    0.47
  -3  -3  -3    6.07    0.51
  -3  -3  -3    5.95    0.48
   3   3   3    6.31    0.44
   3   3   3    5.54    0.49
   3   3   3    5.45    0.46
   3   3   3    5.64    0.52
   3   3   3    6.17    0.51
  -4  -3  -3    2.30    0.36
  -4  -3  -3    2.78    0.41
  -4  -3  -3    3.24    0.41
  -4  -3  -3    2.27    0.32
  -4  -3  -3    2.49    0.37
  -4  -3  -3    3.15    0.43
   4   3   3    2.70    0.41
   4   3   3    2.72    0.44
   4   3   3    3.15    0.35
   4   3   3    2.68    0.40
   4   3   3    2.55    0.36
  -5  -3  -3   -0.14    0.25
  -5  -3  -3    0.18    0.28
  -5  -3  -3    0.31    0.20
  -5  -3  -3    0.41    0.08
  -5  -3  -3    0.23    0.18
  -5  -3  -3    0.27    0.27
  -5  -3  -3    0.51    0.25
   5   3   3    0.67    0.29
   5   3   3   -0.02    0.30
   5   3   3   -0.15    0.28
   5   3   3    0.32    0.24
   5   3   3    0.34    0.23
   5   3   3   -0.03    0.22
  -6  -3  -3    0.48    0.36
  -6  -3  -3    0.87    0.29
  -6  -3  -3    0.68    0.33
  -6  -3  -3    0.62    0.33
  -6  -3  -3    0.94    0.17
  -6  -3  -3    0.84    0.26
  -6  -3  -3    0.93    0.42
   6   3   3    0.84    0.30
   6   3   3    1.30    0.45
   6   3   3    0.83    0.39
   6   3   3    0.65    0.30
   6   3   3    0.90    0.35
   6   3   3    1.10    0.30
  -7  -3  -3    5.20    0.48
  -7  -3  -3    5.65    0.69
  -7  -3  -3    6.43    0.62
  -7  -3  -3    5.74    0.78
  -7  -3  -3    5.56    0.76
  -7  -3  -3    7.05    0.85
  -7  -3  -3    7.95    0.69
   7   3   3    6.59    0.70
   7   3   3    5.03    0.73
   7   3   3    6.64    0.83
   7   3   3    5.00    0.67
  -8  -3  -3    0.66    0.30
  -8  -3  -3    0.79    0.55
  -8  -3  -3    0.93    0.58
  -8  -3  -3    1.23    0.43
  -8  -3  -3    0.78    0.47
   8   3   3    0.24    0.34
   8   3   3    1.43    0.54
   8   3   3    1.31    0.53
   8   3   3    0.69    0.55
  -9  -3  -3    0.94    0.54
  -9  -3  -3    1.02    0.47
  -9  -3  -3    0.25    0.76
  -9  -3  -3    1.15    0.65
   9   3   3    1.67    0.67
   9   3   3    0.23    0.66
   9   3   3    1.22    0.40
   9   3   3    0.61    0.79
 -10  -3  -3    1.13    0.75
 -10  -3  -3    0.60    0.85
 -10  -3  -3   -0.14    0.54
  10   3   3    0.15    0.84
   8  -4  -3   -0.92    0.96
  -8   4   3   -0.13    1.08
  -8   4   3    1.22    0.65
  -8   4   3    0.87    1.13
   7  -4  -3    0.11    0.46
   7  -4  -3    0.76    0.81
  -7   4   3    0.47    0.85
  -7   4   3    1.19    0.55
   6  -4  -3    0.55    0.60
   6  -4  -3    1.11    0.37
   6  -4  -3    1.17    0.54
  -6   4   3    2.00    0.43
  -6   4   3    1.41    0.48
  -6   4   3    1.49    0.32
  -6   4   3    1.05    0.68
   5  -4  -3    3.85    0.67
   5  -4  -3    4.11    0.55
   5  -4  -3    5.09    0.51
  -5   4   3    4.59    0.61
  -5   4   3    4.50    0.85
  -5   4   3    4.51    0.43
  -5   4   3    3.86    0.51
   4  -4  -3    1.71    0.43
   4  -4  -3    0.96    0.32
   4  -4  -3    1.05    0.23
   4  -4  -3    1.38    0.37
   4  -4  -3    1.87    0.42
  -4   4   3    1.41    0.31
  -4   4   3    1.54    0.37
  -4   4   3    2.08    0.25
  -4   4   3    1.00    0.30
  -4   4   3    1.56    0.49
   3  -4  -3    0.95    0.28
   3  -4  -3    1.26    0.30
   3  -4  -3    1.05    0.16
   3  -4  -3    1.22    0.34
   3  -4  -3    1.21    0.27
  -3   4   3    1.24    0.27
  -3   4   3    1.29    0.30
  -3   4   3    0.61    0.32
  -3   4   3    1.00    0.15
  -3   4   3    1.42    0.24
   2  -4  -3    1.30    0.28
   2  -4  -3    1.03    0.23
   2  -4  -3    1.58    0.26
   2  -4  -3    1.03    0.34
   2  -4  -3    1.08    0.20
   2  -4  -3    1.11    0.15
  -2   4   3    1.47    0.29
  -2   4   3    1.43    0.14
  -2   4   3    1.10    0.18
  -2   4   3    1.25    0.26
  -2   4   3    1.49    0.36
   1  -4  -3    5.58    0.54
   1  -4  -3    5.58    0.42
   1  -4  -3    5.54    0.40
   1  -4  -3    5.38    0.36
   1  -4  -3    5.24    0.47
  -1   4   3    5.05    0.52
  -1   4   3    5.35    0.47
  -1   4   3    6.66    0.51
  -1   4   3    6.05    0.35
  -1   4   3    6.74    0.36
  -1   4   3    5.93    0.34
   0  -4  -3    0.45    0.10
   0  -4  -3    0.61    0.20
   0  -4  -3    0.43    0.08
   0  -4  -3    0.50    0.08
   0  -4  -3    0.24    0.16
   0   4   3    0.11    0.16
   0   4   3    0.61    0.21
   0   4   3    0.44    0.19
   0   4   3    0.30    0.11
  -1  -4  -3    0.07    0.07
  -1  -4  -3    0.08    0.06
  -1  -4  -3    0.07    0.05
  -1  -4  -3   -0.15    0.20
  -1  -4  -3    0.17    0.14
  -1  -4  -3    0.05    0.11
   1   4   3    0.11    0.10
   1   4   3    0.34    0.18
   1   4   3    0.20    0.17
   1   4   3    0.12    0.13
  -2  -4  -3    4.27    0.32
  -2  -4  -3    5.24    0.38
  -2  -4  -3    5.35    0.39
  -2  -4  -3    5.01    0.41
  -2  -4  -3    4.51    0.48
   2   4   3    4.55    0.38
   2   4   3    4.16    0.39
   2   4   3    4.65    0.43
   2   4   3    5.14    0.46
   2   4   3    4.47    0.38
  -3  -4  -3   23.35    1.19
  -3  -4  -3   23.57    1.21
  -3  -4  -3   23.62    1.25
  -3  -4  -3   24.00    1.27
  -3  -4  -3   23.71    1.20
   3   4   3   23.61    1.20
   3   4   3   24.71    1.22
   3   4   3   19.80    1.25
   3   4   3   22.81    1.24
   3   4   3   18.76    1.17
  -4  -4  -3    7.80    0.65
  -4  -4  -3    6.94    0.60
  -4  -4  -3    6.94    0.69
  -4  -4  -3    8.32    0.60
  -4  -4  -3    7.98    0.58
  -4  -4  -3    6.96    0.64
   4   4   3    7.73    0.64
   4   4   3    7.60    0.60
   4   4   3    7.48    0.66
   4   4   3    6.85    0.64
   4   4   3    7.66    0.60
   4   4   3    8.90    0.53
  -5  -4  -3    0.36    0.31
  -5  -4  -3    0.68    0.33
  -5  -4  -3    0.80    0.26
  -5  -4  -3    0.53    0.27
  -5  -4  -3    0.73    0.34
  -5  -4  -3    0.61    0.22
  -5  -4  -3    1.03    0.35
   5   4   3    0.29    0.28
   5   4   3    0.71    0.27
   5   4   3    0.47    0.27
   5   4   3    0.90    0.24
   5   4   3    0.70    0.37
   5   4   3    0.93    0.31
  -6  -4  -3    4.22    0.62
  -6  -4  -3    5.11    0.67
  -6  -4  -3    5.60    0.70
  -6  -4  -3    4.62    0.62
  -6  -4  -3    3.88    0.55
  -6  -4  -3    4.76    0.65
  -6  -4  -3    4.30    0.43
  -6  -4  -3    4.50    0.50
   6   4   3    4.50    0.71
   6   4   3    4.04    0.52
   6   4   3    5.42    0.63
   6   4   3    3.98    0.52
   6   4   3    5.27    0.66
   6   4   3    4.02    0.59
  -7  -4  -3    3.06    0.55
  -7  -4  -3    3.44    0.65
  -7  -4  -3    2.49    0.43
  -7  -4  -3    2.21    0.53
  -7  -4  -3    2.55    0.40
  -7  -4  -3    2.90    0.29
   7   4   3    2.80    0.50
   7   4   3    2.69    0.50
   7   4   3    3.06    0.62
   7   4   3    2.92    0.46
  -8  -4  -3    6.76    0.57
  -8  -4  -3    6.92    0.97
  -8  -4  -3    5.95    0.93
  -8  -4  -3    6.01    0.80
  -8  -4  -3    7.94    0.75
   8   4   3    5.29    0.71
   8   4   3    7.25    0.92
   8   4   3    7.59    0.88
   8   4   3    7.66    0.90
  -9  -4  -3    0.58    0.43
  -9  -4  -3    0.97    0.47
  -9  -4  -3    1.13    0.68
  -9  -4  -3    1.37    0.66
   9   4   3   -0.65    0.63
   9   4   3    1.18    0.71
   9   4   3    1.49    0.50
 -10  -4  -3    0.30    0.54
 -10  -4  -3   -1.18    0.83
 -10  -4  -3    0.17    0.60
 -10  -4  -3   -1.19    0.91
  10   4   3    1.15    0.88
  10   4   3    0.57    0.57
   7  -5  -3   -0.61    0.81
  -7   5   3   -0.39    0.63
  -7   5   3    0.27    0.91
   6  -5  -3   -0.27    0.38
   6  -5  -3   -0.06    0.56
   6  -5  -3   -0.35    0.63
  -6   5   3    0.03    0.46
  -6   5   3    0.26    0.69
   5  -5  -3    0.76    0.45
   5  -5  -3   -0.06    0.26
   5  -5  -3    0.39    0.43
  -5   5   3    0.85    0.40
  -5   5   3    0.80    0.46
  -5   5   3    0.35    0.22
  -5   5   3    0.26    0.58
   4  -5  -3   25.66    1.22
   4  -5  -3   25.25    1.47
   4  -5  -3   24.24    1.50
  -4   5   3   24.60    1.80
  -4   5   3   23.14    1.43
  -4   5   3   25.82    1.30
  -4   5   3   24.50    1.45
  -4   5   3   25.42    1.28
   3  -5  -3    1.42    0.20
   3  -5  -3    0.63    0.28
   3  -5  -3    1.18    0.35
   3  -5  -3    1.67    0.32
   3  -5  -3    1.97    0.44
  -3   5   3    1.33    0.36
  -3   5   3    1.18    0.35
  -3   5   3    1.42    0.26
  -3   5   3    1.66    0.22
  -3   5   3    1.25    0.48
   2  -5  -3    0.52    0.18
   2  -5  -3    0.89    0.26
   2  -5  -3    0.75    0.17
   2  -5  -3    0.94    0.36
   2  -5  -3    1.02    0.24
   2  -5  -3    0.79    0.11
   2  -5  -3    0.97    0.27
  -2   5   3    0.58    0.16
  -2   5   3    0.74    0.27
  -2   5   3    0.82    0.35
  -2   5   3    0.88    0.26
  -2   5   3    0.98    0.15
   1  -5  -3    0.50    0.09
   1  -5  -3    0.43    0.12
   1  -5  -3    0.28    0.29
   1  -5  -3    0.63    0.20
   1  -5  -3    0.56    0.20
   1  -5  -3    0.74    0.24
  -1   5   3    0.28    0.25
  -1   5   3    0.50    0.11
  -1   5   3    0.62    0.24
  -1   5   3    0.68    0.24
  -1   5   3    0.68    0.13
   0  -5  -3    5.57    0.33
   0  -5  -3    5.68    0.35
   0  -5  -3    5.13    0.57
   0  -5  -3    5.99    0.37
   0  -5  -3    5.80    0.49
   0   5   3    5.47    0.38
   0   5   3    5.93    0.55
   0   5   3    4.92    0.39
   0   5   3    5.33    0.53
  -1  -5  -3    2.04    0.17
  -1  -5  -3    2.35    0.34
  -1  -5  -3    1.95    0.19
  -1  -5  -3    2.19    0.27
   1   5   3    2.20    0.35
   1   5   3    1.88    0.33
   1   5   3    1.83    0.30
   1   5   3    1.81    0.24
   1   5   3    2.27    0.29
  -2  -5  -3    9.57    0.59
  -2  -5  -3    9.90    0.56
  -2  -5  -3    9.83    0.66
  -2  -5  -3   10.18    0.62
  -2  -5  -3    9.65    0.72
   2   5   3   10.42    0.69
   2   5   3    9.53    0.64
   2   5   3   10.42    0.72
   2   5   3    9.48    0.69
   2   5   3    9.16    0.65
   2   5   3    9.46    0.57
  -3  -5  -3    0.84    0.20
  -3  -5  -3    0.89    0.23
  -3  -5  -3    0.94    0.17
  -3  -5  -3    0.43    0.28
   3   5   3    0.74    0.28
   3   5   3    0.93    0.24
   3   5   3    0.72    0.27
   3   5   3    0.74    0.24
  -4  -5  -3    2.94    0.36
  -4  -5  -3    2.45    0.38
  -4  -5  -3    3.20    0.44
  -4  -5  -3    1.83    0.40
  -4  -5  -3    2.31    0.35
   4   5   3    2.75    0.39
   4   5   3    2.32    0.40
   4   5   3    1.96    0.40
   4   5   3    2.06    0.25
   4   5   3    2.41    0.39
   4   5   3    2.55    0.39
  -5  -5  -3   35.83    1.79
  -5  -5  -3   34.49    1.89
  -5  -5  -3   36.18    1.95
  -5  -5  -3   34.95    1.86
  -5  -5  -3   35.84    1.90
   5   5   3   36.27    2.00
   5   5   3   35.21    1.81
   5   5   3   31.78    1.93
   5   5   3   35.37    1.85
   5   5   3   34.48    1.87
   5   5   3   36.19    1.79
  -6  -5  -3    6.96    0.90
  -6  -5  -3    6.39    0.79
  -6  -5  -3    6.64    0.68
  -6  -5  -3    7.74    0.90
  -6  -5  -3    6.57    0.71
  -6  -5  -3    6.80    0.80
  -6  -5  -3    7.10    0.62
   6   5   3    7.49    0.70
   6   5   3    6.04    0.70
   6   5   3    6.11    0.78
   6   5   3    6.43    0.85
   6   5   3    8.48    0.78
   6   5   3    6.67    0.55
  -7  -5  -3   -0.24    0.43
  -7  -5  -3    0.80    0.56
  -7  -5  -3   -0.08    0.28
  -7  -5  -3    0.10    0.39
  -7  -5  -3    0.66    0.37
   7   5   3    0.31    0.41
   7   5   3   -0.19    0.27
   7   5   3   -0.28    0.39
   7   5   3    0.23    0.40
  -8  -5  -3    3.25    0.65
  -8  -5  -3    2.30    0.60
  -8  -5  -3    2.60    0.45
  -8  -5  -3    2.41    0.62
   8   5   3    1.76    0.54
   8   5   3    2.47    0.60
   8   5   3    3.30    0.70
  -9  -5  -3    0.47    0.66
  -9  -5  -3    0.12    0.62
  -9  -5  -3    0.37    0.40
  -9  -5  -3    0.72    0.42
   9   5   3    1.07    0.57
   9   5   3    1.69    0.73
 -10  -5  -3    1.31    0.54
 -10  -5  -3    0.39    0.85
 -10  -5  -3    0.41    0.87
  10   5   3    1.07    0.86
   7  -6  -3    0.48    1.04
  -7   6   3   -0.26    0.82
  -7   6   3   -0.37    1.16
   6  -6  -3    0.39    0.74
  -6   6   3   -0.04    0.79
  -6   6   3   -0.17    0.56
   5  -6  -3    3.46    0.41
   5  -6  -3    2.83    0.62
   5  -6  -3    2.56    0.62
  -5   6   3    4.84    0.72
  -5   6   3    3.64    0.62
  -5   6   3    1.94    0.75
   4  -6  -3    0.12    0.41
   4  -6  -3    0.06    0.24
   4  -6  -3   -0.02    0.38
  -4   6   3   -0.17    0.19
  -4   6   3    0.25    0.38
  -4   6   3   -0.34    0.49
  -4   6   3    0.43    0.59
   3  -6  -3    1.27    0.41
   3  -6  -3    1.49    0.39
   3  -6  -3    1.50    0.37
  -3   6   3    1.36    0.43
  -3   6   3    2.32    0.32
  -3   6   3    2.15    0.49
  -3   6   3    1.53    0.24
  -3   6   3    1.63    0.52
   2  -6  -3   10.36    0.80
   2  -6  -3    8.93    0.69
   2  -6  -3   10.75    0.75
   2  -6  -3   11.04    0.65
   2  -6  -3    9.70    0.66
   2  -6  -3   10.34    0.54
   2  -6  -3   10.57    0.98
  -2   6   3   10.70    0.82
  -2   6   3   10.44    0.62
  -2   6   3   10.33    0.83
  -2   6   3    9.11    0.92
  -2   6   3   11.06    0.58
   1  -6  -3   -0.11    0.18
   1  -6  -3    0.10    0.26
   1  -6  -3   -0.12    0.39
   1  -6  -3    0.48    0.12
   1  -6  -3    0.19    0.13
  -1   6   3    0.08    0.27
  -1   6   3    0.22    0.32
  -1   6   3    0.65    0.30
  -1   6   3    0.06    0.11
  -1   6   3    0.36    0.12
  -1   6   3    0.13    0.13
   0  -6  -3   13.82    0.71
   0  -6  -3   11.43    0.68
   0  -6  -3   13.58    0.86
   0  -6  -3   13.84    0.68
   0  -6  -3   12.44    0.96
   0   6   3   12.18    0.93
   0   6   3   12.61    0.88
   0   6   3   14.02    0.89
   0   6   3   12.27    0.77
   0   6   3   13.57    0.74
  -1  -6  -3    1.51    0.19
  -1  -6  -3    1.26    0.29
  -1  -6  -3    1.13    0.35
  -1  -6  -3    1.54    0.23
  -1  -6  -3    1.62    0.17
   1   6   3    1.88    0.37
   1   6   3    1.64    0.24
   1   6   3    1.88    0.36
   1   6   3    1.73    0.27
   1   6   3    1.36    0.31
  -2  -6  -3    0.22    0.09
  -2  -6  -3    0.44    0.32
  -2  -6  -3    0.31    0.12
  -2  -6  -3    0.45    0.21
  -2  -6  -3    0.00    0.21
  -2  -6  -3    0.30    0.08
   2   6   3    0.03    0.20
   2   6   3    0.19    0.25
   2   6   3    0.23    0.18
   2   6   3    0.03    0.20
   2   6   3    0.10    0.24
  -3  -6  -3    0.43    0.22
  -3  -6  -3    0.71    0.26
  -3  -6  -3    0.43    0.13
  -3  -6  -3    0.37    0.17
  -3  -6  -3    0.74    0.35
   3   6   3    0.45    0.21
   3   6   3    1.01    0.35
   3   6   3    0.44    0.27
   3   6   3    0.22    0.25
   3   6   3    0.52    0.26
   3   6   3    0.08    0.25
   3   6   3    0.52    0.18
  -4  -6  -3    5.46    0.62
  -4  -6  -3    4.44    0.61
  -4  -6  -3    4.32    0.49
  -4  -6  -3    3.98    0.40
  -4  -6  -3    4.78    0.48
   4   6   3    4.80    0.34
   4   6   3    6.05    0.65
   4   6   3    5.51    0.52
   4   6   3    4.92    0.30
   4   6   3    5.37    0.34
   4   6   3    4.40    0.53
   4   6   3    4.33    0.65
   4   6   3    4.38    0.55
  -5  -6  -3   15.03    0.96
  -5  -6  -3   15.11    1.11
  -5  -6  -3   18.40    1.02
  -5  -6  -3   15.26    1.05
  -5  -6  -3   15.75    1.14
   5   6   3   14.98    1.03
   5   6   3   15.46    1.15
   5   6   3   14.60    1.17
   5   6   3   14.72    1.02
   5   6   3   14.48    1.00
  -6  -6  -3    6.84    0.73
  -6  -6  -3    9.61    1.01
  -6  -6  -3   10.24    0.88
  -6  -6  -3    9.38    0.92
  -6  -6  -3    9.02    0.71
  -6  -6  -3    6.69    0.90
   6   6   3    8.95    0.82
   6   6   3    8.01    0.89
   6   6   3    9.32    0.48
   6   6   3    9.09    1.05
   6   6   3    8.42    0.83
   6   6   3    7.25    0.77
  -7  -6  -3    3.20    0.47
  -7  -6  -3    3.79    0.60
  -7  -6  -3    2.97    0.64
   7   6   3    4.15    0.38
   7   6   3    3.27    0.63
   7   6   3    3.70    0.63
  -8  -6  -3    0.95    0.38
  -8  -6  -3    0.39    0.48
  -8  -6  -3    0.83    0.61
  -8  -6  -3    0.47    0.44
   8   6   3    0.64    0.55
   8   6   3   -0.07    0.49
   8   6   3    0.59    0.59
  -9  -6  -3    3.12    0.54
  -9  -6  -3    1.81    0.70
  -9  -6  -3    1.99    0.70
   9   6   3    3.70    0.84
   9   6   3    2.62    0.69
 -10  -6  -3    0.41    0.89
 -10  -6  -3    0.52    0.81
 -10  -6  -3   -0.41    0.51
  10   6   3   -0.09    0.73
  10   6   3    1.59    0.86
   6  -7  -3    1.20    0.89
  -6   7   3    0.60    0.74
  -6   7   3    3.38    1.19
   5  -7  -3   -1.33    0.62
   5  -7  -3   -0.37    0.72
  -5   7   3    0.33    0.59
  -5   7   3    0.61    0.52
  -5   7   3   -0.22    0.77
   4  -7  -3    1.35    0.57
   4  -7  -3    1.06    0.50
   4  -7  -3    1.08    0.31
  -4   7   3    1.49    0.72
  -4   7   3    1.10    0.53
  -4   7   3   -0.27    0.63
   3  -7  -3    7.06    0.87
   3  -7  -3    7.66    0.47
   3  -7  -3    7.84    0.50
   3  -7  -3    8.42    0.83
  -3   7   3    7.40    0.56
  -3   7   3    8.41    0.99
  -3   7   3    9.56    0.88
  -3   7   3    8.61    0.61
   2  -7  -3    0.56    0.37
   2  -7  -3    0.32    0.15
   2  -7  -3    0.58    0.31
   2  -7  -3    0.20    0.20
   2  -7  -3    0.40    0.24
   2  -7  -3    0.91    0.67
   2  -7  -3    0.15    0.26
  -2   7   3    0.41    0.17
  -2   7   3    0.61    0.40
  -2   7   3    0.24    0.44
  -2   7   3    0.49    0.21
  -2   7   3    0.31    0.44
   1  -7  -3    8.14    0.57
   1  -7  -3    8.46    0.50
   1  -7  -3    8.12    0.92
   1  -7  -3    7.39    0.62
   1  -7  -3    8.45    0.75
  -1   7   3    8.28    0.56
  -1   7   3    8.42    0.60
  -1   7   3    8.46    0.78
  -1   7   3    7.35    0.85
  -1   7   3    9.08    0.80
   0  -7  -3   38.90    2.18
   0  -7  -3   39.99    1.92
   0  -7  -3   39.74    1.82
   0  -7  -3   39.08    2.05
   0  -7  -3   39.14    1.81
   0   7   3   38.32    2.24
   0   7   3   36.78    1.99
   0   7   3   41.42    2.10
   0   7   3   40.80    1.97
   0   7   3   39.06    2.04
  -1  -7  -3   11.24    0.97
  -1  -7  -3   11.05    0.63
  -1  -7  -3   11.57    0.62
  -1  -7  -3   11.66    0.71
  -1  -7  -3   10.62    0.81
   1   7   3   12.49    0.88
   1   7   3   10.83    0.87
   1   7   3   10.43    0.73
   1   7   3   13.16    0.91
   1   7   3   11.38    0.80
  -2  -7  -3    1.71    0.22
  -2  -7  -3    1.65    0.35
  -2  -7  -3    1.63    0.19
  -2  -7  -3    1.60    0.46
   2   7   3    1.55    0.35
   2   7   3    1.88    0.39
   2   7   3    2.10    0.35
   2   7   3    2.23    0.34
   2   7   3    1.58    0.43
   2   7   3    2.21    0.40
  -3  -7  -3    7.19    0.66
  -3  -7  -3    6.15    0.60
  -3  -7  -3    6.71    0.50
  -3  -7  -3    6.54    0.42
  -3  -7  -3    6.95    0.77
   3   7   3    5.92    0.52
   3   7   3    5.70    0.71
   3   7   3    6.26    0.70
   3   7   3    4.89    0.58
   3   7   3    6.30    0.66
   3   7   3    5.55    0.74
  -4  -7  -3    5.66    0.68
  -4  -7  -3    4.92    0.55
  -4  -7  -3    5.04    0.43
  -4  -7  -3    4.43    0.47
   4   7   3    5.08    0.64
   4   7   3    5.53    0.70
   4   7   3    4.80    0.51
   4   7   3    4.50    0.60
   4   7   3    4.79    0.73
  -5  -7  -3    3.65    0.49
  -5  -7  -3    4.34    0.43
  -5  -7  -3    2.54    0.53
  -5  -7  -3    2.70    0.42
  -5  -7  -3    3.15    0.63
   5   7   3    3.18    0.52
   5   7   3    3.51    0.65
   5   7   3    3.74    0.67
   5   7   3    2.91    0.45
   5   7   3    2.97    0.49
  -6  -7  -3    0.85    0.30
  -6  -7  -3    0.20    0.33
  -6  -7  -3   -0.14    0.30
  -6  -7  -3    0.00    0.52
   6   7   3    0.21    0.39
   6   7   3    0.56    0.59
   6   7   3    0.12    0.41
   6   7   3    0.16    0.48
  -7  -7  -3   -0.44    0.33
  -7  -7  -3    0.39    0.45
  -7  -7  -3    0.08    0.37
  -7  -7  -3    0.37    0.58
   7   7   3   -0.22    0.42
   7   7   3    0.04    0.47
  -8  -7  -3   -0.21    0.69
  -8  -7  -3   -0.28    0.42
  -8  -7  -3    0.01    0.38
  -8  -7  -3    0.52    0.55
   8   7   3    0.84    0.54
   8   7   3   -1.03    0.61
  -9  -7  -3    1.76    0.66
  -9  -7  -3    1.53    0.51
  -9  -7  -3    2.47    0.80
   9   7   3    1.77    0.77
   9   7   3    2.58    0.72
 -10  -7  -3    1.82    0.89
 -10  -7  -3    1.04    0.79
 -10  -7  -3    1.76    0.61
  10   7   3    1.40    0.86
  10   7   3    1.02    0.85
   5  -8  -3   -0.14    0.95
   5  -8  -3    1.14    0.83
  -5   8   3    0.63    0.73
  -5   8   3   -1.27    1.04
   4  -8  -3    0.38    0.61
   4  -8  -3    0.05    0.67
  -4   8   3    0.08    0.65
  -4   8   3   -0.20    0.79
  -4   8   3   -0.19    0.62
   3  -8  -3   -0.33    0.44
   3  -8  -3    0.15    0.26
   3  -8  -3    0.44    0.19
   3  -8  -3    0.50    0.54
   3  -8  -3    0.68    0.31
   3  -8  -3    0.32    0.22
  -3   8   3   -0.82    0.63
  -3   8   3    0.10    0.52
  -3   8   3   -0.19    0.73
  -3   8   3    0.45    0.54
  -3   8   3    0.88    0.27
   2  -8  -3    0.16    0.23
   2  -8  -3    0.36    0.48
   2  -8  -3    0.06    0.21
   2  -8  -3   -0.21    0.31
   2  -8  -3    0.52    0.31
  -2   8   3   -0.26    0.32
  -2   8   3    0.11    0.19
  -2   8   3    0.85    0.54
  -2   8   3    0.02    0.44
  -2   8   3    1.53    0.65
   1  -8  -3   23.43    1.17
   1  -8  -3   23.32    1.32
   1  -8  -3   24.43    1.52
   1  -8  -3   22.51    1.29
   1  -8  -3   24.31    1.39
  -1   8   3   25.22    1.37
  -1   8   3   23.44    1.51
  -1   8   3   22.22    1.55
  -1   8   3   22.83    1.65
   0  -8  -3    2.35    0.34
   0  -8  -3    2.11    0.67
   0  -8  -3    2.26    0.30
   0  -8  -3    1.88    0.44
   0  -8  -3    2.04    0.34
   0   8   3    2.46    0.41
   0   8   3    2.18    0.48
   0   8   3    1.01    0.51
   0   8   3    1.95    0.33
   0   8   3    2.03    0.56
   0   8   3    1.96    0.48
  -1  -8  -3    3.95    0.48
  -1  -8  -3    4.97    0.77
  -1  -8  -3    5.41    0.42
  -1  -8  -3    4.99    0.38
  -1  -8  -3    4.20    0.61
   1   8   3    5.58    0.55
   1   8   3    4.05    0.61
   1   8   3    4.96    0.65
   1   8   3    3.91    0.64
   1   8   3    5.29    0.65
   1   8   3    5.22    0.64
  -2  -8  -3    0.97    0.34
  -2  -8  -3    0.23    0.14
  -2  -8  -3   -0.31    0.30
  -2  -8  -3    0.38    0.15
  -2  -8  -3   -0.13    0.52
   2   8   3    0.63    0.27
   2   8   3    0.41    0.46
   2   8   3    0.49    0.30
   2   8   3    0.46    0.43
   2   8   3    0.55    0.37
   2   8   3    0.56    0.35
  -3  -8  -3    0.44    0.33
  -3  -8  -3    1.17    0.41
  -3  -8  -3    1.15    0.19
  -3  -8  -3    1.12    0.15
  -3  -8  -3    0.97    0.23
   3   8   3    0.92    0.39
   3   8   3    1.18    0.47
   3   8   3    0.55    0.42
   3   8   3    1.51    0.42
   3   8   3    0.82    0.25
   3   8   3    0.41    0.43
  -4  -8  -3    0.26    0.49
  -4  -8  -3   -0.08    0.14
  -4  -8  -3   -0.05    0.19
  -4  -8  -3    0.02    0.30
  -4  -8  -3   -0.12    0.44
   4   8   3    0.14    0.43
   4   8   3    0.12    0.49
   4   8   3    0.26    0.44
   4   8   3    0.03    0.23
   4   8   3   -0.06    0.36
  -5  -8  -3    6.91    0.65
  -5  -8  -3    7.86    0.58
  -5  -8  -3    8.07    1.00
  -5  -8  -3    8.59    1.07
  -5  -8  -3    6.64    0.74
   5   8   3    6.16    0.81
   5   8   3    7.45    1.00
   5   8   3    7.18    0.90
  -6  -8  -3    2.14    0.47
  -6  -8  -3    2.50    0.41
  -6  -8  -3    2.36    0.70
  -6  -8  -3    2.16    0.44
   6   8   3    2.96    0.60
   6   8   3    1.67    0.45
   6   8   3    2.08    0.59
  -7  -8  -3   -0.03    0.37
  -7  -8  -3    0.37    0.42
  -7  -8  -3    0.07    0.34
  -7  -8  -3    1.52    0.72
   7   8   3    0.69    0.54
   7   8   3    0.28    0.54
   7   8   3    0.18    0.41
  -8  -8  -3    3.27    0.59
  -8  -8  -3    3.93    0.57
  -8  -8  -3    4.16    0.71
   8   8   3    3.13    0.79
   8   8   3    3.89    0.67
  -9  -8  -3    0.48    0.66
  -9  -8  -3   -0.01    0.58
  -9  -8  -3   -0.35    0.49
   9   8   3    1.04    0.80
   9   8   3    0.22    0.70
   4  -9  -3   -0.49    0.88
   4  -9  -3    0.07    0.72
  -4   9   3   -0.02    0.98
  -4   9   3   -1.22    0.71
   3  -9  -3    0.96    0.55
  -3   9   3    0.91    0.86
  -3   9   3    3.16    0.75
  -3   9   3    1.21    0.71
   2  -9  -3    0.69    0.66
   2  -9  -3    0.25    0.30
   2  -9  -3    0.60    0.41
   2  -9  -3    0.55    0.50
   2  -9  -3    0.15    0.39
  -2   9   3    0.97    0.71
  -2   9   3    0.13    0.56
  -2   9   3   -0.19    0.62
   1  -9  -3    0.96    0.39
   1  -9  -3    1.27    0.36
   1  -9  -3    2.25    0.59
  -1   9   3    2.60    0.61
  -1   9   3    1.32    0.61
  -1   9   3    3.54    0.74
   0  -9  -3    3.69    0.48
   0  -9  -3    4.32    0.68
   0  -9  -3    4.61    0.47
   0   9   3    4.24    0.72
   0   9   3    3.07    0.73
   0   9   3    4.02    0.70
  -1  -9  -3   20.12    1.22
  -1  -9  -3   21.57    1.12
  -1  -9  -3   18.88    1.71
  -1  -9  -3   20.37    1.36
  -1  -9  -3   19.91    1.06
   1   9   3   19.76    1.41
   1   9   3   19.63    1.58
   1   9   3   21.47    1.44
  -2  -9  -3    1.11    0.22
  -2  -9  -3    0.96    0.44
  -2  -9  -3    1.15    0.45
  -2  -9  -3    0.98    0.21
   2   9   3    1.85    0.47
   2   9   3    0.74    0.51
   2   9   3    1.54    0.39
   2   9   3    0.87    0.47
  -3  -9  -3    2.48    0.57
  -3  -9  -3    2.48    0.28
  -3  -9  -3    2.94    0.34
  -3  -9  -3    2.10    0.69
   3   9   3    3.33    0.64
   3   9   3    2.30    0.52
   3   9   3    4.13    0.51
  -4  -9  -3    0.53    0.58
  -4  -9  -3    1.85    0.25
  -4  -9  -3    1.70    0.21
  -4  -9  -3    1.14    0.69
  -4  -9  -3    2.57    0.50
   4   9   3    1.38    0.58
   4   9   3    1.25    0.56
   4   9   3    2.13    0.40
   4   9   3    1.15    0.46
  -5  -9  -3   -0.19    0.37
  -5  -9  -3   -1.04    0.68
  -5  -9  -3   -0.29    0.18
  -5  -9  -3    0.31    0.27
   5   9   3    0.85    0.55
   5   9   3    0.05    0.46
   5   9   3   -0.33    0.26
  -6  -9  -3    1.15    0.39
  -6  -9  -3    1.13    0.47
  -6  -9  -3    1.31    0.80
   6   9   3    2.00    0.56
   6   9   3    2.50    0.69
  -7  -9  -3    0.21    0.45
  -7  -9  -3    0.28    0.40
  -7  -9  -3   -0.23    0.31
   7   9   3   -0.17    0.65
   7   9   3    0.40    0.57
  -8  -9  -3    2.86    0.59
  -8  -9  -3    2.63    0.54
  -8  -9  -3    3.88    0.71
   8   9   3    0.89    0.93
   8   9   3    2.98    0.71
  -9  -9  -3   -0.19    0.54
  -9  -9  -3   -0.36    0.64
  -9  -9  -3    0.90    0.56
   9   9   3   -1.24    0.91
   9   9   3   -0.22    0.75
   3 -10  -3    1.10    0.72
   3 -10  -3   -1.39    0.97
  -3  10   3   -0.68    1.06
  -3  10   3    0.75    0.89
  -3  10   3    0.16    0.91
   2 -10  -3    2.75    0.93
   2 -10  -3    2.47    0.62
   2 -10  -3    2.48    0.47
   2 -10  -3    2.73    0.60
  -2  10   3    3.25    0.81
  -2  10   3    3.25    0.90
  -2  10   3    5.84    1.05
   1 -10  -3   -0.21    0.35
   1 -10  -3   -0.09    0.62
  -1  10   3    0.63    0.71
  -1  10   3    0.21    0.64
   0 -10  -3    1.05    0.47
   0 -10  -3    0.18    0.57
   0 -10  -3    0.87    0.46
   0 -10  -3    0.72    0.29
   0  10   3    0.38    0.61
   0  10   3    0.74    0.61
   0  10   3    0.65    0.65
  -1 -10  -3   -0.19    0.20
  -1 -10  -3   -0.24    0.30
  -1 -10  -3   -0.19    0.51
  -1 -10  -3   -0.14    0.48
   1  10   3    0.49    0.49
   1  10   3   -0.44    0.58
   1  10   3   -0.26    0.59
  -2 -10  -3    0.21    0.55
  -2 -10  -3    0.40    0.27
  -2 -10  -3    0.56    1.03
  -2 -10  -3    0.35    0.20
  -2 -10  -3    0.17    0.48
   2  10   3   -0.08    0.41
   2  10   3    0.52    0.57
   2  10   3    0.07    0.60
  -3 -10  -3   -0.55    0.45
  -3 -10  -3   -0.01    0.18
  -3 -10  -3    0.30    0.20
  -3 -10  -3    0.58    0.61
  -3 -10  -3    0.87    0.83
   3  10   3   -0.13    0.31
   3  10   3    0.42    0.60
   3  10   3    0.49    0.56
  -4 -10  -3    1.00    0.48
  -4 -10  -3    0.47    0.24
  -4 -10  -3    0.29    0.17
  -4 -10  -3   -0.67    0.87
   4  10   3    0.64    0.54
   4  10   3    0.65    0.44
   4  10   3    0.92    0.64
  -5 -10  -3    0.30    0.28
  -5 -10  -3    0.24    0.14
  -5 -10  -3    0.17    0.87
  -5 -10  -3    0.25    0.45
   5  10   3    0.59    0.63
   5  10   3   -0.20    0.56
   5  10   3    0.12    0.38
  -6 -10  -3    0.07    0.33
  -6 -10  -3   -0.08    0.24
  -6 -10  -3    1.13    0.51
   6  10   3   -1.31    0.63
   6  10   3    0.14    0.75
   6  10   3   -0.17    0.31
  -7 -10  -3   -0.13    0.31
  -7 -10  -3   -0.24    0.51
  -7 -10  -3   -0.20    0.43
   7  10   3   -0.61    0.78
  -8 -10  -3    0.57    0.45
  -8 -10  -3    0.24    0.58
  -8 -10  -3    0.43    0.53
   8  10   3   -0.31    0.91
   2 -11  -3    1.70    0.72
   2 -11  -3    0.87    1.09
   2 -11  -3   -1.49    0.66
  -2  11   3   -1.29    1.04
  -2  11   3    0.51    0.98
  -2  11   3    0.39    0.92
   1 -11  -3    0.25    0.51
   1 -11  -3   -0.18    0.91
   1 -11  -3   -0.26    0.53
  -1  11   3   -1.12    0.88
  -1  11   3   -0.78    0.85
  -1  11   3    0.22    0.87
   0 -11  -3    1.20    0.80
   0 -11  -3   -0.04    0.38
   0  11   3   -0.15    0.75
   0  11   3    1.02    0.76
   0  11   3    1.34    0.84
  -1 -11  -3    0.09    0.55
  -1 -11  -3   -0.16    0.65
  -1 -11  -3    0.62    0.34
   1  11   3   -0.50    0.62
   1  11   3   -1.18    0.78
   1  11   3   -0.56    0.72
  -2 -11  -3    0.80    0.28
  -2 -11  -3   -0.22    0.60
   2  11   3    0.04    0.52
   2  11   3    0.63    0.80
   2  11   3   -0.28    0.75
  -3 -11  -3    0.95    0.65
   3  11   3    1.13    0.73
   3  11   3    0.09    0.75
   3  11   3    1.25    0.39
  -4 -11  -3    0.24    1.23
  -4 -11  -3    0.55    0.26
  -4 -11  -3    0.52    0.56
   4  11   3    0.36    0.57
   4  11   3   -0.53    0.68
   4  11   3   -0.89    0.66
  -5 -11  -3    0.76    0.61
  -5 -11  -3   -0.01    0.29
   5  11   3    1.69    0.76
   5  11   3   -0.14    0.52
   5  11   3    1.11    0.76
  -6 -11  -3    8.42    0.96
  -6 -11  -3    7.66    0.63
  -6 -11  -3    7.49    0.74
   6  11   3    5.65    1.13
   6  11   3    5.87    1.04
  -7 -11  -3   -0.30    0.44
  -7 -11  -3    0.22    0.66
  -7 -11  -3    0.10    0.33
   7  11   3   -0.94    0.91
   0 -12  -3   -0.69    0.52
   0 -12  -3   -0.16    0.69
   0 -12  -3    0.71    1.01
   0  12   3    0.81    1.00
   0  12   3    2.93    1.10
   0  12   3   -0.47    1.02
  -1 -12  -3   -0.17    0.70
  -1 -12  -3    0.08    0.93
  -1 -12  -3    0.31    0.44
   1  12   3   -1.74    0.93
   1  12   3    0.95    0.86
   1  12   3    0.54    0.92
  -2 -12  -3    1.13    0.75
  -2 -12  -3   -0.39    0.35
  -2 -12  -3   -0.72    0.80
   2  12   3    1.01    0.93
   2  12   3   -0.91    0.91
  -3 -12  -3    0.29    0.31
  -3 -12  -3   -0.28    0.79
   3  12   3    0.40    0.87
   3  12   3   -0.03    0.94
  -4 -12  -3    0.32    0.33
  -4 -12  -3   -0.29    0.80
   4  12   3   -0.57    0.95
   4  12   3   -0.17    0.97
   4  12   3    0.48    0.79
  -5 -12  -3    0.59    0.37
  -5 -12  -3    0.94    0.81
   5  12   3    1.06    1.07
   5  12   3    1.48    0.98
  -6 -12  -3    1.58    0.84
  -6 -12  -3    0.47    0.46
   6  12   3   -0.22    1.10
   4  11  -4    0.78    1.04
   4  11  -4   -0.02    0.86
  -4 -11   4   -0.86    0.74
  -4 -11   4    1.29    0.85
  -4 -11   4    0.09    0.43
   3  11  -4    3.26    1.12
   3  11  -4    4.89    0.99
  -3 -11   4    3.20    0.94
  -3 -11   4    2.78    0.87
  -3 -11   4    3.30    0.61
   2  11  -4    6.46    1.25
   2  11  -4    2.53    0.86
  -2 -11   4    1.70    0.93
  -2 -11   4    3.66    0.66
  -2 -11   4    2.36    0.80
   1  11  -4    0.33    1.12
   1  11  -4    1.27    1.07
   1  11  -4    0.54    0.80
  -1 -11   4   -0.91    0.68
  -1 -11   4    2.43    1.09
  -1 -11   4    1.18    0.59
   6  10  -4    0.82    0.90
   6  10  -4    1.23    0.92
  -6 -10   4    1.03    0.80
  -6 -10   4    1.42    0.65
   5  10  -4   -0.03    0.80
   5  10  -4   -0.16    0.79
  -5 -10   4    0.43    0.35
  -5 -10   4   -0.32    0.65
  -5 -10   4    1.02    0.65
   4  10  -4   -0.54    0.70
   4  10  -4   -0.17    0.79
  -4 -10   4   -0.69    0.62
  -4 -10   4    0.65    0.34
  -4 -10   4    1.43    0.68
   3  10  -4    2.23    0.87
   3  10  -4    2.19    0.70
  -3 -10   4    2.55    0.46
  -3 -10   4    3.83    0.81
  -3 -10   4    3.21    0.71
   2  10  -4    8.54    1.06
   2  10  -4    7.74    1.21
   2  10  -4    9.12    1.15
  -2 -10   4    5.84    0.89
  -2 -10   4    6.18    0.73
  -2 -10   4    7.56    1.03
   1  10  -4    0.43    0.85
   1  10  -4    0.23    0.59
   1  10  -4    2.09    0.92
  -1 -10   4   -0.14    0.42
  -1 -10   4    0.45    0.59
  -1 -10   4    0.35    0.73
   0  10  -4   -0.44    0.97
   0  10  -4    0.07    0.89
   0  10  -4    1.29    0.63
   0  10  -4    0.84    0.60
   0 -10   4    0.42    0.56
   0 -10   4    1.53    0.83
   0 -10   4    0.77    0.60
  -1  10  -4    0.08    1.04
  -1  10  -4    0.99    0.98
  -1  10  -4    1.43    0.77
   1 -10   4    0.73    0.57
   1 -10   4    0.19    0.62
   1 -10   4    0.00    0.58
   1 -10   4    0.45    0.98
  -2  10  -4   -2.49    1.07
  -2  10  -4   -1.80    0.82
   2 -10   4   -0.53    1.14
   2 -10   4    0.28    0.80
   2 -10   4   -1.03    0.74
   2 -10   4   -1.21    0.66
   7   9  -4    0.00    0.88
   7   9  -4    1.25    0.83
  -7  -9   4    1.01    0.38
  -7  -9   4    0.95    0.81
  -7  -9   4    0.84    0.46
   6   9  -4    2.33    0.79
   6   9  -4    2.36    0.79
  -6  -9   4    3.69    0.50
  -6  -9   4    2.74    0.77
  -6  -9   4    2.67    0.57
   5   9  -4   -0.94    0.64
   5   9  -4    2.40    0.72
  -5  -9   4    1.84    0.55
  -5  -9   4    1.09    0.61
  -5  -9   4    1.20    0.31
   4   9  -4    1.85    0.70
   4   9  -4    0.81    0.58
   4   9  -4    0.77    0.70
  -4  -9   4    1.20    0.29
  -4  -9   4    0.52    0.52
  -4  -9   4    1.02    0.54
   3   9  -4    1.71    0.57
   3   9  -4    2.02    0.66
   3   9  -4    1.58    0.59
  -3  -9   4    1.26    0.53
  -3  -9   4    1.80    0.59
  -3  -9   4    0.72    0.27
  -3  -9   4    1.02    0.54
   2   9  -4    1.60    0.70
   2   9  -4    1.35    0.52
   2   9  -4    2.45    0.69
  -2  -9   4    2.20    0.58
  -2  -9   4    2.07    0.69
  -2  -9   4    2.11    0.36
  -2  -9   4    3.31    0.82
  -2  -9   4    1.26    0.49
   1   9  -4    3.22    0.62
   1   9  -4    2.31    0.71
   1   9  -4    1.78    0.68
   1   9  -4    2.14    0.28
  -1  -9   4    3.01    0.72
  -1  -9   4    2.16    0.78
  -1  -9   4    2.93    0.88
  -1  -9   4    2.74    0.48
  -1  -9   4    2.49    0.60
   0   9  -4    0.32    0.79
   0   9  -4    0.11    0.47
   0   9  -4    0.67    0.50
   0   9  -4    0.04    0.68
   0   9  -4    0.50    0.46
   0  -9   4   -0.14    0.66
   0  -9   4   -0.30    1.00
   0  -9   4   -0.41    0.38
   0  -9   4   -0.01    0.42
   0  -9   4   -0.27    0.98
  -1   9  -4   -0.46    0.56
  -1   9  -4    0.34    0.59
  -1   9  -4    0.02    0.46
  -1   9  -4    0.76    0.78
   1  -9   4   -0.46    0.47
   1  -9   4   -0.36    0.45
   1  -9   4    0.90    0.75
  -2   9  -4    0.39    0.76
  -2   9  -4    0.17    0.88
  -2   9  -4   -0.57    0.68
   2  -9   4   -0.47    0.48
   2  -9   4    0.02    0.61
   2  -9   4    0.53    0.85
   2  -9   4    1.21    0.54
  -3   9  -4    0.44    0.84
  -3   9  -4   -0.38    0.95
  -3   9  -4   -0.75    1.09
   3  -9   4    1.45    1.05
   3  -9   4   -0.45    0.68
   3  -9   4   -0.39    0.62
   8   8  -4   12.65    1.59
  -8  -8   4   12.49    1.53
  -8  -8   4   14.89    1.05
   7   8  -4    0.91    0.74
   7   8  -4   -1.37    0.64
  -7  -8   4   -0.56    0.62
  -7  -8   4    0.19    0.31
   6   8  -4   -0.49    0.57
   6   8  -4   -0.51    0.36
   6   8  -4   -0.76    0.54
  -6  -8   4    0.23    0.57
  -6  -8   4    0.33    0.23
   5   8  -4   -0.01    0.52
   5   8  -4    1.20    0.54
   5   8  -4    0.72    0.42
  -5  -8   4    1.56    0.49
  -5  -8   4    0.47    0.22
  -5  -8   4    0.39    0.48
  -5  -8   4    0.29    0.37
  -5  -8   4   -0.03    0.37
   4   8  -4    7.83    0.86
   4   8  -4    8.57    0.97
  -4  -8   4    8.11    0.92
  -4  -8   4    8.28    0.84
  -4  -8   4    8.46    0.95
  -4  -8   4    7.29    0.84
   3   8  -4    3.95    0.68
   3   8  -4    3.10    0.57
  -3  -8   4    4.11    0.64
  -3  -8   4    3.72    0.58
  -3  -8   4    4.46    0.64
  -3  -8   4    3.99    0.60
   2   8  -4    0.39    0.46
   2   8  -4    0.03    0.45
  -2  -8   4    0.12    0.40
  -2  -8   4    0.74    0.51
  -2  -8   4    0.70    0.57
  -2  -8   4   -0.07    0.37
   1   8  -4    0.91    0.51
   1   8  -4    0.17    0.40
   1   8  -4    0.25    0.19
   1   8  -4    0.35    0.16
   1   8  -4    0.00    0.54
  -1  -8   4    0.73    0.44
  -1  -8   4   -0.61    0.61
  -1  -8   4   -0.95    0.53
  -1  -8   4    0.11    0.37
   0   8  -4    6.05    0.79
   0   8  -4    4.78    0.79
   0   8  -4    5.40    0.73
   0   8  -4    6.92    0.99
   0   8  -4    6.41    0.43
   0   8  -4    7.34    0.69
   0  -8   4    5.59    0.72
   0  -8   4    4.51    0.75
   0  -8   4    6.18    0.92
   0  -8   4    6.33    0.97
   0  -8   4    6.17    0.96
   0  -8   4    5.83    0.66
  -1   8  -4    1.05    0.39
  -1   8  -4    0.81    0.47
  -1   8  -4   -0.21    0.16
  -1   8  -4    0.17    0.57
  -1   8  -4   -0.11    0.43
   1  -8   4    0.43    0.60
   1  -8   4    0.14    0.37
   1  -8   4    0.32    0.79
  -2   8  -4    2.66    0.35
  -2   8  -4    3.77    0.87
  -2   8  -4    3.53    0.71
  -2   8  -4    4.05    0.72
   2  -8   4    2.77    0.51
   2  -8   4    2.45    0.57
   2  -8   4    2.10    0.78
  -3   8  -4    0.18    0.78
  -3   8  -4    0.44    0.78
  -3   8  -4   -0.67    0.65
   3  -8   4    0.26    0.54
   3  -8   4   -0.88    0.77
   3  -8   4   -0.21    0.48
  -4   8  -4    1.92    0.93
  -4   8  -4    4.26    1.06
  -4   8  -4    2.06    0.91
   4  -8   4    2.54    0.76
   4  -8   4    1.36    1.00
   4  -8   4    2.79    0.61
  -5   8  -4    0.67    0.99
  -5   8  -4    1.32    1.27
  -5   8  -4   -0.31    1.10
   5  -8   4   -0.11    0.92
   5  -8   4    1.14    1.35
  -8  -7   4    0.24    0.66
  -8  -7   4   -0.01    0.40
   7   7  -4   -0.96    0.55
   7   7  -4    0.38    0.61
  -7  -7   4    0.04    0.52
  -7  -7   4    0.37    0.28
  -7  -7   4    0.19    0.29
   6   7  -4   -1.23    0.50
  -6  -7   4   -0.06    0.33
  -6  -7   4   -0.01    0.45
  -6  -7   4   -0.14    0.14
  -6  -7   4   -0.05    0.26
  -6  -7   4    0.31    0.32
  -6  -7   4   -0.25    0.32
  -6  -7   4    0.38    0.21
   5   7  -4    4.23    0.74
   5   7  -4    5.93    0.55
   5   7  -4    3.99    0.54
   5   7  -4    6.53    0.82
  -5  -7   4    5.86    0.46
  -5  -7   4    5.28    0.87
  -5  -7   4    5.33    0.67
  -5  -7   4    4.45    0.66
  -5  -7   4    5.16    0.63
  -5  -7   4    5.31    0.61
   4   7  -4    3.65    0.67
   4   7  -4    2.56    0.41
   4   7  -4    2.85    0.55
   4   7  -4    4.12    0.47
   4   7  -4    2.71    0.57
  -4  -7   4    3.40    0.50
  -4  -7   4    3.68    0.49
  -4  -7   4    2.94    0.33
  -4  -7   4    3.20    0.46
   3   7  -4    0.98    0.42
   3   7  -4    1.49    0.50
   3   7  -4    1.89    0.48
   3   7  -4    1.04    0.36
  -3  -7   4    1.46    0.39
  -3  -7   4    1.26    0.21
  -3  -7   4    0.72    0.39
  -3  -7   4    1.02    0.37
   2   7  -4    0.40    0.41
   2   7  -4    0.44    0.34
   2   7  -4   -0.06    0.35
   2   7  -4    0.78    0.39
  -2  -7   4    0.86    0.44
  -2  -7   4    0.48    0.18
  -2  -7   4    0.68    0.35
  -2  -7   4    0.84    0.60
  -2  -7   4    0.72    0.40
  -2  -7   4    0.54    0.36
   1   7  -4   -0.01    0.30
   1   7  -4    0.27    0.38
   1   7  -4    0.23    0.26
   1   7  -4    0.22    0.45
  -1  -7   4    0.32    0.62
  -1  -7   4    0.07    0.33
  -1  -7   4    0.37    0.46
  -1  -7   4    0.46    0.19
  -1  -7   4   -0.07    0.35
  -1  -7   4   -0.12    0.46
   0   7  -4    0.19    0.33
   0   7  -4   -0.01    0.46
   0   7  -4    0.35    0.42
   0   7  -4    0.45    0.27
   0   7  -4    0.22    0.11
   0   7  -4    0.09    0.28
   0  -7   4    0.45    0.22
   0  -7   4   -0.34    0.49
   0  -7   4    0.83    0.43
   0  -7   4    0.39    0.30
   0  -7   4    0.28    0.57
  -1   7  -4    1.75    0.23
  -1   7  -4    2.11    0.51
  -1   7  -4    1.67    0.37
  -1   7  -4    1.65    0.40
  -1   7  -4    1.22    0.43
   1  -7   4    1.59    0.38
   1  -7   4    1.67    0.55
   1  -7   4    2.22    0.45
   1  -7   4    2.24    0.58
   1  -7   4    1.78    0.61
   1  -7   4    1.56    0.67
  -2   7  -4    0.96    0.50
  -2   7  -4    1.46    0.32
  -2   7  -4    0.56    0.54
  -2   7  -4    0.57    0.45
   2  -7   4    0.81    0.35
   2  -7   4    1.18    0.44
   2  -7   4    0.89    0.33
   2  -7   4    0.95    0.60
  -3   7  -4    1.08    0.64
  -3   7  -4    0.46    0.55
  -3   7  -4    0.28    0.59
  -3   7  -4    0.41    0.41
   3  -7   4   -0.39    0.64
   3  -7   4   -0.26    0.38
   3  -7   4    0.31    0.40
  -4   7  -4    1.32    0.69
  -4   7  -4   -0.62    0.57
  -4   7  -4    0.83    0.68
   4  -7   4    0.01    0.77
   4  -7   4    0.35    0.55
   4  -7   4    0.65    0.44
  -5   7  -4    0.92    1.01
  -5   7  -4   -0.24    0.81
  -5   7  -4    0.47    0.83
   5  -7   4    0.70    0.98
   5  -7   4    0.74    0.59
   5  -7   4    0.81    0.75
  -6   7  -4   -0.64    1.31
  -6   7  -4    1.20    1.06
  -6   7  -4    0.93    1.07
   6  -7   4    1.74    0.99
   6  -7   4   -2.47    1.34
  -9  -6   4    1.27    0.56
  -9  -6   4    0.08    0.72
  -8  -6   4    0.39    0.39
  -8  -6   4    0.58    0.58
  -8  -6   4    0.12    0.53
   7   6  -4    0.14    0.54
  -7  -6   4    0.34    0.36
  -7  -6   4    0.36    0.46
  -7  -6   4   -0.19    0.36
  -7  -6   4    0.63    0.32
  -7  -6   4    0.41    0.48
   6   6  -4    2.11    0.55
   6   6  -4    1.67    0.51
  -6  -6   4    2.49    0.41
  -6  -6   4    1.93    0.30
  -6  -6   4    1.79    0.31
  -6  -6   4    1.52    0.77
  -6  -6   4    1.47    0.29
  -6  -6   4    1.91    0.41
   5   6  -4    2.66    0.31
   5   6  -4    2.15    0.24
   5   6  -4    2.57    0.52
  -5  -6   4    1.16    0.58
  -5  -6   4    3.05    0.53
  -5  -6   4    2.08    0.35
  -5  -6   4    2.09    0.24
  -5  -6   4    1.80    0.31
  -5  -6   4    2.39    0.34
  -5  -6   4    1.60    0.26
   4   6  -4    1.80    0.44
   4   6  -4    1.95    0.31
   4   6  -4    1.85    0.44
   4   6  -4    1.40    0.29
   4   6  -4    2.37    0.50
  -4  -6   4    2.11    0.35
  -4  -6   4    1.95    0.34
  -4  -6   4    1.62    0.51
  -4  -6   4    2.32    0.27
  -4  -6   4    2.12    0.41
  -4  -6   4    1.96    0.37
   3   6  -4    6.47    0.71
   3   6  -4    6.76    0.70
   3   6  -4    6.99    0.72
   3   6  -4    5.77    0.56
   3   6  -4    6.96    0.58
  -3  -6   4    7.54    0.44
  -3  -6   4    4.92    0.61
  -3  -6   4    7.18    0.62
  -3  -6   4    5.63    0.60
  -3  -6   4    5.72    0.66
  -3  -6   4    7.13    0.93
   2   6  -4    0.15    0.29
   2   6  -4    0.54    0.27
   2   6  -4    0.09    0.32
   2   6  -4    0.42    0.27
   2   6  -4   -0.36    0.25
  -2  -6   4   -0.25    0.29
  -2  -6   4    0.00    0.25
  -2  -6   4   -0.17    0.11
  -2  -6   4    0.64    0.49
  -2  -6   4   -0.18    0.27
   1   6  -4    0.62    0.32
   1   6  -4    0.65    0.10
   1   6  -4    1.05    0.34
   1   6  -4    0.41    0.29
   1   6  -4    0.59    0.38
   1   6  -4    0.97    0.25
  -1  -6   4    0.28    0.16
  -1  -6   4    0.32    0.32
  -1  -6   4    0.08    0.36
  -1  -6   4    0.80    0.45
  -1  -6   4    0.24    0.33
  -1  -6   4    0.54    0.28
   0   6  -4    0.84    0.12
   0   6  -4    0.71    0.28
   0   6  -4    0.46    0.29
   0   6  -4    0.78    0.24
   0   6  -4    0.59    0.37
   0   6  -4    1.03    0.22
   0   6  -4    0.88    0.11
   0   6  -4    1.13    0.40
   0  -6   4    0.44    0.20
   0  -6   4    0.38    0.26
   0  -6   4    0.88    0.47
   0  -6   4    0.46    0.42
   0  -6   4    1.03    0.40
   0  -6   4   -0.12    0.42
  -1   6  -4    0.06    0.23
  -1   6  -4   -0.24    0.16
  -1   6  -4   -0.28    0.36
  -1   6  -4    0.19    0.27
  -1   6  -4   -0.32    0.39
  -1   6  -4   -0.26    0.29
   1  -6   4   -0.18    0.35
   1  -6   4    0.86    0.51
   1  -6   4   -0.14    0.23
   1  -6   4   -0.33    0.40
   1  -6   4   -0.29    0.42
   1  -6   4   -0.41    0.22
  -2   6  -4    0.62    0.38
  -2   6  -4    0.76    0.49
  -2   6  -4    0.94    0.39
  -2   6  -4    0.84    0.52
   2  -6   4    0.87    0.40
   2  -6   4    1.07    0.29
   2  -6   4    0.95    0.48
   2  -6   4    1.24    0.63
   2  -6   4    0.35    0.32
   2  -6   4    0.82    0.31
   2  -6   4    0.77    0.55
  -3   6  -4   -0.51    0.58
  -3   6  -4    0.90    0.49
  -3   6  -4    0.44    0.52
  -3   6  -4   -0.29    0.41
  -3   6  -4    0.07    0.46
  -3   6  -4    0.32    0.35
   3  -6   4    0.64    0.34
   3  -6   4    0.63    0.67
   3  -6   4    0.68    0.34
   3  -6   4    0.36    0.53
  -4   6  -4    1.65    0.64
  -4   6  -4    0.51    0.51
  -4   6  -4    0.25    0.63
  -4   6  -4    1.55    0.57
   4  -6   4    0.84    0.45
   4  -6   4    0.85    0.68
   4  -6   4    0.35    0.39
  -5   6  -4   -1.02    0.63
  -5   6  -4    0.82    0.72
  -5   6  -4    0.14    0.79
   5  -6   4   -0.43    0.46
   5  -6   4   -0.81    0.82
   5  -6   4   -0.42    0.56
  -6   6  -4    3.26    0.94
  -6   6  -4    1.04    0.87
  -6   6  -4    0.81    1.11
   6  -6   4    0.65    0.75
   6  -6   4    0.75    1.03
   6  -6   4    0.67    0.64
  -9  -5   4    0.24    0.55
  -9  -5   4   -0.54    0.64
  -9  -5   4   -0.61    0.75
  -8  -5   4    2.17    0.51
  -8  -5   4    2.10    0.62
  -8  -5   4    1.94    0.57
  -8  -5   4    2.00    0.60
  -7  -5   4    1.21    0.47
  -7  -5   4    1.54    0.49
  -7  -5   4    0.31    0.40
  -7  -5   4    0.54    0.41
  -7  -5   4    1.20    0.34
   6   5  -4    0.23    0.44
  -6  -5   4    0.31    0.35
  -6  -5   4    1.12    0.38
  -6  -5   4    0.73    0.31
  -6  -5   4    0.87    0.28
  -6  -5   4    0.48    0.24
   5   5  -4   -0.04    0.34
   5   5  -4    0.43    0.36
  -5  -5   4    0.33    0.51
  -5  -5   4   -0.07    0.17
  -5  -5   4    0.25    0.59
  -5  -5   4   -0.05    0.48
  -5  -5   4   -0.11    0.18
  -5  -5   4   -0.30    0.28
  -5  -5   4    0.06    0.16
  -5  -5   4    0.03    0.17
  -5  -5   4    0.17    0.49
  -5  -5   4   -0.18    0.16
  -5  -5   4    0.16    0.30
   4   5  -4   -0.21    0.16
   4   5  -4    0.01    0.16
   4   5  -4    0.28    0.30
   4   5  -4    0.32    0.34
   4   5  -4    0.03    0.30
  -4  -5   4   -0.10    0.24
  -4  -5   4    0.01    0.12
  -4  -5   4   -0.01    0.41
  -4  -5   4    0.00    0.36
  -4  -5   4   -0.03    0.19
  -4  -5   4   -0.09    0.08
  -4  -5   4   -0.05    0.26
  -4  -5   4    0.84    0.37
  -4  -5   4    0.11    0.19
   3   5  -4    0.15    0.18
   3   5  -4    0.25    0.18
   3   5  -4    0.47    0.26
   3   5  -4   -0.08    0.27
   3   5  -4   -0.06    0.26
   3   5  -4    0.09    0.18
  -3  -5   4    0.25    0.24
  -3  -5   4    0.44    0.22
  -3  -5   4    0.21    0.21
  -3  -5   4    0.27    0.41
  -3  -5   4    0.25    0.23
  -3  -5   4    0.10    0.29
  -3  -5   4    0.21    0.10
   2   5  -4    0.76    0.22
   2   5  -4    0.53    0.22
   2   5  -4    0.64    0.36
   2   5  -4    0.62    0.24
   2   5  -4    1.05    0.29
   2   5  -4    0.56    0.16
  -2  -5   4    1.13    0.38
  -2  -5   4    0.74    0.29
  -2  -5   4    0.54    0.12
  -2  -5   4    0.89    0.27
   1   5  -4   11.77    0.94
   1   5  -4   11.84    0.83
   1   5  -4   13.03    0.86
   1   5  -4   11.20    0.78
  -1  -5   4   12.13    0.93
  -1  -5   4   12.41    0.85
  -1  -5   4   12.24    0.85
  -1  -5   4   11.36    0.67
  -1  -5   4   11.53    0.87
  -1  -5   4   11.71    0.81
   0   5  -4    1.46    0.38
   0   5  -4    1.93    0.46
   0   5  -4    0.94    0.32
   0   5  -4    1.33    0.20
   0   5  -4    1.73    0.22
   0   5  -4    1.45    0.28
   0   5  -4    1.70    0.14
   0   5  -4    1.23    0.11
   0   5  -4    1.54    0.32
   0   5  -4    1.15    0.27
   0  -5   4    2.09    0.36
   0  -5   4    1.31    0.35
   0  -5   4    1.52    0.31
   0  -5   4    1.07    0.35
   0  -5   4    1.64    0.26
   0  -5   4    0.88    0.35
  -1   5  -4    0.98    0.29
  -1   5  -4    0.54    0.30
  -1   5  -4    0.54    0.25
  -1   5  -4    0.66    0.14
  -1   5  -4    0.26    0.31
  -1   5  -4    0.56    0.32
   1  -5   4    0.55    0.40
   1  -5   4    0.56    0.31
   1  -5   4    0.96    0.38
   1  -5   4    0.82    0.25
   1  -5   4    0.50    0.22
   1  -5   4    0.26    0.32
  -2   5  -4    0.32    0.32
  -2   5  -4   -0.76    0.28
  -2   5  -4    0.37    0.33
  -2   5  -4   -0.25    0.13
  -2   5  -4    0.03    0.30
  -2   5  -4    0.43    0.38
   2  -5   4   -0.16    0.37
   2  -5   4   -0.32    0.35
   2  -5   4   -0.36    0.43
   2  -5   4   -0.11    0.23
   2  -5   4    0.11    0.30
   2  -5   4   -0.14    0.23
   2  -5   4    0.20    0.20
  -3   5  -4   -0.34    0.33
  -3   5  -4    0.16    0.38
  -3   5  -4   -0.46    0.35
  -3   5  -4    0.39    0.48
  -3   5  -4   -0.10    0.17
  -3   5  -4   -0.11    0.34
   3  -5   4    0.07    0.58
   3  -5   4    1.24    0.51
   3  -5   4    0.12    0.45
   3  -5   4    0.10    0.28
   3  -5   4    0.21    0.27
  -4   5  -4    1.79    0.62
  -4   5  -4    2.59    0.62
  -4   5  -4    2.45    0.62
  -4   5  -4    2.26    0.45
   4  -5   4    3.60    0.76
   4  -5   4    2.03    0.46
   4  -5   4    1.71    0.40
  -5   5  -4   -0.85    0.59
  -5   5  -4    0.98    0.51
  -5   5  -4    0.98    0.73
  -5   5  -4    0.75    0.70
  -5   5  -4    0.17    0.56
  -5   5  -4    0.13    0.55
   5  -5   4    0.35    0.51
   5  -5   4   -0.28    0.69
   5  -5   4    1.54    0.44
  -6   5  -4   -0.51    0.65
  -6   5  -4    0.45    0.67
  -6   5  -4    1.26    0.85
   6  -5   4   -1.15    0.79
   6  -5   4    0.19    0.50
   6  -5   4   -0.79    0.63
  -7   5  -4    2.16    1.20
  -7   5  -4    3.25    0.94
  -7   5  -4    2.46    0.98
   7  -5   4    2.35    0.96
   7  -5   4    0.98    1.19
   7  -5   4    2.15    0.94
  -9  -4   4    1.95    0.62
  -9  -4   4    1.35    0.82
  -9  -4   4    2.06    0.84
  -9  -4   4    0.97    0.63
  -8  -4   4    0.08    0.46
  -8  -4   4    0.14    0.60
  -8  -4   4    0.03    0.57
  -8  -4   4   -0.01    0.43
  -7  -4   4    1.67    0.52
  -7  -4   4    2.88    0.45
  -7  -4   4    2.55    0.49
  -7  -4   4    2.30    0.57
  -6  -4   4    0.28    0.52
  -6  -4   4   -0.13    0.22
  -6  -4   4    1.10    0.58
  -6  -4   4   -0.09    0.32
  -6  -4   4    0.34    0.28
  -6  -4   4    1.62    0.56
  -6  -4   4    0.38    0.34
  -6  -4   4    0.21    0.30
  -6  -4   4    0.54    0.63
   5   4  -4   12.41    0.94
  -5  -4   4   13.40    1.09
  -5  -4   4   12.64    0.70
  -5  -4   4   12.68    1.01
  -5  -4   4   12.17    0.76
  -5  -4   4   12.35    0.92
  -5  -4   4   13.35    1.18
  -5  -4   4   11.05    1.00
  -5  -4   4   11.41    0.82
  -5  -4   4   12.91    0.91
   4   4  -4   -0.14    0.27
   4   4  -4    0.05    0.10
   4   4  -4    0.64    0.28
   4   4  -4    0.15    0.22
  -4  -4   4    0.15    0.12
  -4  -4   4    0.03    0.32
  -4  -4   4    0.18    0.13
  -4  -4   4    0.32    0.16
  -4  -4   4   -0.42    0.28
  -4  -4   4    0.13    0.23
  -4  -4   4    0.52    0.41
  -4  -4   4    0.17    0.14
  -4  -4   4    0.25    0.17
  -4  -4   4   -0.11    0.32
   3   4  -4    1.14    0.32
   3   4  -4    1.56    0.25
   3   4  -4    1.47    0.20
   3   4  -4    1.11    0.21
   3   4  -4    1.17    0.31
   3   4  -4    1.18    0.28
  -3  -4   4    0.94    0.14
  -3  -4   4    1.25    0.26
  -3  -4   4    1.13    0.31
  -3  -4   4    1.59    0.33
  -3  -4   4    1.15    0.14
  -3  -4   4    0.98    0.40
  -3  -4   4    0.61    0.32
  -3  -4   4    0.98    0.26
  -3  -4   4    0.99    0.21
  -3  -4   4    1.22    0.23
   2   4  -4   15.46    0.85
   2   4  -4   16.41    0.79
   2   4  -4   15.53    0.88
   2   4  -4   16.29    1.06
   2   4  -4   15.65    0.96
  -2  -4   4   17.71    1.08
  -2  -4   4   16.20    0.99
  -2  -4   4   16.32    0.98
  -2  -4   4   14.08    0.89
  -2  -4   4   14.87    0.79
  -2  -4   4   15.35    0.87
   1   4  -4    1.19    0.18
   1   4  -4    1.14    0.27
   1   4  -4    1.31    0.15
   1   4  -4    0.86    0.24
   1   4  -4    1.12    0.31
   1   4  -4    1.37    0.34
   1   4  -4    1.31    0.27
  -1  -4   4    1.03    0.27
  -1  -4   4    1.06    0.31
  -1  -4   4    1.23    0.26
  -1  -4   4    1.23    0.26
  -1  -4   4    0.87    0.14
   0   4  -4    0.17    0.22
   0   4  -4    0.50    0.22
   0   4  -4    0.14    0.09
   0   4  -4    0.05    0.08
   0   4  -4   -0.03    0.22
   0   4  -4    0.23    0.26
   0  -4   4   -0.19    0.24
   0  -4   4   -0.27    0.21
   0  -4   4    0.87    0.26
   0  -4   4    0.05    0.12
   0  -4   4    0.19    0.25
   0  -4   4    0.41    0.18
  -1   4  -4   11.95    0.61
  -1   4  -4   11.40    0.79
  -1   4  -4   10.32    0.81
  -1   4  -4   10.61    0.79
  -1   4  -4   10.81    0.80
  -1   4  -4   10.62    0.69
   1  -4   4   10.68    0.74
   1  -4   4    9.59    0.79
   1  -4   4   11.83    0.93
   1  -4   4   10.56    0.72
   1  -4   4   10.51    0.76
  -2   4  -4    2.84    0.46
  -2   4  -4    2.88    0.40
  -2   4  -4    3.17    0.48
  -2   4  -4    2.35    0.27
  -2   4  -4    2.65    0.47
  -2   4  -4    2.71    0.40
   2  -4   4    3.09    0.55
   2  -4   4    2.75    0.47
   2  -4   4    3.50    0.43
   2  -4   4    2.84    0.50
   2  -4   4    2.46    0.39
   2  -4   4    2.73    0.34
  -3   4  -4    1.78    0.47
  -3   4  -4    1.07    0.40
  -3   4  -4    2.33    0.47
  -3   4  -4    1.74    0.34
  -3   4  -4    1.58    0.41
  -3   4  -4    1.81    0.25
   3  -4   4    1.49    0.31
   3  -4   4    0.77    0.53
   3  -4   4    1.83    0.43
   3  -4   4    1.74    0.29
   3  -4   4    1.71    0.33
   3  -4   4    2.70    0.53
  -4   4  -4    1.34    0.49
  -4   4  -4    0.39    0.37
  -4   4  -4   -0.04    0.39
  -4   4  -4    0.02    0.39
   4  -4   4    0.39    0.47
   4  -4   4    0.46    0.30
   4  -4   4    0.55    0.62
   4  -4   4   -0.13    0.47
   4  -4   4   -0.08    0.31
  -5   4  -4    0.80    0.48
  -5   4  -4    0.25    0.36
  -5   4  -4    0.55    0.55
  -5   4  -4    0.28    0.57
   5  -4   4    1.30    0.46
   5  -4   4    0.39    0.54
   5  -4   4    0.68    0.35
  -6   4  -4    0.27    0.59
  -6   4  -4    0.49    0.43
  -6   4  -4   -0.07    0.70
  -6   4  -4   -1.14    0.53
  -6   4  -4   -0.41    0.78
   6  -4   4    1.04    0.74
   6  -4   4    0.27    0.43
  -7   4  -4    2.86    0.88
  -7   4  -4    3.45    0.88
  -7   4  -4    5.09    1.12
   7  -4   4    2.31    0.83
   7  -4   4    1.99    0.97
   7  -4   4    4.92    0.90
  -8   4  -4    1.24    0.99
  -8   4  -4    1.45    1.24
  -8   4  -4    2.09    0.99
   8  -4   4    0.77    0.96
   8  -4   4    1.64    1.01
  -9  -3   4    2.06    0.91
  -9  -3   4   -0.27    0.84
  -9  -3   4    2.01    0.66
  -8  -3   4    1.91    0.51
  -8  -3   4    0.73    0.67
  -8  -3   4    0.21    0.63
  -8  -3   4    0.75    0.42
  -7  -3   4    0.98    0.36
  -7  -3   4    0.61    0.50
  -7  -3   4    0.74    0.37
  -7  -3   4    0.52    0.49
  -6  -3   4    1.64    0.33
  -6  -3   4    0.99    0.55
  -6  -3   4    2.16    0.47
  -6  -3   4    2.20    0.57
  -6  -3   4    2.51    0.69
  -6  -3   4    1.98    0.38
  -6  -3   4    2.86    0.65
  -6  -3   4    2.09    0.48
  -6  -3   4    1.89    0.40
   5   3  -4   -0.10    0.29
  -5  -3   4   -0.24    0.25
  -5  -3   4    0.37    0.44
  -5  -3   4    0.22    0.17
  -5  -3   4    0.85    0.41
  -5  -3   4    0.34    0.30
  -5  -3   4    0.15    0.43
  -5  -3   4   -0.22    0.19
  -5  -3   4   -0.07    0.23
  -5  -3   4    0.19    0.36
   4   3  -4    1.20    0.29
   4   3  -4    0.81    0.30
  -4  -3   4    1.44    0.35
  -4  -3   4    1.19    0.19
  -4  -3   4    1.34    0.26
  -4  -3   4    0.90    0.39
  -4  -3   4    1.45    0.21
  -4  -3   4    1.30    0.33
  -4  -3   4    1.20    0.26
  -4  -3   4    1.87    0.43
  -4  -3   4    1.26    0.14
  -4  -3   4    1.14    0.12
   3   3  -4    0.20    0.16
   3   3  -4    0.29    0.24
   3   3  -4    0.45    0.19
   3   3  -4    0.49    0.12
   3   3  -4    0.27    0.10
  -3  -3   4    0.23    0.11
  -3  -3   4    0.29    0.10
  -3  -3   4    0.68    0.20
  -3  -3   4    0.32    0.19
  -3  -3   4    0.33    0.13
  -3  -3   4    0.42    0.21
  -3  -3   4    1.06    0.30
  -3  -3   4    0.31    0.09
  -3  -3   4    0.25    0.15
  -3  -3   4    0.25    0.29
   2   3  -4    2.79    0.42
   2   3  -4    2.66    0.28
   2   3  -4    2.38    0.25
   2   3  -4    2.38    0.27
   2   3  -4    3.22    0.39
   2   3  -4    2.72    0.29
  -2  -3   4    2.38    0.30
  -2  -3   4    2.46    0.27
  -2  -3   4    2.94    0.36
  -2  -3   4    2.51    0.33
  -2  -3   4    2.66    0.19
  -2  -3   4    2.65    0.39
  -2  -3   4    2.07    0.39
   1   3  -4   -0.13    0.17
   1   3  -4    0.09    0.14
   1   3  -4    0.09    0.07
   1   3  -4   -0.06    0.08
   1   3  -4   -0.07    0.18
   1   3  -4    0.05    0.16
  -1  -3   4    0.15    0.14
  -1  -3   4    0.00    0.17
  -1  -3   4   -0.09    0.17
  -1  -3   4   -0.03    0.06
  -1  -3   4   -0.16    0.20
  -1  -3   4   -0.07    0.16
   0   3  -4    2.05    0.35
   0   3  -4    1.87    0.30
   0   3  -4    1.96    0.16
   0   3  -4    1.81    0.30
   0   3  -4    1.80    0.14
   0   3  -4    1.36    0.27
   0  -3   4    1.78    0.31
   0  -3   4    2.47    0.34
   0  -3   4    2.27    0.24
   0  -3   4    1.68    0.33
   0  -3   4    1.76    0.27
  -1   3  -4   19.61    1.12
  -1   3  -4   20.93    1.04
  -1   3  -4   17.30    1.15
  -1   3  -4   20.62    1.13
  -1   3  -4   18.18    1.07
  -1   3  -4   20.04    1.21
  -1   3  -4   18.34    0.96
   1  -3   4   19.24    1.15
   1  -3   4   19.00    1.10
   1  -3   4   18.39    1.21
   1  -3   4   18.20    1.06
   1  -3   4   18.89    1.08
   1  -3   4   19.96    0.93
   1  -3   4   20.38    1.07
  -2   3  -4   24.00    1.21
  -2   3  -4   22.66    1.34
  -2   3  -4   22.35    1.31
  -2   3  -4   23.61    1.34
  -2   3  -4   27.66    1.37
  -2   3  -4   22.82    1.42
   2  -3   4   24.39    1.35
   2  -3   4   23.51    1.39
   2  -3   4   25.62    1.36
   2  -3   4   23.25    1.24
   2  -3   4   23.38    1.20
   2  -3   4   24.73    1.52
  -3   3  -4   12.49    0.80
  -3   3  -4   12.79    0.89
  -3   3  -4   10.85    0.71
  -3   3  -4   11.32    0.90
  -3   3  -4   11.45    0.87
  -3   3  -4   10.52    0.90
   3  -3   4   10.92    0.75
   3  -3   4   11.82    0.68
   3  -3   4   12.90    0.81
   3  -3   4   12.54    0.93
   3  -3   4   12.12    1.07
   3  -3   4   11.57    0.87
  -4   3  -4    7.01    0.57
  -4   3  -4    6.69    0.75
  -4   3  -4    5.94    0.77
  -4   3  -4    6.03    0.71
  -4   3  -4    6.79    0.75
  -4   3  -4    5.29    0.57
   4  -3   4    6.30    0.85
   4  -3   4    6.37    0.62
   4  -3   4    6.64    0.77
   4  -3   4    5.34    0.62
   4  -3   4    6.65    0.81
  -5   3  -4   -0.40    0.38
  -5   3  -4   -0.25    0.48
  -5   3  -4    0.33    0.27
  -5   3  -4    0.55    0.43
  -5   3  -4   -0.42    0.45
   5  -3   4   -0.02    0.32
   5  -3   4    0.14    0.50
   5  -3   4   -0.05    0.34
   5  -3   4    0.16    0.51
  -6   3  -4    0.60    0.48
  -6   3  -4    0.24    0.34
  -6   3  -4    0.65    0.61
  -6   3  -4    1.02    0.53
   6  -3   4    0.41    0.59
   6  -3   4    0.71    0.42
   6  -3   4    0.54    0.50
  -7   3  -4   -0.05    0.57
  -7   3  -4   -0.22    0.79
  -7   3  -4    0.61    0.46
  -7   3  -4   -0.76    0.72
  -7   3  -4   -0.69    0.64
   7  -3   4    0.02    0.66
   7  -3   4    0.07    0.62
   7  -3   4    0.15    0.78
  -8   3  -4   -1.13    0.88
  -8   3  -4   -0.50    0.76
  -8   3  -4    1.09    1.00
   8  -3   4    0.21    1.06
   8  -3   4   -0.46    0.78
   8  -3   4    0.51    0.84
  -9  -2   4   -0.08    0.61
  -9  -2   4    1.49    0.95
  -9  -2   4   -1.15    0.82
  -8  -2   4    0.01    0.67
  -8  -2   4    0.39    0.34
  -8  -2   4    0.35    0.68
  -8  -2   4    0.28    0.47
  -7  -2   4    0.86    0.52
  -7  -2   4    1.29    0.73
  -7  -2   4    0.76    0.53
  -7  -2   4    0.06    0.36
  -7  -2   4    0.98    0.31
  -7  -2   4    0.81    0.70
  -6  -2   4    2.91    0.56
  -6  -2   4    3.52    0.56
  -6  -2   4    3.14    0.44
  -6  -2   4    2.33    0.53
  -6  -2   4    2.46    0.60
  -6  -2   4    1.73    0.60
  -6  -2   4    1.55    0.55
  -6  -2   4    3.01    0.41
  -6  -2   4    3.60    0.46
   5   2  -4   14.68    0.98
  -5  -2   4   15.65    1.04
  -5  -2   4   13.71    1.07
  -5  -2   4   15.03    0.86
  -5  -2   4   13.74    1.01
  -5  -2   4   15.27    0.93
  -5  -2   4   14.41    1.02
  -5  -2   4   16.89    0.92
  -5  -2   4   14.91    1.08
  -5  -2   4   13.74    1.04
   4   2  -4    1.43    0.29
   4   2  -4    0.77    0.30
  -4  -2   4    1.25    0.28
  -4  -2   4    1.27    0.32
  -4  -2   4    1.55    0.33
  -4  -2   4    1.32    0.21
  -4  -2   4    1.55    0.39
  -4  -2   4    2.14    0.38
  -4  -2   4    1.91    0.29
  -4  -2   4    1.76    0.23
   3   2  -4    2.53    0.18
   3   2  -4    2.66    0.40
   3   2  -4    2.82    0.33
   3   2  -4    2.87    0.19
  -3  -2   4    2.19    0.35
  -3  -2   4    2.74    0.22
  -3  -2   4    2.67    0.26
  -3  -2   4    2.75    0.33
  -3  -2   4    2.58    0.35
  -3  -2   4    2.00    0.37
  -3  -2   4    2.45    0.32
  -3  -2   4    3.05    0.23
   2   2  -4   16.06    0.81
   2   2  -4   15.42    0.85
   2   2  -4   16.88    0.81
   2   2  -4   16.15    0.99
  -2  -2   4   16.14    0.95
  -2  -2   4   15.79    0.78
  -2  -2   4   17.02    0.86
  -2  -2   4   15.49    1.01
  -2  -2   4   15.37    0.81
  -2  -2   4   16.61    0.74
  -2  -2   4   16.72    0.85
  -2  -2   4   16.57    0.76
  -2  -2   4   14.75    0.93
   1   2  -4   11.30    0.73
   1   2  -4   10.57    0.75
   1   2  -4   11.32    0.65
   1   2  -4   10.86    0.64
   1   2  -4   11.82    0.56
  -1  -2   4   11.22    0.59
  -1  -2   4   10.53    0.64
  -1  -2   4   11.76    0.55
  -1  -2   4   11.53    0.71
  -1  -2   4   11.58    0.58
  -1  -2   4   11.54    0.68
   0   2  -4   13.91    0.96
   0   2  -4   16.88    0.78
   0   2  -4   16.13    0.91
   0   2  -4   15.89    0.91
   0  -2   4   16.24    0.94
   0  -2   4   17.38    0.86
   0  -2   4   16.24    0.82
   0  -2   4   15.76    0.92
   0  -2   4   16.74    0.90
   0  -2   4   16.99    0.99
   0  -2   4   16.01    0.90
  -1   2  -4   24.83    1.32
  -1   2  -4   27.39    1.29
  -1   2  -4   26.46    1.43
  -1   2  -4   24.47    1.23
  -1   2  -4   25.04    1.40
   1  -2   4   26.22    1.37
   1  -2   4   25.51    1.37
   1  -2   4   23.09    1.16
   1  -2   4   25.59    1.28
  -2   2  -4  255.98   10.96
  -2   2  -4  261.29   10.96
  -2   2  -4  248.47   11.98
  -2   2  -4  259.46   11.80
  -2   2  -4  223.01   11.44
  -2   2  -4  263.75   11.59
   2  -2   4  261.53   12.03
   2  -2   4  250.04   10.87
   2  -2   4  225.62   11.80
   2  -2   4  252.36   11.13
   2  -2   4  260.25   11.02
  -3   2  -4    6.68    0.64
  -3   2  -4    6.15    0.62
  -3   2  -4    7.24    0.52
  -3   2  -4    7.53    0.62
  -3   2  -4    6.47    0.49
  -3   2  -4    6.22    0.58
   3  -2   4    6.81    0.52
   3  -2   4    6.70    0.65
   3  -2   4    7.38    0.63
   3  -2   4    6.51    0.56
   3  -2   4    6.63    0.43
   3  -2   4    5.64    0.65
  -4   2  -4    0.12    0.30
  -4   2  -4   -0.24    0.26
  -4   2  -4   -0.11    0.19
  -4   2  -4    0.31    0.33
  -4   2  -4    0.25    0.21
  -4   2  -4    0.15    0.26
   4  -2   4   -0.35    0.32
   4  -2   4    0.37    0.25
   4  -2   4    0.12    0.11
   4  -2   4    0.04    0.30
   4  -2   4   -0.43    0.38
   4  -2   4   -0.38    0.21
  -5   2  -4    0.31    0.25
  -5   2  -4    0.55    0.39
  -5   2  -4    0.64    0.36
  -5   2  -4    0.52    0.40
  -5   2  -4    1.12    0.38
   5  -2   4    0.46    0.42
   5  -2   4    0.21    0.53
   5  -2   4    0.07    0.28
   5  -2   4   -0.06    0.31
   5  -2   4    0.73    0.42
  -6   2  -4    2.31    0.66
  -6   2  -4    1.79    0.37
  -6   2  -4    1.56    0.52
  -6   2  -4    2.16    0.58
   6  -2   4    1.90    0.55
   6  -2   4    2.78    0.51
   6  -2   4    2.90    0.64
   6  -2   4    2.24    0.47
  -7   2  -4    0.95    0.69
  -7   2  -4    1.11    0.56
  -7   2  -4    1.19    0.66
  -7   2  -4    1.65    0.40
  -7   2  -4    0.26    0.54
   7  -2   4    0.83    0.57
   7  -2   4    0.54    0.70
  -8   2  -4    1.04    0.85
  -8   2  -4    2.03    0.73
  -8   2  -4    1.05    0.75
   8  -2   4   -0.50    0.90
   8  -2   4    0.83    0.76
   8  -2   4    1.02    0.74
  -9   2  -4    0.54    0.83
  -9   2  -4    1.97    1.15
  -9   2  -4    0.88    1.02
   9  -2   4    1.12    1.02
   9  -2   4    0.38    0.99
  -9  -1   4   10.74    1.44
  -9  -1   4    7.93    1.36
  -9  -1   4    9.12    1.07
   8   1  -4   -0.97    0.65
  -8  -1   4    0.17    0.89
  -8  -1   4    0.28    0.66
  -8  -1   4   -0.27    0.68
  -8  -1   4   -0.24    0.24
  -8  -1   4   -0.10    0.51
   7   1  -4   -0.20    0.47
  -7  -1   4   -0.11    0.38
  -7  -1   4    0.09    0.23
  -7  -1   4    0.07    0.63
  -7  -1   4    0.56    0.64
  -7  -1   4    0.51    0.56
  -7  -1   4   -0.58    0.51
   6   1  -4    3.21    0.58
  -6  -1   4    2.53    0.57
  -6  -1   4    2.13    0.39
  -6  -1   4    3.10    0.51
  -6  -1   4    1.77    0.51
  -6  -1   4    3.37    0.59
  -6  -1   4    2.75    0.56
  -6  -1   4    2.10    0.40
  -6  -1   4    2.89    0.37
   5   1  -4   16.64    1.11
   5   1  -4   15.59    1.02
  -5  -1   4   13.94    0.91
  -5  -1   4   16.80    0.93
  -5  -1   4   17.52    1.11
  -5  -1   4   13.77    1.14
  -5  -1   4   15.70    1.03
  -5  -1   4   18.08    1.06
  -5  -1   4   16.84    0.97
  -5  -1   4   15.90    1.16
   4   1  -4   17.79    1.09
   4   1  -4   17.95    1.04
  -4  -1   4   17.82    1.05
  -4  -1   4   17.61    0.99
  -4  -1   4   20.08    1.03
  -4  -1   4   18.38    1.20
  -4  -1   4   17.92    1.10
  -4  -1   4   19.79    0.95
  -4  -1   4   17.62    1.05
  -4  -1   4   17.88    1.17
   3   1  -4    1.33    0.14
   3   1  -4    1.35    0.12
   3   1  -4    1.29    0.26
   3   1  -4    1.21    0.25
   3   1  -4    1.31    0.28
  -3  -1   4    1.07    0.21
  -3  -1   4    1.25    0.16
  -3  -1   4    0.75    0.26
  -3  -1   4    1.49    0.22
  -3  -1   4    1.46    0.30
  -3  -1   4    1.08    0.17
  -3  -1   4    1.18    0.15
  -3  -1   4    1.30    0.18
  -3  -1   4    0.78    0.22
   2   1  -4    4.30    0.45
   2   1  -4    4.18    0.32
   2   1  -4    4.89    0.38
   2   1  -4    4.41    0.31
   2   1  -4    4.55    0.31
   2   1  -4    4.39    0.36
  -2  -1   4    4.89    0.35
  -2  -1   4    4.66    0.33
  -2  -1   4    4.21    0.23
  -2  -1   4    4.68    0.47
  -2  -1   4    4.30    0.40
  -2  -1   4    4.23    0.27
  -2  -1   4    3.44    0.33
  -2  -1   4    4.42    0.31
   1   1  -4    9.74    0.57
   1   1  -4   10.31    0.63
   1   1  -4    9.03    0.59
   1   1  -4    9.73    0.67
   1   1  -4   10.16    0.51
   1   1  -4   10.41    0.51
  -1  -1   4    9.28    0.50
  -1  -1   4    9.80    0.50
  -1  -1   4   10.31    0.62
  -1  -1   4    8.96    0.60
  -1  -1   4   10.18    0.63
  -1  -1   4   10.30    0.59
  -1  -1   4   10.22    0.69
  -1  -1   4   11.76    0.52
   0   1  -4    7.65    0.56
   0   1  -4    9.03    0.40
   0   1  -4    7.88    0.53
   0   1  -4    7.26    0.40
   0   1  -4    7.63    0.52
   0   1  -4    7.97    0.52
   0  -1   4    7.80    0.52
   0  -1   4    8.05    0.55
   0  -1   4    7.79    0.45
   0  -1   4    7.23    0.51
   0  -1   4    7.68    0.57
   0  -1   4    7.50    0.54
  -1   1  -4   26.03    1.31
  -1   1  -4   26.67    1.39
  -1   1  -4   26.01    1.37
  -1   1  -4   28.71    1.36
  -1   1  -4   26.71    1.45
   1  -1   4   26.62    1.41
   1  -1   4   26.77    1.38
   1  -1   4   29.09    1.50
   1  -1   4   27.19    1.21
   1  -1   4   26.58    1.37
   1  -1   4   28.02    1.44
  -2   1  -4    0.13    0.17
  -2   1  -4    0.40    0.21
  -2   1  -4    0.29    0.16
  -2   1  -4    0.24    0.12
  -2   1  -4    0.35    0.14
  -2   1  -4    0.40    0.19
  -2   1  -4    0.16    0.15
   2  -1   4    0.37    0.18
   2  -1   4    0.21    0.20
   2  -1   4    0.50    0.19
   2  -1   4    0.35    0.16
  -3   1  -4    0.65    0.15
  -3   1  -4    0.60    0.23
  -3   1  -4    0.93    0.23
  -3   1  -4    0.42    0.20
  -3   1  -4    0.37    0.17
  -3   1  -4    0.85    0.26
   3  -1   4    0.23    0.24
   3  -1   4    0.82    0.28
   3  -1   4    0.37    0.26
   3  -1   4    0.82    0.23
   3  -1   4    0.94    0.21
  -4   1  -4    3.83    0.45
  -4   1  -4    4.65    0.53
  -4   1  -4    5.16    0.58
  -4   1  -4    4.98    0.58
  -4   1  -4    4.03    0.44
  -4   1  -4    4.11    0.50
   4  -1   4    4.44    0.63
   4  -1   4    4.54    0.48
   4  -1   4    3.76    0.48
   4  -1   4    3.80    0.53
  -5   1  -4    2.00    0.35
  -5   1  -4    0.68    0.30
  -5   1  -4    1.65    0.45
  -5   1  -4    2.03    0.33
  -5   1  -4    1.37    0.40
  -5   1  -4    1.19    0.39
  -5   1  -4    1.37    0.39
   5  -1   4    1.32    0.33
   5  -1   4    1.34    0.35
   5  -1   4    0.87    0.51
   5  -1   4    2.21    0.45
   5  -1   4    1.86    0.42
  -6   1  -4    1.97    0.55
  -6   1  -4    2.03    0.43
  -6   1  -4    2.33    0.55
  -6   1  -4    1.58    0.43
  -6   1  -4    1.68    0.35
  -6   1  -4    1.46    0.48
   6  -1   4    1.68    0.43
   6  -1   4    1.74    0.44
   6  -1   4    1.82    0.51
   6  -1   4    2.27    0.56
   6  -1   4    1.83    0.69
  -7   1  -4    0.15    0.57
  -7   1  -4    1.25    0.61
  -7   1  -4   -0.61    0.42
  -7   1  -4    0.03    0.35
   7  -1   4    0.90    0.54
   7  -1   4   -1.44    0.54
   7  -1   4    0.49    0.54
  -8   1  -4    0.24    0.46
  -8   1  -4    0.36    0.80
  -8   1  -4    1.03    0.76
  -8   1  -4   -0.10    0.60
  -8   1  -4   -0.23    0.54
   8  -1   4    0.00    0.66
   8  -1   4    0.75    0.79
   8  -1   4    1.07    0.72
  -9   1  -4   -1.78    0.94
  -9   1  -4    0.63    0.87
  -9   1  -4   -0.23    0.70
   9  -1   4    0.60    0.92
   9  -1   4   -0.91    0.89
   9   0  -4    0.44    0.99
  -9   0   4   -0.08    0.72
  -9   0   4   -0.82    0.98
  -9   0   4    0.27    1.05
   8   0  -4   -1.19    0.64
  -8   0   4   -0.53    0.74
  -8   0   4   -0.50    0.63
  -8   0   4   -0.40    0.70
  -8   0   4   -0.66    0.88
   7   0  -4    1.58    0.56
  -7   0   4    1.38    0.65
  -7   0   4    1.93    0.66
  -7   0   4    0.96    0.63
   6   0  -4   13.53    1.12
  -6   0   4   12.69    0.77
  -6   0   4   14.61    1.08
  -6   0   4   14.25    0.64
  -6   0   4   13.89    1.06
  -6   0   4   14.00    1.21
  -6   0   4   14.48    1.27
  -6   0   4   13.55    1.08
   5   0  -4   18.09    1.21
   5   0  -4   18.64    1.18
  -5   0   4   18.33    0.90
  -5   0   4   20.08    1.06
  -5   0   4   17.00    1.28
  -5   0   4   17.75    1.15
  -5   0   4   18.98    1.14
  -5   0   4   19.12    1.13
  -5   0   4   21.82    1.01
  -5   0   4   16.97    1.29
   4   0  -4    0.54    0.11
   4   0  -4    0.69    0.10
   4   0  -4    0.54    0.24
   4   0  -4    0.40    0.28
  -4   0   4    0.68    0.12
  -4   0   4    0.59    0.20
  -4   0   4    0.48    0.23
  -4   0   4    0.52    0.30
  -4   0   4    0.63    0.13
  -4   0   4    0.51    0.24
  -4   0   4    0.32    0.24
  -4   0   4    0.19    0.28
  -4   0   4    0.51    0.14
   3   0  -4    3.40    0.41
   3   0  -4    4.49    0.30
   3   0  -4    3.52    0.25
   3   0  -4    2.99    0.35
   3   0  -4    3.40    0.33
  -3   0   4    4.27    0.48
  -3   0   4    3.70    0.35
  -3   0   4    4.02    0.29
  -3   0   4    3.22    0.28
  -3   0   4    3.84    0.30
  -3   0   4    3.84    0.37
  -3   0   4    4.78    0.43
  -3   0   4    4.17    0.30
  -3   0   4    3.50    0.31
   2   0  -4    2.21    0.25
   2   0  -4    2.44    0.26
   2   0  -4    2.01    0.26
   2   0  -4    1.80    0.30
   2   0  -4    2.60    0.27
  -2   0   4    2.44    0.20
  -2   0   4    2.21    0.25
  -2   0   4    2.05    0.13
  -2   0   4    2.22    0.23
  -2   0   4    2.77    0.24
  -2   0   4    2.31    0.24
  -2   0   4    2.53    0.26
   1   0  -4   24.85    1.28
   1   0  -4   29.72    1.40
   1   0  -4   26.11    1.31
   1   0  -4   26.46    1.42
   1   0  -4   26.64    1.25
   1   0  -4   28.02    1.21
  -1   0   4   28.38    1.40
  -1   0   4   27.71    1.33
  -1   0   4   26.85    1.43
  -1   0   4   25.39    1.27
  -1   0   4   25.73    1.28
   0   0  -4    1.02    0.09
   0   0  -4    1.33    0.09
   0   0  -4    1.74    0.24
   0   0  -4    1.38    0.21
   0   0  -4    1.61    0.12
   0   0  -4    1.53    0.24
   0   0  -4    1.18    0.19
   0   0   4    1.49    0.21
   0   0   4    1.12    0.18
   0   0   4    1.41    0.17
   0   0   4    1.39    0.24
   0   0   4    1.61    0.24
  -1   0  -4    3.53    0.28
  -1   0  -4    4.20    0.21
  -1   0  -4    4.38    0.35
  -1   0  -4    4.50    0.41
  -1   0  -4    4.16    0.37
  -1   0  -4    4.46    0.40
  -1   0  -4    3.90    0.30
   1   0   4    3.95    0.36
   1   0   4    3.93    0.37
   1   0   4    3.88    0.41
   1   0   4    4.74    0.39
   1   0   4    4.54    0.35
   1   0   4    4.06    0.36
  -2   0  -4    2.33    0.30
  -2   0  -4    2.47    0.21
  -2   0  -4    2.30    0.33
  -2   0  -4    2.56    0.33
  -2   0  -4    2.77    0.31
  -2   0  -4    2.54    0.29
   2   0   4    2.33    0.33
   2   0   4    2.20    0.29
   2   0   4    1.85    0.33
   2   0   4    2.77    0.35
   2   0   4    2.63    0.32
  -3   0  -4    9.74    0.68
  -3   0  -4    9.16    0.66
  -3   0  -4   10.00    0.69
  -3   0  -4    9.72    0.56
  -3   0  -4    9.87    0.71
   3   0   4    9.66    0.60
   3   0   4    9.76    0.75
   3   0   4    9.10    0.67
   3   0   4    9.44    0.71
   3   0   4    7.53    0.69
   3   0   4    9.32    0.67
  -4   0  -4    0.34    0.19
  -4   0  -4    0.47    0.25
  -4   0  -4    0.20    0.20
  -4   0  -4    0.68    0.29
  -4   0  -4    0.55    0.24
  -4   0  -4    0.40    0.25
   4   0   4    0.58    0.32
   4   0   4    0.90    0.33
   4   0   4    0.35    0.22
   4   0   4    0.67    0.24
   4   0   4    1.09    0.31
   4   0   4    0.96    0.28
  -5   0  -4    1.17    0.36
  -5   0  -4    0.24    0.29
  -5   0  -4    0.55    0.29
  -5   0  -4    0.85    0.27
  -5   0  -4    0.31    0.29
  -5   0  -4    0.96    0.36
   5   0   4    0.55    0.33
   5   0   4   -0.16    0.26
   5   0   4    0.19    0.38
   5   0   4    0.62    0.28
   5   0   4    0.33    0.34
   5   0   4    0.84    0.30
  -6   0  -4    7.92    0.70
  -6   0  -4    8.24    0.81
  -6   0  -4    9.55    0.94
  -6   0  -4    8.61    0.79
  -6   0  -4    7.52    0.77
   6   0   4    7.54    0.78
   6   0   4    7.41    0.91
   6   0   4    7.49    0.88
   6   0   4    7.60    0.46
   6   0   4    7.28    0.79
  -7   0  -4    2.34    0.60
  -7   0  -4    2.09    0.47
  -7   0  -4    2.17    0.54
   7   0   4    2.05    0.58
   7   0   4    2.68    0.70
  -8   0  -4   -0.25    0.56
  -8   0  -4    0.08    0.70
  -8   0  -4    1.32    0.53
  -8   0  -4   -0.10    0.52
  -8   0  -4    0.68    0.69
   8   0   4    0.65    0.61
   8   0   4    1.82    0.71
   8   0   4   -0.18    0.64
  -9   0  -4    1.34    0.89
  -9   0  -4    0.73    0.66
  -9   0  -4   -0.44    0.68
   9   0   4   -0.18    0.81
   9  -1  -4    1.20    1.06
  -9   1   4    4.79    1.30
  -9   1   4    2.51    1.22
   8  -1  -4    0.88    0.79
  -8   1   4    0.64    0.82
  -8   1   4    0.58    0.25
  -8   1   4    0.28    0.83
  -8   1   4   -0.07    0.25
   7  -1  -4    0.68    0.55
  -7   1   4    1.06    0.29
  -7   1   4    1.24    0.28
  -7   1   4    1.18    0.72
  -7   1   4    0.80    0.57
  -7   1   4    1.38    0.46
  -7   1   4    1.41    0.69
   6  -1  -4   -0.16    0.21
   6  -1  -4    0.22    0.22
   6  -1  -4   -0.15    0.45
  -6   1   4    0.16    0.21
  -6   1   4   -0.37    0.40
  -6   1   4   -0.23    0.37
  -6   1   4    0.03    0.28
  -6   1   4   -0.41    0.45
  -6   1   4   -0.15    0.19
   5  -1  -4    3.88    0.35
   5  -1  -4    3.62    0.52
   5  -1  -4    3.80    0.40
   5  -1  -4    3.80    0.58
  -5   1   4    3.15    0.44
  -5   1   4    4.33    0.51
  -5   1   4    3.04    0.57
  -5   1   4    4.41    0.55
  -5   1   4    4.24    0.37
  -5   1   4    3.39    0.29
  -5   1   4    4.15    0.62
  -5   1   4    3.05    0.41
  -5   1   4    4.40    0.55
  -5   1   4    3.78    0.36
   4  -1  -4    2.56    0.42
   4  -1  -4    1.88    0.37
   4  -1  -4    2.57    0.26
   4  -1  -4    2.29    0.29
  -4   1   4    2.67    0.45
  -4   1   4    2.57    0.28
  -4   1   4    2.37    0.30
  -4   1   4    2.32    0.34
  -4   1   4    2.72    0.34
  -4   1   4    2.53    0.50
  -4   1   4    2.44    0.29
  -4   1   4    2.18    0.28
  -4   1   4    2.64    0.34
   3  -1  -4    2.22    0.25
   3  -1  -4    2.74    0.36
   3  -1  -4    3.20    0.37
  -3   1   4    2.41    0.41
  -3   1   4    2.40    0.30
  -3   1   4    2.21    0.27
  -3   1   4    2.44    0.27
  -3   1   4    2.60    0.26
  -3   1   4    2.89    0.41
  -3   1   4    2.22    0.27
  -3   1   4    2.37    0.20
  -3   1   4    2.15    0.25
   2  -1  -4   25.27    1.31
   2  -1  -4   26.96    1.30
   2  -1  -4   25.87    1.23
   2  -1  -4   25.35    1.25
   2  -1  -4   25.50    1.28
  -2   1   4   25.79    1.42
  -2   1   4   24.83    1.18
  -2   1   4   25.58    1.25
  -2   1   4   26.04    1.27
  -2   1   4   25.52    1.20
  -2   1   4   28.64    1.33
  -2   1   4   25.78    1.17
   1  -1  -4   86.20    3.88
   1  -1  -4   95.26    3.84
   1  -1  -4   86.53    3.68
   1  -1  -4   87.34    3.84
   1  -1  -4   88.61    4.14
  -1   1   4   90.53    3.65
  -1   1   4   88.82    4.14
  -1   1   4   88.19    3.88
  -1   1   4   75.14    4.14
  -1   1   4   81.71    4.00
  -1   1   4   87.90    3.86
   0  -1  -4    1.25    0.11
   0  -1  -4    1.36    0.25
   0  -1  -4    1.36    0.13
   0  -1  -4    1.34    0.12
   0  -1  -4    1.36    0.20
   0  -1  -4    0.94    0.19
   0  -1  -4    1.04    0.20
   0   1   4    1.48    0.23
   0   1   4    1.25    0.21
   0   1   4    1.07    0.20
   0   1   4    1.10    0.25
   0   1   4    1.39    0.16
  -1  -1  -4   16.00    0.85
  -1  -1  -4   14.81    0.82
  -1  -1  -4   15.09    0.84
  -1  -1  -4   15.24    0.87
  -1  -1  -4   13.86    0.77
   1   1   4   14.40    0.88
   1   1   4   14.10    0.82
   1   1   4   15.66    0.83
   1   1   4   14.85    0.82
   1   1   4   15.34    0.89
  -2  -1  -4    0.08    0.16
  -2  -1  -4    0.24    0.14
  -2  -1  -4    0.29    0.11
  -2  -1  -4    0.17    0.12
  -2  -1  -4    0.30    0.20
  -2  -1  -4    0.16    0.12
   2   1   4    0.02    0.16
   2   1   4    0.29    0.15
   2   1   4    0.50    0.18
   2   1   4    0.27    0.22
   2   1   4    0.23    0.17
  -3  -1  -4    0.73    0.21
  -3  -1  -4    0.68    0.19
  -3  -1  -4    0.68    0.17
  -3  -1  -4    0.65    0.24
  -3  -1  -4    0.86    0.24
  -3  -1  -4    0.73    0.18
   3   1   4    0.73    0.24
   3   1   4    0.95    0.25
   3   1   4    0.93    0.26
   3   1   4    0.69    0.25
  -4  -1  -4    0.80    0.25
  -4  -1  -4    0.24    0.22
  -4  -1  -4    0.95    0.29
  -4  -1  -4    0.54    0.22
  -4  -1  -4    0.48    0.23
  -4  -1  -4    0.50    0.24
   4   1   4    0.32    0.23
   4   1   4    0.42    0.26
   4   1   4    0.67    0.28
   4   1   4    0.85    0.29
   4   1   4    0.73    0.27
   4   1   4    0.33    0.24
  -5  -1  -4    0.17    0.28
  -5  -1  -4    0.24    0.31
  -5  -1  -4    0.12    0.26
  -5  -1  -4   -0.07    0.25
  -5  -1  -4    0.43    0.25
  -5  -1  -4   -0.26    0.25
   5   1   4    0.11    0.31
   5   1   4   -0.46    0.34
   5   1   4    0.24    0.38
   5   1   4    0.53    0.32
   5   1   4   -0.13    0.26
  -6  -1  -4    0.18    0.30
  -6  -1  -4    0.29    0.36
  -6  -1  -4    0.17    0.31
  -6  -1  -4   -0.20    0.30
  -6  -1  -4   -0.27    0.31
  -6  -1  -4   -0.56    0.35
   6   1   4    0.06    0.34
   6   1   4   -0.48    0.46
   6   1   4   -0.06    0.34
   6   1   4    0.21    0.20
   6   1   4    0.02    0.41
   6   1   4    0.59    0.41
  -7  -1  -4    0.33    0.37
  -7  -1  -4    0.56    0.48
  -7  -1  -4   -0.03    0.50
  -7  -1  -4    0.40    0.40
  -7  -1  -4    0.23    0.40
  -7  -1  -4    1.15    0.50
   7   1   4    1.08    0.49
   7   1   4    0.30    0.56
   7   1   4    0.48    0.50
   7   1   4    0.29    0.23
  -8  -1  -4    1.93    0.55
  -8  -1  -4    2.42    0.58
  -8  -1  -4    2.76    0.66
  -8  -1  -4    2.80    0.71
   8   1   4    1.73    0.64
   8   1   4    2.05    0.70
  -9  -1  -4    3.96    0.82
  -9  -1  -4    2.88    0.90
  -9  -1  -4    2.38    0.67
   9   1   4    1.85    0.79
 -10  -1  -4   -0.89    0.99
 -10  -1  -4   -0.49    0.92
 -10  -1  -4    1.23    0.73
  10   1   4   -2.09    1.00
   8  -2  -4    1.06    0.88
  -8   2   4    0.71    0.41
  -8   2   4   -0.63    0.85
  -8   2   4    1.22    0.98
   7  -2  -4    0.51    0.44
   7  -2  -4    1.00    0.59
   7  -2  -4    0.05    0.34
  -7   2   4    1.39    0.58
  -7   2   4    0.34    0.35
  -7   2   4    0.32    0.36
  -7   2   4    0.39    0.68
  -7   2   4    0.73    0.39
   6  -2  -4    0.64    0.37
   6  -2  -4    0.38    0.31
   6  -2  -4    0.55    0.25
  -6   2   4   -0.46    0.38
  -6   2   4    0.15    0.25
  -6   2   4    0.77    0.28
  -6   2   4    0.19    0.28
   5  -2  -4    0.93    0.31
   5  -2  -4    0.78    0.39
   5  -2  -4    0.52    0.22
   5  -2  -4    0.38    0.38
  -5   2   4    0.95    0.24
  -5   2   4    1.09    0.34
  -5   2   4    0.75    0.25
  -5   2   4    0.82    0.21
  -5   2   4    1.02    0.48
  -5   2   4    1.35    0.47
   4  -2  -4    0.97    0.31
   4  -2  -4    0.95    0.27
   4  -2  -4    0.74    0.34
  -4   2   4    0.77    0.21
  -4   2   4    0.82    0.21
  -4   2   4    1.23    0.42
  -4   2   4    0.90    0.16
  -4   2   4    1.34    0.39
  -4   2   4    1.27    0.27
   3  -2  -4    4.66    0.39
   3  -2  -4    4.63    0.48
   3  -2  -4    5.45    0.33
   3  -2  -4    5.88    0.50
   3  -2  -4    4.99    0.47
  -3   2   4    5.63    0.42
  -3   2   4    5.46    0.38
  -3   2   4    5.00    0.54
  -3   2   4    5.18    0.37
  -3   2   4    5.58    0.43
  -3   2   4    5.33    0.39
  -3   2   4    4.78    0.30
  -3   2   4    5.02    0.58
   2  -2  -4    0.77    0.23
   2  -2  -4    1.01    0.21
   2  -2  -4    1.10    0.22
   2  -2  -4    1.09    0.16
   2  -2  -4    1.27    0.20
  -2   2   4    1.21    0.27
  -2   2   4    0.94    0.14
  -2   2   4    0.88    0.18
  -2   2   4    0.80    0.26
  -2   2   4    0.92    0.21
  -2   2   4    1.01    0.08
  -2   2   4    1.15    0.14
  -2   2   4    1.06    0.20
   1  -2  -4    0.47    0.14
   1  -2  -4    0.22    0.10
   1  -2  -4    0.32    0.11
   1  -2  -4    0.36    0.11
   1  -2  -4    0.67    0.20
  -1   2   4    0.16    0.14
  -1   2   4    0.30    0.06
  -1   2   4    0.33    0.06
  -1   2   4    0.32    0.08
  -1   2   4    0.43    0.16
  -1   2   4    0.19    0.17
  -1   2   4    0.44    0.10
  -1   2   4    0.26    0.14
   0  -2  -4   29.60    1.49
   0  -2  -4   29.35    1.29
   0  -2  -4   26.50    1.49
   0  -2  -4   28.32    1.43
   0  -2  -4   30.78    1.36
   0   2   4   29.29    1.44
   0   2   4   28.97    1.54
   0   2   4   30.71    1.50
   0   2   4   28.54    1.46
   0   2   4   30.94    1.44
  -1  -2  -4    2.66    0.30
  -1  -2  -4    2.29    0.29
  -1  -2  -4    2.60    0.33
  -1  -2  -4    2.16    0.20
  -1  -2  -4    2.14    0.26
   1   2   4    2.89    0.28
   1   2   4    2.20    0.28
   1   2   4    2.81    0.25
   1   2   4    2.75    0.35
   1   2   4    2.32    0.32
  -2  -2  -4    0.16    0.15
  -2  -2  -4    0.01    0.19
  -2  -2  -4    0.19    0.09
  -2  -2  -4    0.08    0.11
  -2  -2  -4    0.30    0.16
   2   2   4    0.20    0.14
   2   2   4    0.16    0.18
   2   2   4    0.45    0.10
   2   2   4    0.19    0.20
   2   2   4    0.09    0.15
   2   2   4    0.15    0.14
   2   2   4    0.04    0.12
  -3  -2  -4   33.45    1.75
  -3  -2  -4   32.02    1.83
  -3  -2  -4   35.47    1.72
  -3  -2  -4   33.91    1.63
  -3  -2  -4   34.82    1.67
  -3  -2  -4   34.25    1.77
   3   2   4   36.27    1.89
   3   2   4   34.67    1.78
   3   2   4   33.35    1.68
  -4  -2  -4    6.36    0.41
  -4  -2  -4    5.86    0.58
  -4  -2  -4    7.06    0.56
  -4  -2  -4    6.77    0.53
  -4  -2  -4    7.20    0.60
  -4  -2  -4    6.77    0.55
  -4  -2  -4    5.93    0.62
   4   2   4    7.50    0.60
   4   2   4    6.48    0.57
   4   2   4    6.40    0.64
   4   2   4    7.78    0.68
   4   2   4    6.06    0.56
  -5  -2  -4   13.81    0.97
  -5  -2  -4   13.37    0.91
  -5  -2  -4   15.25    0.97
  -5  -2  -4   14.77    0.96
  -5  -2  -4   13.77    1.01
  -5  -2  -4   14.72    1.03
   5   2   4   14.30    1.04
   5   2   4   14.28    1.01
   5   2   4   15.31    1.07
   5   2   4   13.30    0.93
   5   2   4   14.98    1.03
  -6  -2  -4   -0.24    0.31
  -6  -2  -4   -0.44    0.35
  -6  -2  -4   -0.73    0.35
  -6  -2  -4    0.74    0.31
  -6  -2  -4   -0.06    0.26
  -6  -2  -4   -0.28    0.32
   6   2   4    0.75    0.38
   6   2   4    0.08    0.37
   6   2   4    0.07    0.35
   6   2   4   -0.24    0.48
   6   2   4    0.18    0.27
   6   2   4    0.27    0.37
  -7  -2  -4    9.68    0.98
  -7  -2  -4   10.12    1.00
  -7  -2  -4   10.86    0.88
  -7  -2  -4   10.08    1.05
  -7  -2  -4    9.89    0.96
  -7  -2  -4   10.63    0.90
   7   2   4    9.66    1.02
   7   2   4   10.65    1.08
   7   2   4   10.99    1.01
   7   2   4    9.61    0.76
  -8  -2  -4    3.04    0.69
  -8  -2  -4    2.61    0.48
  -8  -2  -4    3.12    0.68
  -8  -2  -4    3.00    0.70
  -8  -2  -4    2.67    0.54
  -8  -2  -4    2.77    0.59
   8   2   4    2.65    0.66
   8   2   4    1.95    0.79
   8   2   4    2.99    0.68
   8   2   4    3.06    0.43
  -9  -2  -4   -0.09    0.55
  -9  -2  -4    0.81    0.60
  -9  -2  -4    0.08    0.70
   9   2   4   -0.10    0.29
   9   2   4    1.34    0.80
   9   2   4   -0.35    0.76
 -10  -2  -4   -0.10    0.94
 -10  -2  -4    0.21    0.69
 -10  -2  -4    0.46    0.79
  10   2   4    1.14    0.93
   8  -3  -4   -0.53    0.87
  -8   3   4   -0.67    1.03
  -8   3   4    0.12    0.96
  -8   3   4    0.54    0.54
   7  -3  -4    4.34    0.50
   7  -3  -4    3.52    0.92
  -7   3   4    4.52    0.52
  -7   3   4    3.84    0.56
  -7   3   4    2.99    0.91
   6  -3  -4    4.14    0.73
   6  -3  -4    4.19    0.52
  -6   3   4    4.60    0.58
  -6   3   4    4.89    0.49
  -6   3   4    3.95    0.51
  -6   3   4    4.38    0.55
  -6   3   4    3.18    0.81
   5  -3  -4    1.17    0.41
   5  -3  -4    0.76    0.27
   5  -3  -4    0.64    0.21
   5  -3  -4    0.81    0.43
   5  -3  -4    1.39    0.46
  -5   3   4    0.58    0.32
  -5   3   4    0.83    0.31
  -5   3   4    0.78    0.20
  -5   3   4    0.37    0.50
  -5   3   4    0.86    0.30
   4  -3  -4   18.37    1.20
   4  -3  -4   19.12    1.20
   4  -3  -4   20.56    1.12
   4  -3  -4   21.60    1.30
  -4   3   4   19.95    1.13
  -4   3   4   23.29    1.05
  -4   3   4   19.65    1.13
  -4   3   4   20.78    1.08
  -4   3   4   20.78    1.48
   3  -3  -4    5.78    0.53
   3  -3  -4    3.90    0.49
   3  -3  -4    5.02    0.44
   3  -3  -4    4.18    0.49
  -3   3   4    4.05    0.27
  -3   3   4    4.60    0.43
  -3   3   4    4.46    0.64
  -3   3   4    3.95    0.36
  -3   3   4    4.38    0.44
   2  -3  -4   23.60    1.30
   2  -3  -4   26.08    1.28
   2  -3  -4   26.53    1.37
  -2   3   4   24.08    1.20
  -2   3   4   26.10    1.32
  -2   3   4   26.37    1.57
  -2   3   4   26.96    1.34
  -2   3   4   26.33    1.18
   1  -3  -4    6.78    0.56
   1  -3  -4    6.40    0.50
   1  -3  -4    7.23    0.45
   1  -3  -4    8.08    0.46
  -1   3   4    6.77    0.53
  -1   3   4    6.97    0.41
  -1   3   4    5.81    0.50
  -1   3   4    6.58    0.38
  -1   3   4    7.15    0.39
   0  -3  -4   14.06    0.80
   0  -3  -4   13.45    0.67
   0  -3  -4   14.35    0.82
   0   3   4   14.91    0.74
   0   3   4   13.49    0.81
   0   3   4   14.40    0.81
   0   3   4   13.88    0.64
   0   3   4   13.70    0.84
   0   3   4   13.73    0.75
  -1  -3  -4    3.02    0.23
  -1  -3  -4    3.36    0.27
  -1  -3  -4    3.43    0.42
  -1  -3  -4    2.94    0.34
  -1  -3  -4    2.85    0.35
   1   3   4    3.29    0.28
   1   3   4    3.44    0.40
   1   3   4    3.51    0.30
   1   3   4    3.68    0.35
  -2  -3  -4   17.76    1.02
  -2  -3  -4   19.03    1.00
  -2  -3  -4   18.70    1.03
  -2  -3  -4   19.90    1.12
  -2  -3  -4   17.45    1.08
   2   3   4   18.86    0.95
   2   3   4   19.87    1.05
   2   3   4   18.15    1.11
   2   3   4   19.51    1.00
   2   3   4   19.66    1.10
  -3  -3  -4   38.08    1.85
  -3  -3  -4   36.24    1.91
  -3  -3  -4   38.45    1.94
  -3  -3  -4   35.51    1.92
  -3  -3  -4   40.33    2.04
   3   3   4   40.23    1.93
   3   3   4   37.88    1.98
   3   3   4   36.84    1.83
   3   3   4   35.44    1.93
   3   3   4   38.32    1.86
  -4  -3  -4    0.11    0.26
  -4  -3  -4   -0.08    0.19
  -4  -3  -4   -0.15    0.25
  -4  -3  -4    0.29    0.25
  -4  -3  -4    0.20    0.18
   4   3   4   -0.24    0.19
   4   3   4    0.30    0.19
   4   3   4   -0.06    0.26
   4   3   4    0.24    0.22
   4   3   4   -0.33    0.24
  -5  -3  -4   -0.23    0.31
  -5  -3  -4    0.31    0.25
  -5  -3  -4    0.05    0.23
  -5  -3  -4    0.37    0.31
  -5  -3  -4    0.41    0.33
   5   3   4    0.33    0.37
   5   3   4    0.12    0.31
   5   3   4    0.16    0.27
   5   3   4    0.14    0.25
  -6  -3  -4    0.91    0.39
  -6  -3  -4    1.30    0.46
  -6  -3  -4    0.64    0.13
  -6  -3  -4    0.54    0.26
  -6  -3  -4    0.89    0.36
  -6  -3  -4    0.49    0.28
  -6  -3  -4    0.79    0.42
   6   3   4    0.74    0.33
   6   3   4    0.51    0.37
   6   3   4    0.95    0.36
   6   3   4    0.98    0.40
   6   3   4    1.02    0.33
  -7  -3  -4    0.61    0.48
  -7  -3  -4    0.67    0.18
  -7  -3  -4    1.00    0.35
  -7  -3  -4   -0.02    0.44
  -7  -3  -4    0.22    0.33
  -7  -3  -4   -0.06    0.42
  -7  -3  -4   -0.99    0.52
   7   3   4    0.54    0.47
   7   3   4   -0.26    0.39
   7   3   4    0.10    0.32
   7   3   4    0.49    0.43
  -8  -3  -4    2.65    0.62
  -8  -3  -4    2.24    0.34
  -8  -3  -4    1.70    0.47
  -8  -3  -4    1.40    0.68
  -8  -3  -4    1.75    0.64
  -8  -3  -4    1.97    0.48
   8   3   4    2.01    0.67
   8   3   4    2.14    0.47
   8   3   4    3.46    0.69
   8   3   4    1.48    0.68
  -9  -3  -4    0.00    0.53
  -9  -3  -4    0.42    0.64
  -9  -3  -4    0.58    0.49
   9   3   4    0.25    0.77
   9   3   4    0.74    0.69
   9   3   4    0.32    0.43
 -10  -3  -4    1.01    0.72
 -10  -3  -4   -0.66    0.88
 -10  -3  -4   -0.49    0.61
  10   3   4    0.43    0.97
   7  -4  -4    0.64    0.77
  -7   4   4    2.06    0.99
   6  -4  -4    0.36    0.27
   6  -4  -4    0.06    0.60
   6  -4  -4   -0.08    0.45
  -6   4   4    0.32    0.47
  -6   4   4    0.30    0.39
  -6   4   4    0.41    0.27
  -6   4   4    0.29    0.63
  -6   4   4   -0.32    0.43
   5  -4  -4    4.67    0.40
  -5   4   4    5.01    0.40
  -5   4   4    4.68    0.60
  -5   4   4    3.82    0.56
  -5   4   4    3.96    0.77
   4  -4  -4    1.11    0.38
   4  -4  -4    0.10    0.29
   4  -4  -4    0.10    0.40
   4  -4  -4    0.73    0.35
  -4   4   4    0.09    0.26
  -4   4   4    0.78    0.34
  -4   4   4    0.35    0.13
  -4   4   4    0.40    0.48
  -4   4   4    0.08    0.22
   3  -4  -4    1.85    0.33
   3  -4  -4    1.62    0.35
   3  -4  -4    1.50    0.32
   3  -4  -4    1.02    0.37
  -3   4   4    1.82    0.46
  -3   4   4    1.44    0.32
  -3   4   4    1.61    0.32
  -3   4   4    1.51    0.26
  -3   4   4    1.34    0.17
   2  -4  -4    0.75    0.32
   2  -4  -4    0.91    0.14
   2  -4  -4    0.69    0.22
   2  -4  -4    0.83    0.24
   2  -4  -4    0.71    0.24
   2  -4  -4    0.70    0.17
  -2   4   4    0.60    0.31
  -2   4   4    0.90    0.12
  -2   4   4    0.55    0.23
  -2   4   4    0.73    0.15
  -2   4   4    0.92    0.26
   1  -4  -4    3.45    0.42
   1  -4  -4    3.66    0.33
   1  -4  -4    3.53    0.33
   1  -4  -4    4.04    0.27
   1  -4  -4    3.08    0.43
  -1   4   4    3.40    0.41
  -1   4   4    3.42    0.26
  -1   4   4    3.66    0.27
  -1   4   4    3.10    0.47
  -1   4   4    3.94    0.42
  -1   4   4    4.05    0.29
   0  -4  -4    2.46    0.40
   0  -4  -4    2.61    0.23
   0  -4  -4    1.86    0.29
   0  -4  -4    2.34    0.32
   0  -4  -4    2.31    0.17
   0   4   4    2.35    0.34
   0   4   4    2.09    0.33
   0   4   4    2.32    0.25
   0   4   4    2.25    0.24
  -1  -4  -4    5.19    0.30
  -1  -4  -4    4.56    0.47
  -1  -4  -4    5.13    0.32
  -1  -4  -4    5.43    0.33
  -1  -4  -4    4.57    0.42
   1   4   4    4.63    0.40
   1   4   4    4.72    0.38
   1   4   4    4.49    0.48
   1   4   4    5.18    0.48
  -2  -4  -4    8.42    0.54
  -2  -4  -4    8.12    0.51
  -2  -4  -4    8.96    0.60
  -2  -4  -4    8.32    0.69
  -2  -4  -4    7.17    0.65
   2   4   4    9.18    0.69
   2   4   4    8.23    0.54
   2   4   4    8.50    0.62
   2   4   4    8.31    0.59
   2   4   4    8.10    0.48
  -3  -4  -4    1.83    0.26
  -3  -4  -4    2.54    0.35
  -3  -4  -4    2.03    0.33
  -3  -4  -4    2.73    0.41
  -3  -4  -4    2.83    0.44
   3   4   4    2.53    0.38
   3   4   4    2.09    0.29
   3   4   4    2.93    0.39
   3   4   4    2.99    0.39
   3   4   4    2.15    0.31
  -4  -4  -4   19.81    1.23
  -4  -4  -4   21.49    1.36
  -4  -4  -4   22.16    1.31
  -4  -4  -4   22.18    1.29
  -4  -4  -4   22.94    1.24
   4   4   4   21.72    1.24
   4   4   4   24.24    1.24
   4   4   4   21.99    1.28
   4   4   4   20.18    1.31
   4   4   4   22.19    1.23
  -5  -4  -4   -0.19    0.34
  -5  -4  -4   -0.20    0.21
  -5  -4  -4    0.18    0.26
  -5  -4  -4    0.29    0.35
  -5  -4  -4   -0.09    0.22
  -5  -4  -4    0.37    0.32
   5   4   4   -0.04    0.35
   5   4   4    0.20    0.29
   5   4   4   -0.02    0.22
   5   4   4    0.15    0.28
   5   4   4    0.20    0.28
   5   4   4   -0.04    0.30
  -6  -4  -4    0.05    0.26
  -6  -4  -4    0.62    0.44
  -6  -4  -4    0.01    0.37
  -6  -4  -4   -0.99    0.42
  -6  -4  -4    0.14    0.31
   6   4   4    0.21    0.33
   6   4   4   -0.18    0.34
   6   4   4    0.16    0.38
   6   4   4   -0.06    0.33
   6   4   4   -0.83    0.48
  -7  -4  -4    4.94    0.63
  -7  -4  -4    4.58    0.71
  -7  -4  -4    6.08    0.81
  -7  -4  -4    3.85    0.68
   7   4   4    3.64    0.56
   7   4   4    5.31    0.74
   7   4   4    4.62    0.61
   7   4   4    4.51    0.70
  -8  -4  -4    4.26    0.61
  -8  -4  -4    5.28    0.86
  -8  -4  -4    4.56    0.77
  -8  -4  -4    4.11    0.58
   8   4   4    5.80    0.81
   8   4   4    4.52    0.68
   8   4   4    5.78    0.84
   8   4   4    4.93    0.74
  -9  -4  -4    2.20    0.55
  -9  -4  -4    1.75    0.69
  -9  -4  -4    2.29    0.57
   9   4   4    2.71    0.78
   9   4   4    3.52    0.60
 -10  -4  -4    0.40    0.87
 -10  -4  -4   -0.21    0.66
 -10  -4  -4    2.45    0.88
 -10  -4  -4    0.74    0.61
  10   4   4    0.98    0.92
   7  -5  -4   -0.44    0.94
  -7   5   4   -1.01    1.00
   6  -5  -4   -0.68    0.65
  -6   5   4   -0.37    0.47
  -6   5   4    0.26    0.78
  -6   5   4   -0.02    0.29
   5  -5  -4   -0.48    0.42
   5  -5  -4   -0.16    0.42
  -5   5   4    0.22    0.38
  -5   5   4   -0.66    0.43
  -5   5   4    0.42    0.65
  -5   5   4    0.13    0.21
   4  -5  -4    2.84    0.57
   4  -5  -4    2.69    0.46
   4  -5  -4    2.99    0.55
  -4   5   4    2.08    0.29
  -4   5   4    2.09    0.46
  -4   5   4    2.95    0.48
   3  -5  -4    2.05    0.38
   3  -5  -4    1.60    0.47
   3  -5  -4    0.97    0.32
   3  -5  -4    1.37    0.33
  -3   5   4    1.37    0.36
  -3   5   4    0.74    0.45
  -3   5   4    1.49    0.25
  -3   5   4    1.72    0.22
  -3   5   4    1.61    0.35
   2  -5  -4    5.90    0.51
   2  -5  -4    5.04    0.38
   2  -5  -4    5.20    0.52
   2  -5  -4    5.61    0.55
   2  -5  -4    5.08    0.44
   2  -5  -4    5.28    0.67
  -2   5   4    4.95    0.39
  -2   5   4    5.09    0.58
  -2   5   4    5.01    0.65
  -2   5   4    4.93    0.36
  -2   5   4    5.40    0.59
  -2   5   4    4.75    0.35
   1  -5  -4    0.98    0.37
   1  -5  -4    0.42    0.24
   1  -5  -4    1.16    0.24
   1  -5  -4    1.27    0.18
   1  -5  -4    1.08    0.24
  -1   5   4    1.29    0.33
  -1   5   4    1.10    0.17
  -1   5   4    1.31    0.38
  -1   5   4    1.15    0.17
  -1   5   4    1.10    0.18
  -1   5   4    1.28    0.32
   0  -5  -4    4.69    0.46
   0  -5  -4    4.13    0.54
   0  -5  -4    4.44    0.34
   0  -5  -4    4.41    0.28
   0  -5  -4    4.44    0.49
   0   5   4    4.56    0.38
   0   5   4    3.99    0.34
   0   5   4    4.04    0.52
   0   5   4    4.39    0.52
  -1  -5  -4    6.67    0.37
  -1  -5  -4    7.08    0.42
  -1  -5  -4    6.99    0.40
  -1  -5  -4    6.03    0.53
  -1  -5  -4    6.14    0.65
  -1  -5  -4    5.87    0.57
   1   5   4    6.08    0.56
   1   5   4    6.08    0.59
   1   5   4    6.25    0.57
   1   5   4    6.41    0.51
   1   5   4    6.02    0.46
  -2  -5  -4   -0.09    0.24
  -2  -5  -4    0.49    0.29
  -2  -5  -4    0.24    0.12
  -2  -5  -4    0.39    0.20
  -2  -5  -4    0.16    0.11
  -2  -5  -4    0.45    0.18
   2   5   4    0.29    0.24
   2   5   4    0.21    0.18
   2   5   4    0.31    0.27
   2   5   4    0.29    0.20
   2   5   4    0.03    0.14
  -3  -5  -4    0.50    0.25
  -3  -5  -4    0.81    0.34
  -3  -5  -4    1.29    0.36
  -3  -5  -4    0.95    0.25
  -3  -5  -4    0.76    0.18
   3   5   4    0.91    0.30
   3   5   4    0.62    0.27
   3   5   4    1.11    0.28
   3   5   4    0.81    0.24
   3   5   4    0.85    0.12
  -4  -5  -4    0.50    0.30
  -4  -5  -4    0.88    0.27
  -4  -5  -4    0.90    0.27
  -4  -5  -4    1.41    0.38
  -4  -5  -4    1.54    0.38
  -4  -5  -4    1.01    0.24
   4   5   4    1.13    0.31
   4   5   4    1.04    0.30
   4   5   4    0.93    0.33
   4   5   4    1.29    0.38
   4   5   4    0.49    0.17
  -5  -5  -4    0.67    0.28
  -5  -5  -4    1.20    0.30
  -5  -5  -4    1.37    0.40
  -5  -5  -4    0.91    0.32
  -5  -5  -4    0.92    0.44
  -5  -5  -4    1.13    0.43
   5   5   4    1.27    0.35
   5   5   4    1.27    0.37
   5   5   4    1.09    0.36
   5   5   4    0.69    0.36
   5   5   4    0.94    0.42
   5   5   4    0.79    0.23
  -6  -5  -4   15.22    1.24
  -6  -5  -4   15.02    0.98
  -6  -5  -4   13.43    1.10
  -6  -5  -4   14.02    1.04
  -6  -5  -4   16.47    1.21
  -6  -5  -4   15.65    1.17
   6   5   4   14.58    0.95
   6   5   4   14.25    1.05
   6   5   4   13.93    1.22
   6   5   4   15.38    1.09
   6   5   4   13.46    1.05
   6   5   4   15.18    1.14
  -7  -5  -4    1.74    0.65
  -7  -5  -4    0.97    0.53
  -7  -5  -4    1.36    0.39
  -7  -5  -4    0.82    0.43
   7   5   4    1.17    0.50
   7   5   4    1.15    0.48
   7   5   4    0.82    0.44
  -8  -5  -4   -0.26    0.46
  -8  -5  -4    0.24    0.38
  -8  -5  -4    0.40    0.56
  -8  -5  -4   -1.04    0.59
   8   5   4    0.50    0.56
   8   5   4   -0.11    0.57
   8   5   4   -0.19    0.47
   8   5   4   -0.10    0.48
  -9  -5  -4    0.25    0.65
  -9  -5  -4    0.33    0.47
  -9  -5  -4   -0.04    0.70
   9   5   4    0.41    0.73
   9   5   4    0.15    0.60
 -10  -5  -4    3.32    0.90
 -10  -5  -4    0.92    0.62
 -10  -5  -4    3.45    0.98
  10   5   4    1.85    0.91
  10   5   4    2.23    0.76
   6  -6  -4    0.46    0.85
  -6   6   4    0.57    0.62
  -6   6   4    0.74    0.95
   5  -6  -4   -0.08    0.58
   5  -6  -4    0.85    0.56
  -5   6   4    0.86    0.68
  -5   6   4   -0.30    0.45
  -5   6   4    0.65    0.29
   4  -6  -4    0.48    0.45
   4  -6  -4    1.15    0.49
   4  -6  -4    1.85    0.51
  -4   6   4    0.99    0.24
  -4   6   4    1.43    0.53
  -4   6   4    1.48    0.64
  -4   6   4    0.80    0.41
   3  -6  -4    8.39    0.81
   3  -6  -4    8.60    0.80
   3  -6  -4    7.54    0.77
  -3   6   4    7.24    0.80
  -3   6   4    7.82    0.53
  -3   6   4    8.71    0.86
  -3   6   4    8.53    0.56
  -3   6   4    6.75    1.02
   2  -6  -4    2.99    0.48
   2  -6  -4    2.13    0.28
   2  -6  -4    2.52    0.35
   2  -6  -4    2.62    0.37
   2  -6  -4    2.39    0.41
  -2   6   4    2.22    0.31
  -2   6   4    2.54    0.29
  -2   6   4    2.65    0.49
  -2   6   4    2.48    0.45
  -2   6   4    2.70    0.57
   1  -6  -4   27.93    1.65
   1  -6  -4   26.70    1.54
   1  -6  -4   30.23    1.45
   1  -6  -4   28.43    1.56
   1  -6  -4   28.73    1.43
  -1   6   4   29.68    1.58
  -1   6   4   28.44    1.60
  -1   6   4   26.20    1.45
  -1   6   4   29.91    1.46
  -1   6   4   29.15    1.80
   0  -6  -4    0.18    0.10
   0  -6  -4    0.13    0.14
   0  -6  -4    0.11    0.08
   0  -6  -4   -0.30    0.36
   0  -6  -4    0.19    0.26
   0  -6  -4   -0.07    0.23
   0   6   4    0.37    0.29
   0   6   4    0.33    0.19
   0   6   4   -0.20    0.24
   0   6   4    0.28    0.16
   0   6   4   -0.15    0.29
  -1  -6  -4   13.05    0.96
  -1  -6  -4   13.53    0.72
  -1  -6  -4   14.06    0.71
  -1  -6  -4   14.12    0.99
  -1  -6  -4   12.69    0.68
  -1  -6  -4   14.48    0.90
   1   6   4   13.60    0.94
   1   6   4   13.85    0.87
   1   6   4   12.54    0.83
   1   6   4   13.14    0.91
   1   6   4   12.76    0.92
  -2  -6  -4    1.31    0.20
  -2  -6  -4    1.37    0.33
  -2  -6  -4    1.61    0.28
  -2  -6  -4    0.79    0.39
  -2  -6  -4    1.60    0.19
  -2  -6  -4    1.80    0.18
   2   6   4    1.71    0.31
   2   6   4    1.85    0.41
   2   6   4    1.86    0.40
   2   6   4    1.67    0.23
   2   6   4    1.39    0.28
   2   6   4    1.35    0.34
  -3  -6  -4    2.42    0.27
  -3  -6  -4    2.60    0.38
  -3  -6  -4    2.19    0.38
  -3  -6  -4    2.78    0.52
  -3  -6  -4    2.41    0.32
   3   6   4    3.10    0.45
   3   6   4    3.60    0.49
   3   6   4    2.95    0.42
   3   6   4    3.03    0.39
  -4  -6  -4    6.06    0.58
  -4  -6  -4    5.63    0.81
  -4  -6  -4    5.93    0.73
  -4  -6  -4    6.21    0.48
  -4  -6  -4    5.85    0.55
  -4  -6  -4    6.58    0.64
   4   6   4    5.74    0.67
   4   6   4    4.74    0.65
   4   6   4    5.97    0.46
   4   6   4    6.47    0.59
   4   6   4    6.48    0.65
  -5  -6  -4   20.02    1.29
  -5  -6  -4   22.65    1.26
  -5  -6  -4   20.40    1.50
  -5  -6  -4   19.91    1.23
  -5  -6  -4   20.78    1.41
  -5  -6  -4   21.04    1.31
   5   6   4   21.97    1.48
   5   6   4   20.23    1.32
   5   6   4   20.07    1.28
   5   6   4   20.22    1.14
   5   6   4   20.40    1.40
  -6  -6  -4   10.20    0.90
  -6  -6  -4    8.03    1.04
  -6  -6  -4    7.93    1.03
  -6  -6  -4    7.44    1.02
  -6  -6  -4    9.18    0.79
  -6  -6  -4   11.42    0.86
  -6  -6  -4   10.35    1.05
   6   6   4   10.91    1.01
   6   6   4    9.69    0.67
   6   6   4    7.96    1.03
   6   6   4    9.78    0.91
   6   6   4    9.28    0.87
  -7  -6  -4    0.13    0.54
  -7  -6  -4    0.13    0.36
   7   6   4    0.00    0.46
   7   6   4   -0.02    0.29
   7   6   4   -0.84    0.42
  -8  -6  -4    1.32    0.72
  -8  -6  -4    1.91    0.47
  -8  -6  -4    2.21    0.57
  -8  -6  -4    1.97    0.65
   8   6   4    2.34    0.62
   8   6   4    1.50    0.61
   8   6   4    1.47    0.44
   8   6   4    0.95    0.58
  -9  -6  -4    0.57    0.48
  -9  -6  -4   -0.12    0.66
  -9  -6  -4   -0.21    0.55
   9   6   4   -0.30    0.68
   9   6   4   -0.41    0.67
 -10  -6  -4   -0.62    0.81
 -10  -6  -4    0.58    0.59
 -10  -6  -4   -0.81    0.86
  10   6   4   -0.45    0.79
  10   6   4    2.53    0.90
   6  -7  -4    0.79    0.96
  -6   7   4   -2.14    0.98
  -6   7   4    0.03    0.76
   5  -7  -4   -0.20    0.73
   5  -7  -4   -0.21    0.70
  -5   7   4    0.31    0.61
  -5   7   4   -0.80    0.85
   4  -7  -4   -0.12    0.47
   4  -7  -4    0.48    0.58
  -4   7   4    0.13    0.67
  -4   7   4    0.54    0.32
  -4   7   4   -0.49    0.67
  -4   7   4    0.61    0.49
   3  -7  -4   -0.23    0.38
   3  -7  -4    0.39    0.46
   3  -7  -4   -0.39    0.40
  -3   7   4    0.07    0.25
  -3   7   4    0.56    0.26
  -3   7   4    1.37    0.56
  -3   7   4    0.77    0.59
  -3   7   4    0.16    0.40
   2  -7  -4    6.73    0.75
   2  -7  -4    7.38    0.55
   2  -7  -4    6.60    0.58
   2  -7  -4    5.58    0.69
   2  -7  -4    6.50    0.61
   2  -7  -4    7.01    0.65
  -2   7   4    6.79    0.81
  -2   7   4    7.28    0.49
  -2   7   4    7.01    0.87
  -2   7   4    7.45    0.57
  -2   7   4    6.08    0.88
   1  -7  -4    2.05    0.34
   1  -7  -4    1.95    0.43
   1  -7  -4    1.74    0.60
   1  -7  -4    1.92    0.36
   1  -7  -4    1.58    0.26
  -1   7   4    2.09    0.32
  -1   7   4    2.08    0.50
  -1   7   4    3.07    0.55
  -1   7   4    1.66    0.28
  -1   7   4    1.89    0.47
   0  -7  -4    2.83    0.27
   0  -7  -4    1.70    0.40
   0  -7  -4    2.92    0.37
   0  -7  -4    3.16    0.48
   0  -7  -4    2.73    0.28
   0  -7  -4    2.57    0.61
   0   7   4    2.11    0.47
   0   7   4    3.00    0.51
   0   7   4    3.00    0.40
   0   7   4    1.92    0.35
   0   7   4    2.89    0.52
  -1  -7  -4    7.57    0.69
  -1  -7  -4    7.36    0.86
  -1  -7  -4    7.16    0.47
  -1  -7  -4    6.37    0.44
  -1  -7  -4    7.98    0.52
   1   7   4    6.54    0.60
   1   7   4    7.69    0.66
   1   7   4    6.93    0.71
   1   7   4    6.89    0.73
   1   7   4    8.50    0.74
  -2  -7  -4    0.39    0.43
  -2  -7  -4   -0.10    0.09
  -2  -7  -4    0.26    0.25
  -2  -7  -4   -0.10    0.12
  -2  -7  -4    0.50    0.29
   2   7   4    0.19    0.31
   2   7   4    0.24    0.29
   2   7   4    0.09    0.34
   2   7   4    0.34    0.33
   2   7   4   -0.06    0.24
  -3  -7  -4   12.26    0.83
  -3  -7  -4   11.12    0.71
  -3  -7  -4   10.92    0.64
  -3  -7  -4    9.48    0.81
  -3  -7  -4   12.43    1.04
   3   7   4    9.36    0.82
   3   7   4   11.19    0.77
   3   7   4   11.24    0.89
   3   7   4   10.50    0.90
   3   7   4   11.01    0.92
  -4  -7  -4    0.18    0.14
  -4  -7  -4    0.24    0.20
  -4  -7  -4   -0.19    0.28
  -4  -7  -4    0.26    0.36
   4   7   4   -0.20    0.23
   4   7   4   -0.24    0.13
   4   7   4    0.23    0.20
   4   7   4    0.16    0.41
   4   7   4    0.37    0.41
   4   7   4    0.11    0.34
   4   7   4   -0.22    0.17
  -5  -7  -4    0.40    0.23
  -5  -7  -4   -0.60    0.49
  -5  -7  -4    0.27    0.29
  -5  -7  -4    0.46    0.45
  -5  -7  -4   -0.04    0.30
   5   7   4    0.49    0.32
   5   7   4    0.03    0.17
   5   7   4   -0.13    0.40
   5   7   4    0.71    0.48
   5   7   4    0.15    0.17
   5   7   4    0.88    0.49
  -6  -7  -4    0.08    0.36
  -6  -7  -4   -0.29    0.24
  -6  -7  -4   -0.03    0.34
   6   7   4    0.40    0.38
   6   7   4    0.01    0.42
   6   7   4   -0.70    0.45
  -7  -7  -4    0.54    0.70
  -7  -7  -4    0.04    0.37
  -7  -7  -4    0.22    0.43
  -7  -7  -4    0.12    0.34
   7   7   4   -0.45    0.45
   7   7   4   -1.29    0.49
  -8  -7  -4    2.34    0.60
  -8  -7  -4    2.40    0.66
  -8  -7  -4    2.57    0.55
   8   7   4    3.48    0.69
   8   7   4    1.70    0.67
   8   7   4    2.61    0.70
  -9  -7  -4    1.70    0.58
  -9  -7  -4    1.82    0.64
  -9  -7  -4    2.23    0.81
   9   7   4    0.65    0.77
   9   7   4    2.84    0.84
 -10  -7  -4   -0.68    0.85
 -10  -7  -4   -0.53    0.77
 -10  -7  -4    1.20    0.65
  10   7   4    0.56    0.95
  10   7   4    1.08    0.90
   5  -8  -4    0.09    0.84
  -5   8   4   -0.75    1.07
  -5   8   4    0.08    0.77
   4  -8  -4    0.70    0.74
   4  -8  -4    0.85    0.61
  -4   8   4    1.58    0.87
  -4   8   4    0.47    0.63
   3  -8  -4   -0.36    0.53
   3  -8  -4   -0.47    0.47
  -3   8   4    0.34    0.70
  -3   8   4    0.40    0.54
  -3   8   4   -1.04    0.72
   2  -8  -4    0.61    0.44
   2  -8  -4    0.27    0.35
   2  -8  -4    0.21    0.25
   2  -8  -4    0.12    0.33
   2  -8  -4    0.23    0.30
   2  -8  -4    0.26    0.46
  -2   8   4   -0.22    0.52
  -2   8   4    0.47    0.45
  -2   8   4    0.00    0.64
  -2   8   4   -0.16    0.34
   1  -8  -4   -0.05    0.31
   1  -8  -4    0.78    0.38
   1  -8  -4   -0.38    0.40
   1  -8  -4    0.40    0.23
  -1   8   4    0.02    0.33
  -1   8   4   -0.10    0.48
  -1   8   4    0.44    0.56
   0  -8  -4   -0.25    0.64
   0  -8  -4   -0.03    0.21
   0  -8  -4    0.44    0.39
   0  -8  -4    0.45    0.40
   0  -8  -4   -0.23    0.15
   0  -8  -4    0.23    0.26
   0   8   4   -0.52    0.39
   0   8   4   -0.06    0.42
   0   8   4    0.19    0.49
   0   8   4   -0.31    0.33
  -1  -8  -4    0.71    0.62
  -1  -8  -4    0.65    0.23
  -1  -8  -4    0.58    0.26
  -1  -8  -4   -0.17    0.34
  -1  -8  -4    0.90    0.17
   1   8   4    0.93    0.44
   1   8   4    0.25    0.28
   1   8   4    1.24    0.52
   1   8   4    0.57    0.38
   1   8   4    0.35    0.39
  -2  -8  -4    8.56    0.81
  -2  -8  -4    7.30    0.92
  -2  -8  -4    9.13    0.73
  -2  -8  -4    9.49    0.56
  -2  -8  -4    8.31    0.50
   2   8   4    7.76    0.86
   2   8   4    8.36    0.75
   2   8   4    8.55    0.77
   2   8   4    8.17    0.91
   2   8   4    7.16    0.85
  -3  -8  -4    3.59    0.50
  -3  -8  -4    2.90    0.34
  -3  -8  -4    3.17    0.47
  -3  -8  -4    2.75    0.31
  -3  -8  -4    3.41    0.27
  -3  -8  -4    3.23    0.71
   3   8   4    2.15    0.56
   3   8   4    2.04    0.57
   3   8   4    2.19    0.53
   3   8   4    2.99    0.53
   3   8   4    2.45    0.52
   3   8   4    3.07    0.41
  -4  -8  -4    6.61    0.88
  -4  -8  -4    5.20    0.67
  -4  -8  -4    7.33    0.74
  -4  -8  -4    5.89    0.46
  -4  -8  -4    5.81    0.51
   4   8   4    6.23    0.82
   4   8   4    5.19    0.45
   4   8   4    5.99    0.53
   4   8   4    6.32    0.54
   4   8   4    4.89    0.81
   4   8   4    5.35    0.74
  -5  -8  -4    1.15    0.33
  -5  -8  -4    1.83    0.32
  -5  -8  -4    2.29    0.70
  -5  -8  -4    2.01    0.62
   5   8   4    2.13    0.55
   5   8   4    0.95    0.36
  -6  -8  -4    0.37    0.69
  -6  -8  -4    1.69    0.44
  -6  -8  -4    1.69    0.43
   6   8   4    0.97    0.57
   6   8   4    1.58    0.54
   6   8   4    0.52    0.44
  -7  -8  -4    1.73    0.47
  -7  -8  -4    1.27    0.79
  -7  -8  -4    0.87    0.48
  -7  -8  -4    0.48    0.35
   7   8   4    1.00    0.51
   7   8   4   -0.31    0.55
   7   8   4    0.42    0.59
  -8  -8  -4   -0.80    0.45
  -8  -8  -4    0.42    0.46
  -8  -8  -4    0.18    0.54
   8   8   4    0.97    0.70
   8   8   4   -0.36    0.70
   8   8   4    0.19    0.59
  -9  -8  -4    0.68    0.65
  -9  -8  -4    1.52    0.71
  -9  -8  -4    0.37    0.56
   9   8   4    0.81    0.80
   9   8   4   -0.90    0.89
   4  -9  -4    1.24    0.76
   4  -9  -4   -0.28    1.10
  -4   9   4    0.52    1.09
  -4   9   4    1.07    0.81
   3  -9  -4   -1.28    0.55
  -3   9   4    0.90    0.89
  -3   9   4    0.20    0.67
  -3   9   4   -0.42    0.70
   2  -9  -4    0.21    0.32
   2  -9  -4    0.34    0.45
   2  -9  -4    0.01    0.40
   2  -9  -4    0.62    0.61
  -2   9   4    0.22    0.60
  -2   9   4    0.67    0.71
   1  -9  -4   -0.76    0.52
   1  -9  -4   -1.02    0.47
   1  -9  -4    0.69    0.37
   1  -9  -4    0.12    0.43
  -1   9   4    0.60    0.55
   0  -9  -4    0.83    0.51
   0  -9  -4    0.64    0.29
   0  -9  -4    0.45    0.33
   0  -9  -4    0.50    0.23
   0   9   4    1.23    0.56
   0   9   4    0.31    0.49
  -1  -9  -4    2.58    0.40
  -1  -9  -4    2.82    0.37
  -1  -9  -4    1.60    0.25
  -1  -9  -4    2.71    0.58
   1   9   4    2.10    0.69
   1   9   4    1.91    0.55
   1   9   4    2.13    0.53
   1   9   4    2.86    0.60
  -2  -9  -4    0.08    0.75
  -2  -9  -4   -0.15    0.14
  -2  -9  -4   -0.23    0.37
  -2  -9  -4   -0.04    0.20
   2   9   4    0.11    0.53
   2   9   4   -0.11    0.35
   2   9   4    0.42    0.48
  -3  -9  -4    6.53    0.49
  -3  -9  -4    5.69    0.68
  -3  -9  -4    4.67    0.92
  -3  -9  -4    6.52    0.43
   3   9   4    5.56    0.88
   3   9   4    5.53    0.67
   3   9   4    6.36    0.80
  -4  -9  -4    1.69    0.78
  -4  -9  -4    1.11    0.45
  -4  -9  -4    0.60    0.58
  -4  -9  -4    1.16    0.22
  -4  -9  -4    1.18    0.18
   4   9   4    1.61    0.24
   4   9   4    0.98    0.49
   4   9   4    2.40    0.71
   4   9   4    1.23    0.35
  -5  -9  -4    3.64    0.49
  -5  -9  -4    3.64    0.90
  -5  -9  -4    1.69    0.50
   5   9   4    2.85    0.66
   5   9   4    2.09    0.71
  -6  -9  -4    1.45    0.85
  -6  -9  -4    0.66    0.28
  -6  -9  -4    0.36    0.36
  -6  -9  -4   -0.27    0.47
   6   9   4    0.12    0.68
   6   9   4    0.72    0.60
  -7  -9  -4   -0.89    0.43
  -7  -9  -4   -0.07    0.45
  -7  -9  -4   -0.24    0.31
   7   9   4    1.08    0.70
   7   9   4   -0.10    0.68
   7   9   4    0.35    0.53
  -8  -9  -4    2.31    0.60
  -8  -9  -4    2.80    0.53
  -8  -9  -4    2.56    0.67
   8   9   4    0.54    0.87
   8   9   4    3.69    0.79
  -9  -9  -4   -1.00    0.75
  -9  -9  -4    0.35    0.58
  -9  -9  -4    0.44    0.63
   9   9   4    1.27    1.08
   9   9   4    0.97    0.83
   3 -10  -4    0.48    0.76
   3 -10  -4    1.53    1.11
  -3  10   4   -0.57    0.95
  -3  10   4   -0.22    1.13
   2 -10  -4   -0.39    0.51
   2 -10  -4   -1.16    0.51
   2 -10  -4    2.00    0.88
  -2  10   4   -0.88    0.87
  -2  10   4    0.35    0.89
  -2  10   4   -0.41    0.73
   1 -10  -4   -0.21    0.64
   1 -10  -4    0.17    0.36
   1 -10  -4    0.02    0.44
  -1  10   4   -0.19    0.76
  -1  10   4    3.26    0.88
  -1  10   4    1.23    0.74
   0 -10  -4    0.53    0.56
   0 -10  -4    1.65    0.47
   0 -10  -4    0.69    0.31
   0  10   4    1.24    0.69
   0  10   4    0.80    0.66
   0  10   4    1.22    0.81
  -1 -10  -4    0.69    0.25
  -1 -10  -4    1.05    0.37
  -1 -10  -4    1.01    0.56
  -1 -10  -4    1.46    0.47
   1  10   4    0.08    0.62
   1  10   4   -0.47    0.55
   1  10   4    1.50    0.73
  -2 -10  -4    0.16    0.51
  -2 -10  -4    1.18    0.31
  -2 -10  -4    2.14    0.54
  -2 -10  -4    0.93    0.23
   2  10   4    0.83    0.49
   2  10   4    1.61    0.72
  -3 -10  -4    0.05    0.20
  -3 -10  -4   -0.24    0.91
  -3 -10  -4   -0.40    0.46
  -3 -10  -4    0.11    0.22
  -3 -10  -4    0.27    0.60
   3  10   4    0.11    0.38
   3  10   4    0.19    0.68
   3  10   4    0.17    0.59
  -4 -10  -4    0.18    0.18
  -4 -10  -4    0.27    0.69
  -4 -10  -4    0.94    0.93
  -4 -10  -4   -0.13    0.44
  -4 -10  -4    0.11    0.25
   4  10   4   -0.02    0.63
   4  10   4   -0.15    0.41
   4  10   4    0.31    0.21
   4  10   4   -0.78    0.63
  -5 -10  -4    0.58    0.51
  -5 -10  -4    0.90    0.31
  -5 -10  -4    2.29    1.12
  -5 -10  -4    1.19    0.20
  -5 -10  -4    0.98    0.23
   5  10   4    0.19    0.67
   5  10   4    1.48    0.36
   5  10   4    1.03    0.75
  -6 -10  -4    0.18    0.51
  -6 -10  -4    0.40    0.30
  -6 -10  -4    0.86    0.41
   6  10   4    1.88    0.70
   6  10   4    1.67    0.83
  -7 -10  -4    0.07    0.57
  -7 -10  -4    1.03    0.35
  -7 -10  -4   -0.04    0.43
   7  10   4   -0.94    0.83
  -8 -10  -4    1.45    0.63
  -8 -10  -4    1.45    0.47
  -8 -10  -4    0.29    0.60
   8  10   4    1.23    0.95
   1 -11  -4    2.91    0.68
   1 -11  -4    4.19    1.02
  -1  11   4    1.16    1.03
  -1  11   4    3.42    1.00
  -1  11   4    2.90    1.06
   0 -11  -4    3.69    0.57
   0 -11  -4    3.61    0.86
   0  11   4    5.77    1.05
   0  11   4    4.91    1.00
   0  11   4    5.15    1.03
  -1 -11  -4    3.27    0.82
  -1 -11  -4    2.48    0.51
  -1 -11  -4    3.22    0.45
   1  11   4    2.54    0.77
   1  11   4    3.19    0.90
   1  11   4    2.64    0.99
  -2 -11  -4    0.41    0.29
  -2 -11  -4    2.19    0.69
  -2 -11  -4    1.31    0.41
   2  11   4    0.18    0.62
   2  11   4    0.49    0.78
   2  11   4    1.44    0.86
  -3 -11  -4    0.05    0.25
  -3 -11  -4    0.27    0.32
  -3 -11  -4   -0.37    0.61
   3  11   4    0.13    0.47
   3  11   4   -0.04    0.71
   3  11   4   -0.06    0.82
  -4 -11  -4    0.61    0.26
  -4 -11  -4    0.46    0.28
  -4 -11  -4    0.80    0.64
   4  11   4    0.27    0.57
   4  11   4   -0.99    0.87
   4  11   4    0.89    0.75
  -5 -11  -4    0.67    0.33
  -5 -11  -4    0.08    0.58
   5  11   4    1.51    0.83
   5  11   4    1.31    0.83
  -6 -11  -4    4.60    0.84
  -6 -11  -4    4.96    0.55
  -6 -11  -4    4.53    0.58
   6  11   4    4.60    1.06
   6  11   4    4.38    1.03
  -7 -11  -4    0.99    0.71
  -7 -11  -4    0.83    0.51
  -7 -11  -4    0.68    0.35
   7  11   4   -1.18    1.02
  -1 -12  -4    1.36    0.77
  -1 -12  -4    0.28    0.45
  -1 -12  -4    1.87    0.95
   1  12   4    1.29    1.08
   1  12   4   -0.41    1.09
   1  12   4    0.07    0.88
  -2 -12  -4    0.40    0.38
  -2 -12  -4    0.64    0.79
   2  12   4    0.91    1.03
   2  12   4    0.80    1.04
  -3 -12  -4    1.25    0.86
  -3 -12  -4    2.25    0.41
   3  12   4    2.85    1.01
   3  12   4   -1.06    0.97
  -4 -12  -4    0.63    0.81
   4  12   4    1.97    0.96
   4  12   4    1.99    1.04
  -5 -12  -4   -0.40    0.78
  -5 -12  -4   -0.34    0.37
   5  12   4   -0.97    0.92
   5  12   4   -1.16    0.97
  -6 -12  -4   -0.39    0.45
   5  10  -5    1.76    0.99
   5  10  -5    2.01    0.86
  -5 -10   5    0.77    0.70
  -5 -10   5    0.88    0.40
  -5 -10   5    0.65    0.81
   4  10  -5    1.56    0.83
   4  10  -5    1.19    0.95
  -4 -10   5    2.45    0.79
  -4 -10   5    2.02    0.43
  -4 -10   5    1.65    0.76
   3  10  -5    2.23    0.78
   3  10  -5    1.71    0.94
  -3 -10   5    1.26    0.74
  -3 -10   5    0.38    0.42
  -3 -10   5    2.66    0.83
   2  10  -5    1.96    0.74
   2  10  -5    2.97    1.02
  -2 -10   5    3.31    0.83
  -2 -10   5    1.84    0.52
  -2 -10   5    3.54    0.92
   1  10  -5    0.79    0.65
   1  10  -5    0.49    0.92
   1  10  -5    0.21    1.02
  -1 -10   5    1.07    0.85
  -1 -10   5    0.12    0.61
  -1 -10   5    1.15    0.57
   0  10  -5    3.18    1.07
   0  10  -5    4.22    1.19
   0 -10   5    2.57    0.72
   0 -10   5    2.76    0.74
   0 -10   5    3.80    1.02
  -1  10  -5    2.07    1.14
  -1  10  -5    0.02    0.82
  -1  10  -5   -1.20    1.15
   1 -10   5   -0.07    1.06
   1 -10   5   -0.59    0.62
   1 -10   5    0.34    0.68
   1 -10   5    0.93    0.78
   6   9  -5   -0.20    0.76
   6   9  -5   -0.06    0.83
  -6  -9   5    0.03    0.56
  -6  -9   5   -0.49    0.30
  -6  -9   5    0.45    0.73
   5   9  -5   -0.14    0.69
   5   9  -5   -1.27    0.72
  -5  -9   5    0.60    0.60
  -5  -9   5    0.82    0.60
  -5  -9   5    0.12    0.28
   4   9  -5    1.26    0.74
   4   9  -5    0.00    0.66
  -4  -9   5   -0.42    0.54
  -4  -9   5   -1.34    0.55
  -4  -9   5    0.10    0.28
   3   9  -5    0.91    0.69
   3   9  -5   -0.61    0.69
   3   9  -5    0.45    0.60
  -3  -9   5    1.69    0.36
  -3  -9   5    0.74    0.54
  -3  -9   5    2.20    0.67
   2   9  -5   -0.04    0.69
   2   9  -5    0.91    0.54
   2   9  -5   -0.04    0.76
  -2  -9   5    0.76    0.55
  -2  -9   5    0.61    0.65
  -2  -9   5    0.65    0.35
   1   9  -5    1.14    0.76
   1   9  -5   -0.32    0.49
   1   9  -5    0.13    0.70
  -1  -9   5    1.33    1.01
  -1  -9   5    0.80    0.48
  -1  -9   5    0.46    0.68
  -1  -9   5    0.04    0.42
   0   9  -5   -0.96    0.72
   0   9  -5    1.03    0.80
   0  -9   5    0.35    0.75
   0  -9   5    0.99    0.50
   0  -9   5   -0.05    1.33
   0  -9   5   -0.07    0.44
  -1   9  -5    3.55    0.92
  -1   9  -5    5.69    1.18
  -1   9  -5    2.79    0.73
   1  -9   5    3.88    0.74
   1  -9   5    3.29    0.64
   1  -9   5    4.42    0.98
  -2   9  -5    0.44    0.78
  -2   9  -5   -1.74    0.96
  -2   9  -5   -0.50    1.00
   2  -9   5   -0.33    0.63
   2  -9   5    0.43    0.60
   2  -9   5    0.44    0.96
  -3   9  -5   -0.90    1.14
  -3   9  -5    0.97    0.91
   3  -9   5   -0.56    0.69
   3  -9   5    0.69    0.82
   3  -9   5    1.91    1.20
   7   8  -5   -0.22    0.84
  -7  -8   5    0.35    0.32
  -7  -8   5    0.94    0.75
   6   8  -5    0.74    0.72
   6   8  -5   -0.92    0.63
  -6  -8   5    0.32    0.26
  -6  -8   5    0.00    0.61
  -6  -8   5   -0.34    0.41
   5   8  -5    4.86    0.84
   5   8  -5    2.83    0.72
  -5  -8   5    2.34    0.62
  -5  -8   5    1.55    0.53
  -5  -8   5    2.72    0.35
   4   8  -5    2.77    0.63
   4   8  -5    3.86    0.79
   4   8  -5    4.08    0.58
  -4  -8   5    3.45    0.57
  -4  -8   5    2.84    0.37
  -4  -8   5    2.32    0.88
  -4  -8   5    2.85    0.63
  -4  -8   5    2.89    0.67
  -4  -8   5    2.79    0.59
   3   8  -5   12.36    1.27
   3   8  -5   12.04    1.10
   3   8  -5   10.95    1.08
  -3  -8   5    9.90    1.03
  -3  -8   5   10.63    0.75
  -3  -8   5   10.41    1.13
  -3  -8   5   11.99    1.09
  -3  -8   5   11.38    1.21
   2   8  -5    0.67    0.61
   2   8  -5    0.28    0.50
   2   8  -5    0.42    0.45
  -2  -8   5    0.23    0.27
  -2  -8   5    0.54    0.45
  -2  -8   5    0.10    0.61
  -2  -8   5    0.12    0.51
  -2  -8   5    0.11    0.64
   1   8  -5    1.27    0.68
   1   8  -5    0.84    0.58
  -1  -8   5    0.94    0.34
  -1  -8   5    0.62    0.55
  -1  -8   5    0.54    0.77
  -1  -8   5    1.72    0.75
  -1  -8   5    0.87    0.45
   0   8  -5    0.95    0.62
   0   8  -5    0.21    0.20
   0   8  -5    0.04    0.15
   0   8  -5   -0.16    0.64
   0  -8   5   -0.17    0.81
   0  -8   5    0.43    0.61
   0  -8   5    0.55    0.43
   0  -8   5    0.33    0.36
   0  -8   5   -0.41    0.87
  -1   8  -5    3.59    0.84
  -1   8  -5    3.94    0.67
  -1   8  -5    6.20    0.76
  -1   8  -5    3.23    0.84
   1  -8   5    4.41    0.63
   1  -8   5    4.13    0.82
   1  -8   5    4.07    0.68
   1  -8   5    3.50    0.51
  -2   8  -5    0.39    0.73
  -2   8  -5    0.77    0.58
  -2   8  -5    0.42    0.61
   2  -8   5    0.92    0.48
   2  -8   5    0.27    0.49
   2  -8   5    1.03    0.76
  -3   8  -5   -0.93    0.75
  -3   8  -5   -0.98    0.84
  -3   8  -5   -1.14    0.66
   3  -8   5    0.47    0.90
   3  -8   5    1.18    0.60
   3  -8   5    0.37    0.60
  -4   8  -5   -0.99    1.02
  -4   8  -5    0.43    1.04
  -4   8  -5    1.09    0.82
   4  -8   5    0.19    0.66
   4  -8   5    0.21    1.20
   4  -8   5    0.23    0.78
  -8  -7   5   -0.23    0.37
  -8  -7   5   -0.06    0.75
   7   7  -5    1.44    0.76
  -7  -7   5    0.88    0.68
  -7  -7   5    1.93    0.34
   6   7  -5    0.99    0.63
  -6  -7   5    0.44    0.29
  -6  -7   5   -0.63    0.44
  -6  -7   5   -0.77    0.52
  -6  -7   5    0.01    0.26
   5   7  -5    5.02    0.59
   5   7  -5    5.19    0.82
   5   7  -5    7.04    0.91
   5   7  -5    5.29    0.56
  -5  -7   5    5.60    0.66
  -5  -7   5    5.68    0.63
  -5  -7   5    4.67    0.90
  -5  -7   5    5.71    0.69
  -5  -7   5    5.87    0.80
  -5  -7   5    5.18    0.46
   4   7  -5    0.63    0.52
   4   7  -5    0.92    0.46
  -4  -7   5    1.54    0.48
  -4  -7   5    1.67    0.46
  -4  -7   5    1.84    0.49
  -4  -7   5    1.54    0.45
  -4  -7   5    0.45    0.62
  -4  -7   5    1.08    0.23
   3   7  -5    1.71    0.52
   3   7  -5    1.73    0.45
  -3  -7   5    1.44    0.46
  -3  -7   5    0.99    0.41
  -3  -7   5    1.05    0.41
  -3  -7   5    0.58    0.20
  -3  -7   5    0.57    0.42
   2   7  -5    0.26    0.39
   2   7  -5    0.57    0.37
   2   7  -5    0.87    0.44
  -2  -7   5    0.04    0.45
  -2  -7   5    0.28    0.35
  -2  -7   5    0.29    0.53
  -2  -7   5    0.86    0.22
   1   7  -5    1.25    0.42
   1   7  -5    1.59    0.46
  -1  -7   5    1.28    0.31
  -1  -7   5    1.50    0.52
  -1  -7   5    0.83    0.75
  -1  -7   5    0.60    0.55
   0   7  -5    0.13    0.15
   0   7  -5    0.18    0.10
   0   7  -5    0.12    0.10
   0   7  -5    0.72    0.49
   0   7  -5    0.09    0.53
   0  -7   5    1.38    0.50
   0  -7   5    0.27    0.69
   0  -7   5    0.10    0.69
   0  -7   5   -0.86    0.52
   0  -7   5    0.18    0.30
  -1   7  -5    1.15    0.15
  -1   7  -5    0.57    0.61
  -1   7  -5    1.25    0.35
  -1   7  -5    0.44    0.43
  -1   7  -5    1.44    0.56
   1  -7   5    1.87    0.72
   1  -7   5    1.76    0.60
   1  -7   5    0.90    0.31
   1  -7   5    1.64    0.44
   1  -7   5    1.32    0.68
  -2   7  -5    0.51    0.62
  -2   7  -5    0.12    0.45
  -2   7  -5    0.43    0.54
   2  -7   5    0.34    0.34
   2  -7   5    0.44    0.62
  -3   7  -5    0.15    0.61
  -3   7  -5    1.40    0.74
  -3   7  -5    1.86    0.65
  -3   7  -5    1.06    0.52
   3  -7   5    1.09    0.52
   3  -7   5    1.95    0.79
   3  -7   5    0.84    0.51
  -4   7  -5    0.96    0.84
  -4   7  -5    0.10    0.71
  -4   7  -5    0.66    0.83
   4  -7   5    0.27    0.62
   4  -7   5    0.37    0.52
   4  -7   5   -0.58    0.90
  -5   7  -5    2.60    1.00
  -5   7  -5    4.26    1.09
  -5   7  -5    5.10    1.26
   5  -7   5    2.79    1.22
   5  -7   5    3.93    0.97
   5  -7   5    4.26    0.85
  -8  -6   5   -0.63    0.36
  -8  -6   5    0.22    0.68
   7   6  -5    1.63    0.74
  -7  -6   5    2.70    0.42
  -7  -6   5    2.18    0.62
  -7  -6   5    2.03    0.61
   6   6  -5    0.50    0.53
  -6  -6   5    0.88    0.48
  -6  -6   5   -0.28    0.43
  -6  -6   5   -0.19    0.20
  -6  -6   5    0.13    0.18
  -6  -6   5   -0.14    0.26
  -6  -6   5   -0.37    0.44
   5   6  -5    0.34    0.16
   5   6  -5   -0.04    0.18
  -5  -6   5   -0.21    0.35
  -5  -6   5    0.06    0.16
  -5  -6   5    0.53    0.40
  -5  -6   5    0.73    0.27
  -5  -6   5    0.35    0.61
   4   6  -5    4.38    0.54
   4   6  -5    4.97    0.52
   4   6  -5    5.74    0.71
   4   6  -5    5.91    0.80
  -4  -6   5    5.42    0.58
  -4  -6   5    5.45    0.71
  -4  -6   5    4.71    0.69
  -4  -6   5    6.08    0.62
  -4  -6   5    6.78    0.89
  -4  -6   5    5.80    0.41
   3   6  -5    0.59    0.38
   3   6  -5    1.09    0.31
   3   6  -5    0.25    0.42
   3   6  -5    0.75    0.24
   3   6  -5    0.78    0.31
   3   6  -5    0.61    0.34
  -3  -6   5    0.50    0.15
  -3  -6   5    0.52    0.33
  -3  -6   5    0.90    0.42
  -3  -6   5    0.77    0.33
  -3  -6   5    1.01    0.37
  -3  -6   5    0.13    0.32
   2   6  -5    7.35    0.73
   2   6  -5   11.68    1.03
   2   6  -5    7.89    0.72
   2   6  -5    8.11    0.50
   2   6  -5    7.59    0.76
   2   6  -5    8.37    0.70
  -2  -6   5    7.87    0.98
  -2  -6   5    9.21    0.80
  -2  -6   5    9.10    0.77
  -2  -6   5    8.44    0.75
  -2  -6   5    7.77    0.84
  -2  -6   5    6.62    0.52
   1   6  -5    0.99    0.17
   1   6  -5    1.46    0.42
   1   6  -5    0.76    0.25
   1   6  -5    1.28    0.39
   1   6  -5    1.01    0.34
   1   6  -5    1.11    0.48
  -1  -6   5    1.83    0.42
  -1  -6   5    0.44    0.31
  -1  -6   5    1.51    0.45
  -1  -6   5    1.04    0.22
  -1  -6   5    1.15    0.54
  -1  -6   5    1.02    0.47
   0   6  -5    0.51    0.44
   0   6  -5    0.94    0.25
   0   6  -5    0.90    0.12
   0   6  -5    0.92    0.42
   0   6  -5    0.95    0.12
   0  -6   5    0.99    0.54
   0  -6   5    1.20    0.28
   0  -6   5   -0.30    0.43
   0  -6   5    1.88    0.56
   0  -6   5    0.95    0.34
   0  -6   5    0.20    0.37
  -1   6  -5    0.03    0.25
  -1   6  -5   -0.26    0.42
  -1   6  -5   -0.06    0.33
  -1   6  -5    0.07    0.20
  -1   6  -5   -0.21    0.46
  -1   6  -5    0.38    0.52
   1  -6   5    0.28    0.51
   1  -6   5   -0.77    0.57
   1  -6   5    0.10    0.20
   1  -6   5    0.31    0.51
   1  -6   5    0.49    0.46
   1  -6   5    0.05    0.30
   1  -6   5    0.06    0.28
  -2   6  -5    1.24    0.42
  -2   6  -5    2.75    0.61
  -2   6  -5    1.26    0.55
  -2   6  -5    1.35    0.47
   2  -6   5    1.59    0.34
   2  -6   5    1.69    0.51
   2  -6   5    1.87    0.89
   2  -6   5    1.13    0.52
   2  -6   5    1.92    0.42
  -3   6  -5    0.34    0.56
  -3   6  -5    0.51    0.48
  -3   6  -5    0.06    0.58
  -3   6  -5    0.05    0.49
   3  -6   5    0.14    0.38
   3  -6   5   -0.50    0.63
   3  -6   5    0.56    0.38
  -4   6  -5   -0.62    0.60
  -4   6  -5    0.61    0.61
  -4   6  -5   -0.27    0.66
  -4   6  -5    0.25    0.57
  -4   6  -5    0.07    0.66
   4  -6   5    0.31    0.44
   4  -6   5    0.22    0.50
   4  -6   5   -0.55    0.73
  -5   6  -5    0.10    0.79
  -5   6  -5    1.37    0.79
  -5   6  -5    1.52    0.88
   5  -6   5    1.31    0.69
   5  -6   5    0.38    0.92
   5  -6   5    0.15    0.56
  -6   6  -5    1.68    1.16
  -6   6  -5    2.35    0.99
  -6   6  -5    0.80    0.96
   6  -6   5    0.01    0.86
   6  -6   5   -0.92    1.21
  -8  -5   5    0.64    0.73
  -8  -5   5    0.26    0.58
  -8  -5   5    1.62    0.62
  -7  -5   5    0.00    0.46
  -7  -5   5    0.14    0.52
  -7  -5   5   -0.32    0.27
  -7  -5   5    0.06    0.42
   6   5  -5    0.64    0.49
  -6  -5   5    0.33    0.21
  -6  -5   5    0.37    0.41
  -6  -5   5    0.85    0.29
  -6  -5   5    0.52    0.45
  -6  -5   5    1.07    0.67
  -6  -5   5    0.46    0.29
   5   5  -5    0.55    0.46
  -5  -5   5    1.11    0.21
  -5  -5   5    1.19    0.20
  -5  -5   5    1.79    0.57
  -5  -5   5    1.03    0.40
  -5  -5   5    0.19    0.68
  -5  -5   5    1.30    0.23
  -5  -5   5    0.84    0.20
   4   5  -5    2.84    0.33
   4   5  -5    2.07    0.51
   4   5  -5    2.25    0.26
   4   5  -5    2.15    0.36
   4   5  -5    2.32    0.46
  -4  -5   5    1.57    0.30
  -4  -5   5    1.19    0.47
  -4  -5   5    1.89    0.43
  -4  -5   5    2.39    0.43
  -4  -5   5    2.45    0.62
  -4  -5   5    2.56    0.35
  -4  -5   5    2.25    0.46
  -4  -5   5    2.14    0.25
   3   5  -5    0.79    0.25
   3   5  -5    1.45    0.34
   3   5  -5    1.18    0.25
   3   5  -5    0.69    0.36
   3   5  -5    0.28    0.27
  -3  -5   5    1.09    0.37
  -3  -5   5    1.61    0.34
  -3  -5   5    1.08    0.34
  -3  -5   5    1.54    0.41
  -3  -5   5    1.37    0.28
  -3  -5   5    0.84    0.15
  -3  -5   5    1.30    0.36
   2   5  -5    1.18    0.39
   2   5  -5    1.16    0.21
   2   5  -5    1.09    0.26
   2   5  -5    0.70    0.29
   2   5  -5    1.22    0.31
  -2  -5   5    1.50    0.39
  -2  -5   5    1.08    0.34
  -2  -5   5    1.42    0.35
  -2  -5   5    0.63    0.29
  -2  -5   5    1.13    0.18
  -2  -5   5    0.99    0.53
   1   5  -5    8.52    0.75
   1   5  -5    7.69    0.86
   1   5  -5    9.38    0.60
   1   5  -5    9.42    0.71
   1   5  -5    8.46    0.48
  -1  -5   5    9.19    0.58
  -1  -5   5    7.85    0.70
  -1  -5   5    8.06    0.72
  -1  -5   5    8.10    0.82
  -1  -5   5    9.62    0.79
  -1  -5   5    9.14    0.91
   0   5  -5    0.14    0.08
   0   5  -5    0.15    0.15
   0   5  -5   -0.11    0.31
   0   5  -5    0.32    0.36
   0   5  -5    0.59    0.40
   0   5  -5   -0.46    0.31
   0  -5   5    0.02    0.33
   0  -5   5    0.10    0.24
   0  -5   5    0.01    0.36
   0  -5   5    0.09    0.20
   0  -5   5   -0.18    0.36
  -1   5  -5    0.06    0.36
  -1   5  -5    0.05    0.29
  -1   5  -5    0.10    0.37
  -1   5  -5    0.79    0.42
  -1   5  -5    0.00    0.14
  -1   5  -5   -0.25    0.20
  -1   5  -5    0.33    0.35
   1  -5   5    0.20    0.39
   1  -5   5   -0.04    0.23
   1  -5   5   -0.80    0.46
   1  -5   5   -0.59    0.36
   1  -5   5    0.10    0.22
   1  -5   5   -0.10    0.35
   1  -5   5   -0.29    0.15
  -2   5  -5    2.75    0.53
  -2   5  -5    2.59    0.54
  -2   5  -5    2.23    0.42
  -2   5  -5    3.25    0.59
  -2   5  -5    2.27    0.31
  -2   5  -5    2.76    0.53
   2  -5   5    2.92    0.45
   2  -5   5    3.02    0.60
   2  -5   5    2.90    0.49
   2  -5   5    3.29    0.57
   2  -5   5    2.93    0.37
   2  -5   5    2.23    0.67
  -3   5  -5    0.17    0.48
  -3   5  -5    0.59    0.41
  -3   5  -5    1.15    0.41
  -3   5  -5   -0.06    0.42
  -3   5  -5    0.51    0.56
   3  -5   5    0.70    0.32
   3  -5   5    0.45    0.31
   3  -5   5    0.35    0.52
   3  -5   5    0.55    0.35
   3  -5   5    0.52    0.57
  -4   5  -5    3.07    0.66
  -4   5  -5    2.89    0.58
  -4   5  -5    3.39    0.68
   4  -5   5    2.56    0.52
   4  -5   5    2.38    0.74
   4  -5   5    2.37    0.51
  -5   5  -5   -0.02    0.57
  -5   5  -5   -0.82    0.62
  -5   5  -5   -0.29    0.60
   5  -5   5   -0.54    0.50
   5  -5   5    0.37    0.50
  -6   5  -5    0.91    0.76
  -6   5  -5    0.85    1.01
  -6   5  -5    0.78    0.73
   6  -5   5    0.26    0.71
   6  -5   5    1.21    1.02
   6  -5   5    1.58    0.67
  -7   5  -5    2.45    1.06
  -7   5  -5    0.08    0.97
  -7   5  -5    0.71    1.19
   7  -5   5    1.23    1.27
   7  -5   5   -0.61    0.94
   7  -5   5    3.36    1.03
  -9  -4   5    5.06    1.03
  -9  -4   5    2.80    0.63
  -8  -4   5    1.07    0.68
  -8  -4   5    1.26    0.43
  -8  -4   5    0.86    0.78
  -8  -4   5    1.98    0.57
  -7  -4   5    0.19    0.55
  -7  -4   5   -0.33    0.48
  -7  -4   5    0.47    0.43
  -7  -4   5    0.09    0.28
   6   4  -5    0.22    0.51
  -6  -4   5    0.26    0.45
  -6  -4   5    0.36    0.29
  -6  -4   5    0.46    0.59
  -6  -4   5   -0.26    0.34
  -6  -4   5    0.46    0.36
  -6  -4   5    0.18    0.21
   5   4  -5    1.02    0.43
  -5  -4   5    0.35    0.30
  -5  -4   5    0.86    0.18
  -5  -4   5   -0.02    0.47
  -5  -4   5    0.85    0.60
  -5  -4   5    0.50    0.46
  -5  -4   5    0.60    0.21
  -5  -4   5    0.34    0.26
   4   4  -5    0.91    0.30
   4   4  -5    0.76    0.14
   4   4  -5    0.79    0.13
   4   4  -5    0.93    0.38
  -4  -4   5    1.06    0.44
  -4  -4   5    1.27    0.25
  -4  -4   5    0.44    0.28
  -4  -4   5    0.51    0.17
  -4  -4   5    0.91    0.15
  -4  -4   5    0.76    0.19
  -4  -4   5    0.62    0.49
  -4  -4   5    0.38    0.39
   3   4  -5    0.37    0.31
   3   4  -5    0.73    0.19
   3   4  -5    0.94    0.24
   3   4  -5    0.62    0.18
   3   4  -5    0.57    0.25
  -3  -4   5    0.57    0.26
  -3  -4   5    1.15    0.32
  -3  -4   5    0.46    0.11
  -3  -4   5    0.43    0.20
  -3  -4   5    1.11    0.43
  -3  -4   5    0.66    0.24
  -3  -4   5    0.77    0.28
  -3  -4   5    1.11    0.48
  -3  -4   5    0.77    0.27
   2   4  -5   12.41    0.81
   2   4  -5   12.36    0.80
   2   4  -5   12.50    0.78
   2   4  -5   12.97    0.71
   2   4  -5   13.42    1.02
  -2  -4   5   13.51    0.87
  -2  -4   5   13.31    0.81
  -2  -4   5   13.33    1.02
  -2  -4   5   13.42    0.85
  -2  -4   5   12.64    0.91
  -2  -4   5   14.35    0.94
  -2  -4   5   15.22    0.72
   1   4  -5    0.49    0.12
   1   4  -5    0.63    0.16
   1   4  -5   -0.09    0.30
   1   4  -5    0.78    0.28
   1   4  -5    0.30    0.27
   1   4  -5    0.42    0.24
  -1  -4   5    0.48    0.14
  -1  -4   5    0.45    0.26
  -1  -4   5    0.40    0.21
  -1  -4   5    0.90    0.37
  -1  -4   5    0.03    0.23
  -1  -4   5    0.69    0.29
   0   4  -5    0.22    0.08
   0   4  -5    0.08    0.28
   0   4  -5    0.29    0.11
   0   4  -5    0.26    0.26
   0   4  -5    0.16    0.28
   0   4  -5    0.47    0.32
   0  -4   5    0.18    0.26
   0  -4   5    0.00    0.15
   0  -4   5    0.61    0.30
   0  -4   5    0.40    0.30
   0  -4   5    0.31    0.19
   0  -4   5    0.10    0.32
  -1   4  -5    0.18    0.29
  -1   4  -5    0.37    0.31
  -1   4  -5    0.79    0.38
  -1   4  -5    0.84    0.20
  -1   4  -5    0.81    0.14
  -1   4  -5    1.15    0.34
  -1   4  -5    0.58    0.28
   1  -4   5    0.46    0.24
   1  -4   5    0.79    0.34
   1  -4   5    0.56    0.34
   1  -4   5    1.58    0.40
   1  -4   5    0.65    0.36
   1  -4   5    0.67    0.23
   1  -4   5    0.79    0.16
  -2   4  -5   70.83    3.34
  -2   4  -5   72.85    3.42
  -2   4  -5   69.45    3.71
  -2   4  -5   77.68    3.48
  -2   4  -5   69.35    3.47
  -2   4  -5   69.73    3.59
   2  -4   5   70.03    3.59
   2  -4   5   70.28    3.50
   2  -4   5   71.01    3.41
   2  -4   5   70.43    3.79
   2  -4   5   69.81    3.23
  -3   4  -5    0.48    0.44
  -3   4  -5    0.75    0.42
  -3   4  -5    0.65    0.34
  -3   4  -5    0.50    0.35
  -3   4  -5    0.43    0.18
  -3   4  -5    0.44    0.33
   3  -4   5    0.47    0.27
   3  -4   5    0.79    0.27
   3  -4   5    1.02    0.44
   3  -4   5    0.92    0.64
   3  -4   5    0.63    0.47
   3  -4   5    0.85    0.29
  -4   4  -5    1.94    0.53
  -4   4  -5    1.88    0.57
  -4   4  -5    0.95    0.49
  -4   4  -5    1.95    0.52
   4  -4   5    2.03    0.45
   4  -4   5    1.90    0.46
   4  -4   5    2.32    0.30
   4  -4   5    3.13    0.65
   4  -4   5    1.93    0.67
  -5   4  -5   -0.69    0.69
  -5   4  -5    0.15    0.60
  -5   4  -5   -0.03    0.43
  -5   4  -5    0.22    0.46
  -5   4  -5   -0.35    0.52
   5  -4   5    1.39    0.45
   5  -4   5    0.07    0.64
   5  -4   5    0.50    0.44
  -6   4  -5    0.26    0.63
  -6   4  -5    0.96    0.74
  -6   4  -5   -0.68    0.65
  -6   4  -5   -0.01    0.53
   6  -4   5   -0.43    0.58
   6  -4   5    1.66    0.80
   6  -4   5    0.19    0.53
  -7   4  -5   -0.99    0.93
  -7   4  -5   -0.05    0.81
  -7   4  -5   -1.24    0.77
   7  -4   5    0.28    0.67
   7  -4   5   -0.93    1.02
   7  -4   5   -0.93    0.77
   7  -4   5    0.45    0.73
  -9  -3   5    3.77    0.72
  -9  -3   5    5.22    1.10
  -9  -3   5    6.86    1.15
  -8  -3   5    1.24    0.45
  -8  -3   5    1.35    0.78
  -8  -3   5    0.87    0.83
  -8  -3   5    1.29    0.47
  -7  -3   5    0.12    0.37
  -7  -3   5    0.16    0.53
  -7  -3   5    0.58    0.33
  -7  -3   5    1.52    0.60
  -6  -3   5    0.52    0.42
  -6  -3   5    0.94    0.66
  -6  -3   5    1.11    0.46
  -6  -3   5    0.85    0.33
  -6  -3   5    0.65    0.25
  -6  -3   5    0.87    0.33
  -6  -3   5    0.90    0.54
   5   3  -5    6.37    0.69
   5   3  -5    5.47    0.78
  -5  -3   5    7.03    0.91
  -5  -3   5    5.44    0.61
  -5  -3   5    5.45    0.84
  -5  -3   5    6.28    0.46
  -5  -3   5    6.47    0.76
  -5  -3   5    6.34    0.50
  -5  -3   5    6.67    0.65
  -5  -3   5    5.56    0.71
   4   3  -5    1.37    0.31
   4   3  -5    1.62    0.42
  -4  -3   5    1.78    0.35
  -4  -3   5    1.18    0.49
  -4  -3   5    2.18    0.23
  -4  -3   5    1.84    0.22
  -4  -3   5    1.60    0.40
  -4  -3   5    1.87    0.49
  -4  -3   5    2.64    0.27
  -4  -3   5    1.82    0.29
  -4  -3   5    1.73    0.21
  -4  -3   5    1.37    0.37
   3   3  -5    0.48    0.16
   3   3  -5    0.56    0.15
   3   3  -5    0.84    0.31
   3   3  -5    0.12    0.19
   3   3  -5    0.20    0.19
  -3  -3   5    0.59    0.24
  -3  -3   5    0.46    0.20
  -3  -3   5    1.17    0.41
  -3  -3   5    0.57    0.24
  -3  -3   5    0.64    0.26
  -3  -3   5    0.66    0.36
  -3  -3   5    0.29    0.11
  -3  -3   5    0.64    0.10
  -3  -3   5    0.37    0.14
   2   3  -5    2.98    0.45
   2   3  -5    2.91    0.30
   2   3  -5    2.72    0.33
   2   3  -5    3.29    0.49
   2   3  -5    3.15    0.35
   2   3  -5    3.17    0.33
  -2  -3   5    2.73    0.39
  -2  -3   5    3.03    0.36
  -2  -3   5    3.19    0.40
  -2  -3   5    3.05    0.23
  -2  -3   5    3.29    0.41
  -2  -3   5    4.04    0.49
  -2  -3   5    3.30    0.35
  -2  -3   5    3.82    0.53
   1   3  -5    3.55    0.42
   1   3  -5    3.64    0.51
   1   3  -5    3.65    0.28
   1   3  -5    3.27    0.45
   1   3  -5    3.61    0.40
   1   3  -5    3.36    0.26
  -1  -3   5    3.70    0.45
  -1  -3   5    3.29    0.47
  -1  -3   5    3.65    0.39
  -1  -3   5    3.16    0.31
  -1  -3   5    3.16    0.38
  -1  -3   5    3.95    0.46
  -1  -3   5    3.41    0.28
   0   3  -5   -0.09    0.21
   0   3  -5   -0.05    0.21
   0   3  -5    0.13    0.20
   0   3  -5   -0.04    0.04
   0   3  -5    0.07    0.23
   0  -3   5   -0.08    0.24
   0  -3   5   -0.29    0.24
   0  -3   5   -0.18    0.22
   0  -3   5   -0.19    0.13
   0  -3   5   -0.09    0.22
   0  -3   5    0.16    0.17
  -1   3  -5    7.62    0.48
  -1   3  -5    8.79    0.67
  -1   3  -5    9.25    0.56
  -1   3  -5    8.58    0.70
  -1   3  -5    9.23    0.76
  -1   3  -5    8.12    0.67
   1  -3   5    8.27    0.75
   1  -3   5    9.03    0.66
   1  -3   5    9.72    0.80
   1  -3   5    7.73    0.60
   1  -3   5    9.35    0.70
   1  -3   5    8.83    0.64
  -2   3  -5    0.53    0.25
  -2   3  -5    0.36    0.29
  -2   3  -5    0.50    0.21
  -2   3  -5    0.00    0.31
  -2   3  -5    0.88    0.30
  -2   3  -5    0.52    0.13
  -2   3  -5    0.14    0.28
   2  -3   5    0.35    0.21
   2  -3   5    0.44    0.33
   2  -3   5    0.23    0.18
   2  -3   5    0.49    0.31
   2  -3   5    0.50    0.23
   2  -3   5    0.55    0.39
  -3   3  -5    5.19    0.55
  -3   3  -5    5.31    0.61
  -3   3  -5    4.27    0.59
  -3   3  -5    5.38    0.64
  -3   3  -5    4.98    0.43
  -3   3  -5    5.68    0.71
   3  -3   5    4.02    0.60
   3  -3   5    5.74    0.50
   3  -3   5    4.68    0.66
   3  -3   5    4.74    0.71
   3  -3   5    4.10    0.53
   3  -3   5    5.32    0.51
  -4   3  -5   -0.17    0.44
  -4   3  -5    0.25    0.37
  -4   3  -5    1.11    0.42
  -4   3  -5    0.56    0.33
  -4   3  -5    0.33    0.24
  -4   3  -5   -0.10    0.36
   4  -3   5    0.25    0.42
   4  -3   5    0.52    0.31
   4  -3   5    0.84    0.35
   4  -3   5    0.74    0.49
   4  -3   5    0.73    0.21
  -5   3  -5    1.47    0.41
  -5   3  -5    1.72    0.65
  -5   3  -5    0.94    0.50
  -5   3  -5    1.83    0.54
   5  -3   5    2.65    0.49
   5  -3   5    1.84    0.44
   5  -3   5    2.92    0.64
  -6   3  -5    0.50    0.74
  -6   3  -5    0.93    0.70
  -6   3  -5    1.42    0.62
  -6   3  -5    0.97    0.45
  -6   3  -5    1.16    0.58
   6  -3   5    2.40    0.60
   6  -3   5    2.30    0.56
   6  -3   5    1.30    0.72
  -7   3  -5    2.98    1.06
  -7   3  -5    2.56    0.86
  -7   3  -5    1.34    0.58
  -7   3  -5   -0.06    0.65
  -7   3  -5    0.98    0.70
   7  -3   5    1.01    0.61
   7  -3   5    1.60    0.96
   7  -3   5    0.27    0.64
   7  -3   5    2.27    0.77
  -8   3  -5   -0.35    0.83
  -8   3  -5    0.09    0.85
  -8   3  -5    0.59    1.10
   8  -3   5    0.02    0.84
   8  -3   5    0.06    0.89
   8  -3   5    1.58    1.27
  -9  -2   5    1.72    1.02
  -9  -2   5    0.14    1.01
  -8  -2   5    1.16    0.80
  -8  -2   5    0.34    0.48
  -8  -2   5    0.61    0.75
  -8  -2   5    1.46    0.40
  -7  -2   5    0.59    0.61
  -7  -2   5    0.00    0.34
  -7  -2   5    0.44    0.31
  -7  -2   5    0.34    0.53
  -6  -2   5    6.53    0.90
  -6  -2   5    5.77    0.78
  -6  -2   5    7.40    0.63
  -6  -2   5    7.79    0.86
  -6  -2   5    8.69    0.70
  -6  -2   5    9.07    1.10
  -6  -2   5    6.18    0.59
   5   2  -5   16.07    1.06
  -5  -2   5   16.69    0.87
  -5  -2   5   14.21    0.85
  -5  -2   5   16.02    0.96
  -5  -2   5   12.88    1.19
  -5  -2   5   15.68    1.16
  -5  -2   5   15.20    1.12
  -5  -2   5   15.30    1.06
  -5  -2   5   15.45    1.04
  -5  -2   5   14.24    1.19
   4   2  -5   16.14    1.07
   4   2  -5   14.81    0.95
  -4  -2   5   14.27    0.78
  -4  -2   5   14.44    0.99
  -4  -2   5   16.49    1.09
  -4  -2   5   12.21    0.90
  -4  -2   5   15.78    1.13
  -4  -2   5   15.00    0.70
  -4  -2   5   16.58    0.96
  -4  -2   5   15.59    0.70
  -4  -2   5   16.11    0.79
  -4  -2   5   14.58    0.94
   3   2  -5   18.27    1.16
   3   2  -5   17.90    0.87
   3   2  -5   17.32    0.97
  -3  -2   5   18.53    1.06
  -3  -2   5   17.70    0.89
  -3  -2   5   16.62    1.20
  -3  -2   5   17.89    0.94
  -3  -2   5   19.73    0.88
  -3  -2   5   19.04    1.13
  -3  -2   5   16.77    0.97
  -3  -2   5   18.09    1.02
  -3  -2   5   17.57    0.86
   2   2  -5    0.30    0.22
   2   2  -5    0.50    0.17
   2   2  -5    0.63    0.27
   2   2  -5    0.24    0.14
   2   2  -5    0.54    0.14
  -2  -2   5    0.68    0.16
  -2  -2   5    0.41    0.19
  -2  -2   5    0.32    0.16
  -2  -2   5    0.42    0.25
  -2  -2   5    0.28    0.18
  -2  -2   5    0.42    0.07
  -2  -2   5    0.23    0.26
  -2  -2   5    0.37    0.08
   1   2  -5   15.99    0.76
   1   2  -5   13.70    0.95
   1   2  -5   15.60    0.72
   1   2  -5   14.77    0.85
   1   2  -5   14.95    0.84
   1   2  -5   14.64    0.92
  -1  -2   5   13.62    0.74
  -1  -2   5   14.79    0.90
  -1  -2   5   14.11    0.71
  -1  -2   5   14.76    0.84
  -1  -2   5   14.26    0.99
  -1  -2   5   15.44    0.76
  -1  -2   5   13.84    0.88
  -1  -2   5   15.76    0.92
   0   2  -5    0.47    0.26
   0   2  -5    1.06    0.26
   0   2  -5    0.69    0.23
   0   2  -5    0.84    0.08
   0   2  -5    0.69    0.24
   0   2  -5    0.78    0.11
   0  -2   5    0.44    0.19
   0  -2   5    0.63    0.16
   0  -2   5    0.63    0.25
   0  -2   5    0.82    0.21
   0  -2   5    0.74    0.15
   0  -2   5    0.46    0.25
   0  -2   5    0.75    0.23
  -1   2  -5    2.58    0.20
  -1   2  -5    2.33    0.33
  -1   2  -5    2.04    0.37
  -1   2  -5    1.75    0.33
  -1   2  -5    2.74    0.26
  -1   2  -5    1.62    0.33
   1  -2   5    2.00    0.33
   1  -2   5    2.22    0.31
   1  -2   5    1.70    0.36
   1  -2   5    2.22    0.38
   1  -2   5    2.37    0.32
   1  -2   5    2.22    0.18
   1  -2   5    2.17    0.36
  -2   2  -5    4.12    0.53
  -2   2  -5    3.58    0.43
  -2   2  -5    4.05    0.40
  -2   2  -5    4.32    0.46
  -2   2  -5    3.08    0.31
  -2   2  -5    3.75    0.48
  -2   2  -5    4.61    0.55
   2  -2   5    3.43    0.50
   2  -2   5    4.19    0.37
   2  -2   5    4.26    0.45
   2  -2   5    4.31    0.35
   2  -2   5    3.30    0.49
  -3   2  -5    4.36    0.41
  -3   2  -5    4.26    0.56
  -3   2  -5    4.83    0.57
  -3   2  -5    5.02    0.48
  -3   2  -5    4.54    0.51
  -3   2  -5    3.31    0.53
   3  -2   5    4.75    0.58
   3  -2   5    4.31    0.38
   3  -2   5    3.71    0.42
   3  -2   5    4.10    0.62
   3  -2   5    4.30    0.59
   3  -2   5    3.93    0.48
  -4   2  -5    7.01    0.75
  -4   2  -5    7.62    0.75
  -4   2  -5    7.00    0.63
  -4   2  -5    7.85    0.64
  -4   2  -5    7.97    0.82
  -4   2  -5    6.56    0.73
   4  -2   5    7.00    0.78
   4  -2   5    7.71    0.70
   4  -2   5    6.89    0.48
   4  -2   5    7.01    0.95
   4  -2   5    6.97    0.78
   4  -2   5    6.71    0.62
  -5   2  -5    2.98    0.53
  -5   2  -5    3.33    0.59
  -5   2  -5    2.66    0.40
  -5   2  -5    2.64    0.54
  -5   2  -5    2.67    0.62
   5  -2   5    2.22    0.45
   5  -2   5    1.73    0.56
   5  -2   5    2.66    0.49
   5  -2   5    2.28    0.61
  -6   2  -5    3.69    0.66
  -6   2  -5    2.53    0.47
  -6   2  -5    3.42    0.63
  -6   2  -5    3.21    0.71
  -6   2  -5    3.45    0.68
   6  -2   5    3.61    0.59
   6  -2   5    2.66    0.58
   6  -2   5    4.26    0.81
  -7   2  -5    1.48    0.47
  -7   2  -5    1.09    0.62
  -7   2  -5    0.68    0.74
  -7   2  -5    0.68    0.56
  -7   2  -5   -0.47    0.77
   7  -2   5    1.50    0.68
   7  -2   5    1.18    0.78
  -8   2  -5    1.31    0.74
  -8   2  -5    0.22    0.93
  -8   2  -5    0.78    0.81
   8  -2   5    0.49    0.80
   8  -2   5   -0.65    0.82
   8  -2   5    0.96    0.98
  -9   2  -5    0.68    1.28
   9  -2   5    1.64    1.09
  -9  -1   5   -0.14    1.04
  -9  -1   5   -0.48    1.06
  -8  -1   5    0.69    0.83
  -8  -1   5   -0.61    0.71
  -8  -1   5   -0.45    0.50
   7   1  -5    0.90    0.62
  -7  -1   5   -0.20    0.35
  -7  -1   5    0.16    0.60
  -7  -1   5    0.71    0.73
  -7  -1   5   -0.24    0.25
   6   1  -5    0.52    0.47
  -6  -1   5   -0.52    0.42
  -6  -1   5    0.27    0.22
  -6  -1   5    1.03    0.47
  -6  -1   5    0.59    0.45
  -6  -1   5    0.21    0.27
  -6  -1   5   -0.47    0.48
  -6  -1   5    0.34    0.54
   5   1  -5    2.60    0.47
   5   1  -5    2.91    0.48
  -5  -1   5    2.17    0.53
  -5  -1   5    2.71    0.37
  -5  -1   5    2.32    0.48
  -5  -1   5    2.85    0.36
  -5  -1   5    2.39    0.34
  -5  -1   5    2.88    0.46
  -5  -1   5    2.73    0.54
  -5  -1   5    3.00    0.56
   4   1  -5   25.52    1.36
   4   1  -5   25.88    1.42
  -4  -1   5   25.26    1.39
  -4  -1   5   23.76    1.25
  -4  -1   5   28.04    1.37
  -4  -1   5   23.67    1.17
  -4  -1   5   24.72    1.46
  -4  -1   5   24.81    1.21
  -4  -1   5   24.81    1.15
  -4  -1   5   26.70    1.59
  -4  -1   5   27.51    1.38
   3   1  -5   20.39    1.14
   3   1  -5   18.29    1.06
   3   1  -5   19.48    1.04
   3   1  -5   18.05    0.90
   3   1  -5   18.24    1.19
  -3  -1   5   17.32    1.11
  -3  -1   5   18.17    0.96
  -3  -1   5   19.26    0.95
  -3  -1   5   17.31    1.00
  -3  -1   5   20.51    0.93
  -3  -1   5   19.32    1.22
  -3  -1   5   18.54    1.04
  -3  -1   5   20.31    0.92
  -3  -1   5   22.72    1.11
   2   1  -5    0.31    0.22
   2   1  -5    0.08    0.15
   2   1  -5   -0.11    0.16
   2   1  -5   -0.10    0.12
  -2  -1   5    0.00    0.04
  -2  -1   5    0.06    0.11
  -2  -1   5    0.01    0.09
  -2  -1   5   -0.02    0.05
  -2  -1   5    0.11    0.14
  -2  -1   5    0.08    0.13
  -2  -1   5   -0.10    0.15
  -2  -1   5   -0.21    0.23
  -2  -1   5   -0.43    0.19
   1   1  -5    1.17    0.25
   1   1  -5    1.35    0.23
   1   1  -5    1.50    0.18
   1   1  -5    1.41    0.27
   1   1  -5    1.50    0.26
   1   1  -5    1.01    0.13
  -1  -1   5    1.73    0.28
  -1  -1   5    1.58    0.26
  -1  -1   5    0.94    0.25
  -1  -1   5    1.25    0.23
  -1  -1   5    1.19    0.16
  -1  -1   5    1.28    0.13
  -1  -1   5    1.11    0.15
  -1  -1   5    1.41    0.31
   0   1  -5    0.05    0.04
   0   1  -5    0.13    0.07
   0   1  -5    0.13    0.17
   0   1  -5   -0.27    0.14
   0   1  -5   -0.23    0.18
   0   1  -5    0.05    0.18
   0  -1   5   -0.03    0.15
   0  -1   5   -0.34    0.16
   0  -1   5   -0.17    0.19
   0  -1   5    0.45    0.18
   0  -1   5   -0.13    0.20
   0  -1   5   -0.02    0.11
  -1   1  -5    0.12    0.20
  -1   1  -5    0.25    0.19
  -1   1  -5    0.21    0.21
  -1   1  -5   -0.09    0.07
  -1   1  -5    0.00    0.10
  -1   1  -5    0.03    0.14
   1  -1   5    0.08    0.22
   1  -1   5    0.22    0.15
   1  -1   5   -0.10    0.19
   1  -1   5    0.04    0.19
   1  -1   5   -0.02    0.15
  -2   1  -5    0.02    0.14
  -2   1  -5   -0.07    0.13
  -2   1  -5    0.07    0.19
  -2   1  -5    0.10    0.19
  -2   1  -5   -0.35    0.15
  -2   1  -5    0.20    0.26
   2  -1   5   -0.19    0.15
   2  -1   5   -0.28    0.20
   2  -1   5   -0.12    0.10
   2  -1   5   -0.43    0.22
   2  -1   5   -0.02    0.19
  -3   1  -5    2.09    0.23
  -3   1  -5    1.87    0.35
  -3   1  -5    1.92    0.32
  -3   1  -5    1.92    0.31
  -3   1  -5    2.16    0.42
  -3   1  -5    2.23    0.31
  -3   1  -5    2.35    0.40
  -3   1  -5    2.65    0.41
   3  -1   5    1.79    0.36
   3  -1   5    1.83    0.38
   3  -1   5    1.20    0.33
   3  -1   5    2.52    0.44
   3  -1   5    1.99    0.41
   3  -1   5    1.56    0.27
  -4   1  -5    1.12    0.36
  -4   1  -5    1.55    0.40
  -4   1  -5    1.77    0.25
  -4   1  -5    0.96    0.33
  -4   1  -5    0.81    0.30
  -4   1  -5    1.49    0.37
  -4   1  -5    1.80    0.33
   4  -1   5    1.71    0.42
   4  -1   5    1.48    0.32
   4  -1   5    0.80    0.39
   4  -1   5    1.10    0.34
   4  -1   5    0.90    0.43
  -5   1  -5    9.46    0.81
  -5   1  -5    9.71    0.92
  -5   1  -5   11.45    0.91
  -5   1  -5   10.62    0.72
  -5   1  -5    9.83    0.79
  -5   1  -5    9.88    0.98
  -5   1  -5   10.58    0.90
   5  -1   5   12.98    1.16
   5  -1   5   10.29    0.57
   5  -1   5   10.95    0.99
   5  -1   5   10.91    0.96
   5  -1   5    9.71    0.82
   5  -1   5   10.30    0.89
  -6   1  -5    0.74    0.44
  -6   1  -5    1.64    0.61
  -6   1  -5    1.13    0.50
  -6   1  -5    1.58    0.37
  -6   1  -5    0.53    0.55
  -6   1  -5    1.13    0.36
   6  -1   5    1.25    0.44
   6  -1   5    1.77    0.60
   6  -1   5    1.00    0.50
   6  -1   5    1.04    0.44
  -7   1  -5    0.17    0.43
  -7   1  -5    2.81    0.76
  -7   1  -5    0.06    0.50
  -7   1  -5    1.03    0.58
  -7   1  -5    0.10    0.67
   7  -1   5    1.91    0.59
   7  -1   5    1.14    0.62
   7  -1   5    1.59    0.70
  -8   1  -5    1.29    0.75
  -8   1  -5    0.57    0.58
  -8   1  -5    1.09    0.89
  -8   1  -5    1.45    0.67
   8  -1   5    0.53    0.70
   8  -1   5    2.36    0.78
   8  -1   5    1.50    0.94
  -9   1  -5    1.37    0.88
  -9   1  -5    1.16    0.98
  -9   1  -5    0.98    0.85
   9  -1   5   -0.13    0.97
   8   0  -5    7.68    1.10
  -8   0   5    6.94    0.84
  -8   0   5    7.17    1.21
  -8   0   5    9.43    1.38
   7   0  -5    0.19    0.58
  -7   0   5    0.29    0.24
  -7   0   5   -0.12    0.37
  -7   0   5    0.02    0.67
  -7   0   5    0.20    0.41
  -7   0   5   -0.23    0.73
  -7   0   5   -0.10    0.62
  -7   0   5    0.09    0.61
   6   0  -5    1.03    0.50
   6   0  -5    0.77    0.43
  -6   0   5    0.82    0.24
  -6   0   5    2.14    0.60
  -6   0   5    1.90    0.51
  -6   0   5    0.94    0.32
  -6   0   5    0.77    0.50
  -6   0   5    0.40    0.53
   5   0  -5    4.35    0.60
   5   0  -5    5.40    0.65
  -5   0   5    3.14    0.67
  -5   0   5    3.94    0.40
  -5   0   5    4.93    0.58
  -5   0   5    4.63    0.62
  -5   0   5    3.62    0.44
  -5   0   5    3.13    0.61
  -5   0   5    3.24    0.51
  -5   0   5    3.94    0.46
  -5   0   5    4.04    0.29
  -5   0   5    4.22    0.32
   4   0  -5   16.44    0.76
   4   0  -5   15.99    1.02
   4   0  -5   15.69    1.00
  -4   0   5   14.36    1.13
  -4   0   5   15.55    0.80
  -4   0   5   16.26    0.93
  -4   0   5   16.50    1.12
  -4   0   5   16.34    0.86
  -4   0   5   15.53    0.82
  -4   0   5   15.47    0.91
  -4   0   5   17.19    0.87
  -4   0   5   16.21    1.03
   3   0  -5    0.59    0.20
   3   0  -5    0.62    0.13
   3   0  -5    0.68    0.23
   3   0  -5    0.61    0.24
   3   0  -5    0.57    0.18
  -3   0   5    0.39    0.16
  -3   0   5    0.71    0.17
  -3   0   5    0.59    0.08
  -3   0   5    0.33    0.20
  -3   0   5    1.07    0.32
  -3   0   5    0.57    0.17
  -3   0   5    0.54    0.17
  -3   0   5    0.59    0.15
  -3   0   5    0.92    0.26
   2   0  -5   15.60    1.03
   2   0  -5   16.45    0.87
   2   0  -5   17.47    0.91
   2   0  -5   18.96    0.96
   2   0  -5   16.95    0.90
  -2   0   5   17.26    0.80
  -2   0   5   16.29    1.05
  -2   0   5   14.74    0.94
  -2   0   5   16.07    0.82
  -2   0   5   15.96    0.90
  -2   0   5   16.51    0.88
   1   0  -5    7.26    0.43
   1   0  -5    7.12    0.42
   1   0  -5    6.91    0.55
   1   0  -5    6.94    0.51
   1   0  -5    7.03    0.49
   1   0  -5    7.49    0.58
  -1   0   5    6.54    0.40
  -1   0   5    6.91    0.54
  -1   0   5    7.97    0.62
  -1   0   5    7.42    0.52
  -1   0   5    7.49    0.50
   0   0  -5    0.60    0.19
   0   0  -5    0.48    0.19
   0   0  -5    0.45    0.06
   0   0  -5    0.51    0.08
   0   0  -5    0.25    0.08
   0   0  -5    0.35    0.14
   0   0   5    0.39    0.13
   0   0   5    0.51    0.23
   0   0   5    0.35    0.14
   0   0   5    0.39    0.17
   0   0   5    0.10    0.18
  -1   0  -5    0.04    0.07
  -1   0  -5   -0.03    0.08
  -1   0  -5    0.27    0.22
  -1   0  -5   -0.11    0.17
  -1   0  -5   -0.09    0.16
  -1   0  -5    0.02    0.14
   1   0   5   -0.06    0.16
   1   0   5    0.13    0.17
   1   0   5    0.13    0.21
   1   0   5   -0.07    0.14
   1   0   5   -0.15    0.16
   1   0   5    0.06    0.14
  -2   0  -5    2.84    0.34
  -2   0  -5    2.84    0.21
  -2   0  -5    2.58    0.39
  -2   0  -5    2.66    0.36
  -2   0  -5    2.50    0.40
  -2   0  -5    2.87    0.31
   2   0   5    2.82    0.38
   2   0   5    2.10    0.35
   2   0   5    2.39    0.33
   2   0   5    2.49    0.38
   2   0   5    2.53    0.43
  -3   0  -5    1.56    0.29
  -3   0  -5    1.63    0.29
  -3   0  -5    1.83    0.22
  -3   0  -5    1.92    0.30
  -3   0  -5    2.12    0.40
  -3   0  -5    1.49    0.29
  -3   0  -5    1.80    0.33
   3   0   5    1.70    0.36
   3   0   5    1.90    0.40
   3   0   5    1.48    0.30
   3   0   5    1.93    0.34
   3   0   5    1.86    0.36
  -4   0  -5    1.29    0.33
  -4   0  -5    1.15    0.24
  -4   0  -5    1.08    0.37
  -4   0  -5    1.21    0.32
  -4   0  -5    1.09    0.30
  -4   0  -5    1.04    0.33
   4   0   5    1.04    0.36
   4   0   5    1.13    0.31
   4   0   5    1.26    0.33
   4   0   5    1.13    0.38
   4   0   5    1.25    0.41
  -5   0  -5    0.65    0.35
  -5   0  -5    0.53    0.30
  -5   0  -5    0.75    0.31
  -5   0  -5    0.95    0.42
  -5   0  -5    0.24    0.28
  -5   0  -5    1.16    0.30
   5   0   5    0.32    0.36
   5   0   5    0.16    0.42
   5   0   5    0.18    0.27
   5   0   5    0.63    0.52
   5   0   5    1.15    0.42
   5   0   5    0.38    0.33
   5   0   5    1.18    0.40
  -6   0  -5    1.08    0.40
  -6   0  -5    0.32    0.36
  -6   0  -5    0.72    0.39
  -6   0  -5    1.08    0.46
  -6   0  -5    1.25    0.52
  -6   0  -5    0.87    0.41
   6   0   5    0.65    0.38
   6   0   5    0.91    0.43
   6   0   5    0.62    0.59
   6   0   5    1.01    0.43
   6   0   5    1.28    0.55
   6   0   5    1.01    0.26
  -7   0  -5    0.87    0.52
  -7   0  -5   -0.20    0.47
  -7   0  -5    0.95    0.45
  -7   0  -5    0.07    0.55
  -7   0  -5    0.30    0.54
  -7   0  -5    0.71    0.61
   7   0   5   -0.18    0.47
   7   0   5    0.83    0.64
  -8   0  -5    1.36    0.63
  -8   0  -5    1.28    0.66
  -8   0  -5    0.69    0.63
  -8   0  -5    0.77    0.81
  -8   0  -5    0.68    0.60
   8   0   5    0.71    0.73
   8   0   5    0.86    0.78
  -9   0  -5    1.00    0.73
  -9   0  -5   -0.82    0.75
  -9   0  -5   -1.26    0.85
   9   0   5   -0.35    0.87
   8  -1  -5    0.91    0.88
  -8   1   5    2.23    1.00
  -8   1   5    0.43    0.60
  -8   1   5    1.44    0.98
   7  -1  -5    1.56    0.67
  -7   1   5    1.69    0.75
  -7   1   5    0.61    0.39
  -7   1   5    1.35    0.24
  -7   1   5    1.31    0.23
  -7   1   5    1.89    0.78
   6  -1  -5    1.53    0.54
  -6   1   5    1.70    0.51
  -6   1   5    2.17    0.32
  -6   1   5    1.84    0.33
  -6   1   5    1.27    0.54
   5  -1  -5    0.30    0.37
   5  -1  -5    0.29    0.17
   5  -1  -5    0.32    0.38
   5  -1  -5    0.51    0.23
  -5   1   5    0.56    0.19
  -5   1   5    0.17    0.46
  -5   1   5   -0.05    0.39
  -5   1   5    0.16    0.27
  -5   1   5    0.17    0.21
  -5   1   5    0.44    0.18
  -5   1   5    0.48    0.19
  -5   1   5    0.66    0.33
  -5   1   5   -0.17    0.36
   4  -1  -5   -0.03    0.23
   4  -1  -5   -0.27    0.22
   4  -1  -5    0.04    0.13
   4  -1  -5    0.09    0.26
  -4   1   5    0.00    0.10
  -4   1   5    0.16    0.26
  -4   1   5    0.23    0.16
  -4   1   5    0.19    0.33
  -4   1   5    0.18    0.33
  -4   1   5    0.01    0.18
  -4   1   5    0.35    0.30
  -4   1   5    0.31    0.17
  -4   1   5    0.25    0.20
   3  -1  -5   16.65    0.96
   3  -1  -5   16.92    0.99
   3  -1  -5   18.11    0.98
   3  -1  -5   17.76    1.03
  -3   1   5   17.37    0.92
  -3   1   5   17.82    0.94
  -3   1   5   17.92    0.82
  -3   1   5   18.38    0.88
  -3   1   5   17.02    1.13
  -3   1   5   17.30    0.85
  -3   1   5   16.45    0.93
   2  -1  -5    0.30    0.16
   2  -1  -5    0.35    0.15
   2  -1  -5    0.14    0.14
   2  -1  -5   -0.15    0.19
   2  -1  -5    0.34    0.15
  -2   1   5    0.09    0.12
  -2   1   5    0.11    0.22
  -2   1   5    0.08    0.08
  -2   1   5    0.16    0.15
  -2   1   5    0.13    0.10
  -2   1   5    0.22    0.17
  -2   1   5    0.30    0.15
   1  -1  -5    3.83    0.44
   1  -1  -5    3.84    0.31
   1  -1  -5    3.59    0.28
   1  -1  -5    3.71    0.34
   1  -1  -5    3.64    0.42
   1  -1  -5    3.83    0.32
  -1   1   5    3.43    0.36
  -1   1   5    3.42    0.43
  -1   1   5    3.23    0.25
  -1   1   5    3.88    0.40
  -1   1   5    3.85    0.38
   0  -1  -5   12.94    0.80
   0  -1  -5   14.43    0.81
   0  -1  -5   14.42    0.66
   0  -1  -5   12.00    0.65
   0  -1  -5   13.19    0.82
   0  -1  -5   13.75    0.67
   0  -1  -5   14.25    0.67
   0  -1  -5   14.45    0.69
   0   1   5   13.60    0.81
   0   1   5   14.05    0.86
   0   1   5   15.20    0.86
   0   1   5   12.79    0.75
   0   1   5   13.99    0.85
  -1  -1  -5    3.90    0.28
  -1  -1  -5    3.81    0.41
  -1  -1  -5    3.65    0.37
   1   1   5    3.72    0.46
   1   1   5    3.70    0.37
   1   1   5    3.96    0.36
   1   1   5    3.91    0.41
   1   1   5    3.45    0.41
  -2  -1  -5    0.49    0.18
  -2  -1  -5    0.50    0.20
  -2  -1  -5    0.49    0.20
  -2  -1  -5    0.41    0.12
  -2  -1  -5    0.46    0.16
   2   1   5    0.11    0.21
   2   1   5    0.67    0.22
   2   1   5    0.43    0.20
   2   1   5    0.19    0.21
   2   1   5    0.11    0.23
  -3  -1  -5    0.57    0.25
  -3  -1  -5    0.38    0.18
  -3  -1  -5    0.36    0.19
  -3  -1  -5    0.45    0.17
  -3  -1  -5    0.36    0.17
  -3  -1  -5    0.60    0.27
   3   1   5    0.21    0.24
   3   1   5    0.26    0.24
   3   1   5    0.16    0.23
   3   1   5    0.03    0.25
   3   1   5    0.67    0.27
  -4  -1  -5    0.09    0.18
  -4  -1  -5    0.86    0.25
  -4  -1  -5    0.87    0.33
  -4  -1  -5    0.11    0.24
  -4  -1  -5    0.28    0.21
  -4  -1  -5    0.10    0.25
  -4  -1  -5    0.38    0.21
   4   1   5    0.52    0.34
   4   1   5    0.10    0.29
   4   1   5    0.51    0.29
   4   1   5    0.26    0.30
   4   1   5    0.53    0.30
  -5  -1  -5    0.45    0.27
  -5  -1  -5    0.32    0.29
  -5  -1  -5    0.02    0.28
  -5  -1  -5    0.42    0.41
  -5  -1  -5    0.10    0.27
  -5  -1  -5   -0.46    0.26
   5   1   5    0.09    0.30
   5   1   5    0.66    0.35
   5   1   5    0.61    0.39
   5   1   5    1.25    0.47
   5   1   5    0.51    0.34
   5   1   5    0.53    0.38
  -6  -1  -5    2.30    0.60
  -6  -1  -5    3.33    0.50
  -6  -1  -5    1.49    0.48
  -6  -1  -5    2.29    0.49
  -6  -1  -5    2.17    0.45
  -6  -1  -5    2.76    0.47
   6   1   5    2.89    0.61
   6   1   5    1.89    0.51
   6   1   5    1.07    0.59
   6   1   5    2.33    0.38
   6   1   5    2.13    0.57
  -7  -1  -5    0.55    0.41
  -7  -1  -5    0.23    0.53
  -7  -1  -5    1.00    0.48
  -7  -1  -5    0.56    0.57
  -7  -1  -5    0.58    0.42
   7   1   5    0.67    0.28
   7   1   5    0.37    0.56
   7   1   5   -0.07    0.56
   7   1   5    0.72    0.74
  -8  -1  -5    9.93    1.13
  -8  -1  -5    7.78    0.95
  -8  -1  -5    9.19    1.08
  -8  -1  -5   10.00    1.31
  -8  -1  -5    9.24    1.05
   8   1   5    8.85    1.11
   8   1   5    7.67    1.07
   8   1   5    9.36    0.53
  -9  -1  -5    2.69    0.78
  -9  -1  -5    2.35    0.89
  -9  -1  -5    3.20    0.76
   9   1   5    2.95    0.95
   8  -2  -5    1.38    1.01
  -8   2   5    2.60    0.44
  -8   2   5    4.86    1.21
  -8   2   5    3.87    1.14
   7  -2  -5    0.22    0.70
  -7   2   5    0.56    0.36
  -7   2   5    0.99    0.73
  -7   2   5    1.79    0.87
   6  -2  -5    0.52    0.53
   6  -2  -5   -0.05    0.37
   6  -2  -5    0.35    0.31
  -6   2   5   -0.37    0.48
  -6   2   5    0.28    0.31
  -6   2   5    0.34    0.23
  -6   2   5    0.36    0.61
   5  -2  -5    1.53    0.37
   5  -2  -5    1.07    0.27
   5  -2  -5    1.37    0.47
   5  -2  -5    1.34    0.45
  -5   2   5    0.85    0.26
  -5   2   5    1.11    0.30
  -5   2   5    1.44    0.42
  -5   2   5    0.75    0.52
  -5   2   5    1.39    0.20
   4  -2  -5    4.71    0.59
   4  -2  -5    4.79    0.62
   4  -2  -5    6.48    0.58
  -4   2   5    5.27    0.47
  -4   2   5    5.66    0.76
  -4   2   5    3.75    0.28
  -4   2   5    3.93    0.41
  -4   2   5    4.79    0.44
  -4   2   5    4.77    0.45
   3  -2  -5   15.46    0.91
   3  -2  -5   16.46    0.96
   3  -2  -5   15.39    0.81
   3  -2  -5   13.80    0.90
   3  -2  -5   15.64    0.82
  -3   2   5   14.44    1.10
  -3   2   5   13.29    0.84
  -3   2   5   13.05    0.76
  -3   2   5   14.00    1.01
  -3   2   5   14.55    0.85
  -3   2   5   15.39    0.77
   2  -2  -5   11.95    0.66
   2  -2  -5   10.56    0.67
   2  -2  -5   11.19    0.71
   2  -2  -5   10.99    0.67
   2  -2  -5   12.09    0.77
  -2   2   5   11.08    0.54
  -2   2   5   11.40    0.60
  -2   2   5   11.77    0.81
  -2   2   5   11.01    0.71
  -2   2   5   11.32    0.61
  -2   2   5   10.42    0.57
  -2   2   5   11.39    0.72
  -2   2   5   11.66    0.72
   1  -2  -5    3.75    0.33
   1  -2  -5    3.62    0.31
   1  -2  -5    3.30    0.29
   1  -2  -5    3.28    0.44
  -1   2   5    3.73    0.38
  -1   2   5    3.26    0.37
  -1   2   5    3.27    0.40
  -1   2   5    3.51    0.42
   0  -2  -5   13.26    0.83
   0  -2  -5   12.02    0.62
   0  -2  -5   12.08    0.59
   0  -2  -5   13.53    0.76
   0  -2  -5   12.71    0.76
   0   2   5   11.94    0.81
   0   2   5   11.93    0.75
   0   2   5   13.27    0.78
   0   2   5   11.93    0.70
   0   2   5   12.30    0.80
  -1  -2  -5   11.17    0.71
  -1  -2  -5   11.09    0.63
  -1  -2  -5   11.51    0.81
  -1  -2  -5   12.09    0.75
  -1  -2  -5   11.72    0.66
   1   2   5   12.14    0.76
   1   2   5   12.01    0.71
   1   2   5   11.48    0.72
   1   2   5   11.50    0.79
   1   2   5   12.67    0.80
  -2  -2  -5   10.01    0.62
  -2  -2  -5   10.51    0.62
  -2  -2  -5   11.17    0.73
  -2  -2  -5   10.80    0.71
   2   2   5    8.95    0.61
   2   2   5   10.92    0.71
   2   2   5   10.15    0.75
   2   2   5   10.70    0.78
  -3  -2  -5    1.86    0.34
  -3  -2  -5    2.31    0.38
  -3  -2  -5    2.61    0.33
  -3  -2  -5    2.36    0.28
  -3  -2  -5    2.51    0.31
   3   2   5    1.90    0.32
   3   2   5    2.63    0.40
   3   2   5    1.84    0.32
   3   2   5    1.92    0.38
   3   2   5    1.71    0.34
   3   2   5    2.05    0.41
  -4  -2  -5    5.29    0.55
  -4  -2  -5    5.50    0.51
  -4  -2  -5    5.28    0.56
  -4  -2  -5    4.32    0.52
   4   2   5    4.56    0.57
   4   2   5    6.06    0.56
   4   2   5    5.81    0.67
   4   2   5    5.21    0.56
   4   2   5    5.21    0.63
   4   2   5    5.12    0.63
  -5  -2  -5    3.26    0.47
  -5  -2  -5    1.86    0.47
  -5  -2  -5    2.54    0.41
  -5  -2  -5    2.62    0.43
  -5  -2  -5    2.75    0.43
  -5  -2  -5    2.69    0.35
  -5  -2  -5    2.19    0.40
   5   2   5    2.60    0.47
   5   2   5    1.83    0.46
   5   2   5    1.73    0.43
   5   2   5    2.72    0.52
   5   2   5    1.85    0.46
  -6  -2  -5    0.33    0.41
  -6  -2  -5    0.33    0.23
  -6  -2  -5    0.45    0.38
  -6  -2  -5    0.26    0.30
  -6  -2  -5    0.21    0.32
  -6  -2  -5   -0.38    0.43
  -6  -2  -5    0.39    0.36
   6   2   5    0.98    0.47
   6   2   5    0.12    0.42
   6   2   5    0.18    0.28
   6   2   5    0.28    0.39
   6   2   5    0.66    0.55
  -7  -2  -5    0.68    0.40
  -7  -2  -5    1.02    0.61
  -7  -2  -5    0.98    0.49
  -7  -2  -5    1.65    0.56
   7   2   5    1.46    0.58
   7   2   5    0.75    0.36
   7   2   5    0.81    0.61
  -8  -2  -5    4.25    0.76
  -8  -2  -5    3.98    0.74
  -8  -2  -5    4.30    0.69
  -8  -2  -5    5.16    0.89
   8   2   5    5.02    0.66
   8   2   5    4.20    0.83
   8   2   5    3.58    0.84
  -9  -2  -5   -1.03    0.61
  -9  -2  -5   -0.76    0.60
  -9  -2  -5    0.82    0.74
   9   2   5    0.73    0.78
   9   2   5    0.77    0.89
 -10  -2  -5   -0.64    0.83
 -10  -2  -5    0.64    1.07
 -10  -2  -5    1.47    0.78
   8  -3  -5   -0.32    1.04
  -8   3   5    0.23    0.55
  -8   3   5   -1.75    1.05
  -8   3   5    0.53    1.18
   7  -3  -5    0.70    0.79
  -7   3   5    0.73    0.93
   6  -3  -5    0.24    0.57
   6  -3  -5   -0.02    0.37
  -6   3   5    0.08    0.52
  -6   3   5   -0.05    0.38
  -6   3   5   -0.09    0.21
  -6   3   5    0.66    0.63
   5  -3  -5    1.40    0.48
   5  -3  -5    1.28    0.48
   5  -3  -5    2.01    0.37
   5  -3  -5    2.71    0.60
  -5   3   5    1.55    0.38
  -5   3   5    1.76    0.21
  -5   3   5    1.27    0.43
  -5   3   5    2.17    0.68
  -5   3   5    1.68    0.36
   4  -3  -5    3.92    0.45
   4  -3  -5    3.64    0.55
   4  -3  -5    4.27    0.58
   4  -3  -5    3.32    0.51
  -4   3   5    3.65    0.48
  -4   3   5    4.10    0.73
  -4   3   5    3.39    0.42
  -4   3   5    2.94    0.24
   3  -3  -5    1.50    0.32
   3  -3  -5    1.27    0.17
   3  -3  -5    1.00    0.35
   3  -3  -5    0.80    0.23
   3  -3  -5    1.35    0.33
  -3   3   5    1.59    0.29
  -3   3   5    0.92    0.29
  -3   3   5    1.18    0.37
  -3   3   5    1.38    0.23
  -3   3   5    1.23    0.13
  -3   3   5    1.50    0.39
   2  -3  -5    0.15    0.11
   2  -3  -5    0.13    0.18
   2  -3  -5    0.35    0.29
   2  -3  -5    0.05    0.17
   2  -3  -5    0.34    0.20
  -2   3   5    0.28    0.11
  -2   3   5    0.05    0.13
  -2   3   5   -0.13    0.23
  -2   3   5    0.01    0.30
  -2   3   5   -0.04    0.20
  -2   3   5    0.33    0.22
  -2   3   5    0.02    0.07
   1  -3  -5    3.42    0.32
   1  -3  -5    2.61    0.34
   1  -3  -5    3.65    0.31
   1  -3  -5    2.96    0.31
   1  -3  -5    3.59    0.47
   1  -3  -5    2.98    0.21
  -1   3   5    3.67    0.44
  -1   3   5    2.64    0.23
  -1   3   5    2.74    0.39
  -1   3   5    3.58    0.41
  -1   3   5    2.98    0.26
  -1   3   5    3.12    0.42
   0  -3  -5    7.99    0.58
   0  -3  -5    6.20    0.52
   0  -3  -5    7.74    0.66
   0  -3  -5    7.66    0.44
   0  -3  -5    7.80    0.39
   0   3   5    8.04    0.57
   0   3   5    8.92    0.61
   0   3   5    7.84    0.61
   0   3   5    8.25    0.50
   0   3   5    7.88    0.62
   0   3   5    7.97    0.43
  -1  -3  -5    0.38    0.11
  -1  -3  -5    0.17    0.17
  -1  -3  -5    0.31    0.09
  -1  -3  -5    0.19    0.24
   1   3   5    0.40    0.24
   1   3   5    0.33    0.22
   1   3   5    0.56    0.17
   1   3   5    0.11    0.22
   1   3   5    0.27    0.14
   1   3   5    0.47    0.17
  -2  -3  -5    1.68    0.21
  -2  -3  -5    1.83    0.27
  -2  -3  -5    2.82    0.41
  -2  -3  -5    1.76    0.32
  -2  -3  -5    1.74    0.31
   2   3   5    1.89    0.26
   2   3   5    1.76    0.34
   2   3   5    2.38    0.35
   2   3   5    1.87    0.27
   2   3   5    2.19    0.39
  -3  -3  -5    2.95    0.39
  -3  -3  -5    2.69    0.41
  -3  -3  -5    3.16    0.36
  -3  -3  -5    2.35    0.45
   3   3   5    2.55    0.42
   3   3   5    2.72    0.41
   3   3   5    3.05    0.44
   3   3   5    2.23    0.34
  -4  -3  -5    3.22    0.45
  -4  -3  -5    3.05    0.46
  -4  -3  -5    2.78    0.40
  -4  -3  -5    3.24    0.42
   4   3   5    4.13    0.57
   4   3   5    3.18    0.44
   4   3   5    2.97    0.42
   4   3   5    2.52    0.42
   4   3   5    3.97    0.53
  -5  -3  -5    5.02    0.60
  -5  -3  -5    3.90    0.54
  -5  -3  -5    4.40    0.62
  -5  -3  -5    3.29    0.50
  -5  -3  -5    4.10    0.53
   5   3   5    3.66    0.54
   5   3   5    4.43    0.65
   5   3   5    5.49    0.61
   5   3   5    2.76    0.49
   5   3   5    4.10    0.61
  -6  -3  -5    4.81    0.66
  -6  -3  -5    5.38    0.64
  -6  -3  -5    4.70    0.70
  -6  -3  -5    4.45    0.65
  -6  -3  -5    5.35    0.68
  -6  -3  -5    5.17    0.29
   6   3   5    5.29    0.75
   6   3   5    4.89    0.61
   6   3   5    4.29    0.66
   6   3   5    4.27    0.66
  -7  -3  -5    3.36    0.35
  -7  -3  -5    2.76    0.60
  -7  -3  -5    3.88    0.54
  -7  -3  -5    3.70    0.31
  -7  -3  -5    3.99    0.76
  -7  -3  -5    4.76    0.70
   7   3   5    3.38    0.66
   7   3   5    3.54    0.55
   7   3   5    4.12    0.69
  -8  -3  -5   -0.52    0.41
  -8  -3  -5    0.25    0.47
  -8  -3  -5    0.42    0.59
  -8  -3  -5    0.07    0.23
  -8  -3  -5   -0.12    0.67
   8   3   5    0.12    0.62
   8   3   5    0.88    0.73
   8   3   5    0.01    0.58
   8   3   5    0.21    0.43
  -9  -3  -5    2.98    0.67
  -9  -3  -5    3.32    0.80
   9   3   5    3.29    0.95
   9   3   5    3.27    0.59
   9   3   5    3.90    1.01
 -10  -3  -5    2.45    0.83
 -10  -3  -5    1.07    0.75
 -10  -3  -5    1.25    0.97
  10   3   5    1.04    1.03
   7  -4  -5    0.82    0.83
   6  -4  -5   -1.01    0.61
  -6   4   5    0.14    0.41
  -6   4   5   -0.66    0.57
  -6   4   5    2.36    0.90
  -6   4   5    0.12    0.24
   5  -4  -5   -0.13    0.46
   5  -4  -5    0.57    0.48
   5  -4  -5    0.34    0.39
  -5   4   5    0.42    0.42
  -5   4   5    0.12    0.34
  -5   4   5   -0.09    0.16
  -5   4   5   -0.03    0.55
   4  -4  -5    0.23    0.38
   4  -4  -5    0.39    0.34
   4  -4  -5    0.39    0.52
   4  -4  -5    0.71    0.33
  -4   4   5    0.42    0.51
  -4   4   5    1.03    0.34
  -4   4   5    0.64    0.36
   3  -4  -5   24.68    1.39
   3  -4  -5   25.18    1.43
   3  -4  -5   24.09    1.32
   3  -4  -5   23.67    1.16
   3  -4  -5   24.33    1.35
  -3   4   5   22.46    1.15
  -3   4   5   23.48    1.65
  -3   4   5   24.16    1.16
  -3   4   5   26.06    1.55
  -3   4   5   23.62    1.33
  -3   4   5   21.38    1.33
   2  -4  -5    0.32    0.39
   2  -4  -5    0.28    0.13
   2  -4  -5    0.35    0.24
   2  -4  -5    0.18    0.22
   2  -4  -5    0.56    0.20
  -2   4   5    0.22    0.13
  -2   4   5    0.47    0.34
  -2   4   5    0.23    0.11
  -2   4   5    0.54    0.27
  -2   4   5   -0.07    0.26
  -2   4   5   -0.19    0.31
  -2   4   5    0.46    0.14
   1  -4  -5    0.06    0.20
   1  -4  -5    0.36    0.16
   1  -4  -5    0.00    0.15
   1  -4  -5   -0.34    0.28
   1  -4  -5    0.00    0.08
  -1   4   5   -0.21    0.23
  -1   4   5    0.17    0.12
  -1   4   5    0.18    0.26
  -1   4   5    0.09    0.25
  -1   4   5    0.09    0.11
  -1   4   5   -0.05    0.24
   0  -4  -5    0.85    0.17
   0  -4  -5    0.44    0.20
   0  -4  -5    0.92    0.10
   0  -4  -5    0.55    0.30
   0  -4  -5    0.72    0.23
   0   4   5    1.13    0.30
   0   4   5    0.76    0.17
   0   4   5    0.57    0.25
   0   4   5    0.86    0.18
   0   4   5    0.81    0.24
  -1  -4  -5    4.40    0.55
  -1  -4  -5    4.26    0.47
  -1  -4  -5    4.91    0.32
  -1  -4  -5    4.47    0.46
  -1  -4  -5    4.05    0.30
  -1  -4  -5    3.87    0.28
   1   4   5    4.32    0.39
   1   4   5    3.95    0.38
   1   4   5    4.67    0.36
   1   4   5    5.33    0.55
  -2  -4  -5    0.53    0.22
  -2  -4  -5    0.64    0.28
  -2  -4  -5    0.55    0.17
  -2  -4  -5    0.16    0.29
  -2  -4  -5    0.68    0.14
   2   4   5    0.53    0.14
   2   4   5    1.02    0.31
   2   4   5    0.56    0.19
   2   4   5    0.86    0.29
   2   4   5    0.42    0.21
  -3  -4  -5    5.26    0.68
  -3  -4  -5    4.68    0.42
  -3  -4  -5    5.26    0.49
  -3  -4  -5    5.58    0.53
  -3  -4  -5    5.22    0.59
   3   4   5    4.52    0.56
   3   4   5    4.63    0.46
   3   4   5    4.53    0.54
   3   4   5    5.78    0.33
   3   4   5    4.62    0.50
   3   4   5    5.04    0.53
  -4  -4  -5   -0.09    0.27
  -4  -4  -5    0.16    0.25
  -4  -4  -5   -0.24    0.22
  -4  -4  -5    0.49    0.22
  -4  -4  -5    0.12    0.36
   4   4   5    0.24    0.23
   4   4   5    0.27    0.27
   4   4   5    0.40    0.30
   4   4   5    0.05    0.29
   4   4   5    0.26    0.32
  -5  -4  -5    5.93    0.61
  -5  -4  -5    5.67    0.67
  -5  -4  -5    4.92    0.67
  -5  -4  -5    4.61    0.68
  -5  -4  -5    5.00    0.57
  -5  -4  -5    4.82    0.63
   5   4   5    5.56    0.71
   5   4   5    5.63    0.66
   5   4   5    5.20    0.59
   5   4   5    5.23    0.68
   5   4   5    4.46    0.64
  -6  -4  -5   30.46    1.80
  -6  -4  -5   30.47    1.85
  -6  -4  -5   31.84    1.82
  -6  -4  -5   29.30    1.89
  -6  -4  -5   31.52    1.73
   6   4   5   28.05    1.75
   6   4   5   32.41    1.84
   6   4   5   34.96    1.83
  -7  -4  -5    2.44    0.65
  -7  -4  -5    2.20    0.62
   7   4   5    1.98    0.56
   7   4   5    2.03    0.50
   7   4   5    2.56    0.61
  -8  -4  -5    0.33    0.50
  -8  -4  -5    0.57    0.75
  -8  -4  -5   -0.05    0.42
   8   4   5    0.95    0.67
   8   4   5    0.02    0.45
   8   4   5   -0.27    0.56
   8   4   5   -0.53    0.60
  -9  -4  -5    0.47    0.71
  -9  -4  -5    1.69    0.58
   9   4   5    1.43    0.59
   9   4   5    0.57    0.82
   9   4   5    0.98    0.84
 -10  -4  -5    0.27    0.68
 -10  -4  -5   -0.71    0.86
  10   4   5    1.64    1.07
   7  -5  -5    0.95    0.98
  -7   5   5    0.40    0.65
  -7   5   5    0.03    1.14
   6  -5  -5   -0.52    0.73
  -6   5   5   -0.42    0.52
  -6   5   5   -0.60    0.85
   5  -5  -5    1.74    0.54
   5  -5  -5    0.46    0.54
   5  -5  -5    1.01    0.52
  -5   5   5    1.32    0.58
  -5   5   5    1.38    0.47
  -5   5   5    1.54    0.25
  -5   5   5    2.06    0.80
   4  -5  -5    1.62    0.45
  -4   5   5    1.06    0.46
  -4   5   5    2.36    0.71
  -4   5   5    2.03    0.28
  -4   5   5    2.17    0.46
   3  -5  -5    0.66    0.32
   3  -5  -5    0.38    0.30
   3  -5  -5    1.16    0.35
  -3   5   5    0.47    0.47
  -3   5   5   -0.10    0.28
  -3   5   5    0.18    0.14
  -3   5   5    0.51    0.22
  -3   5   5    0.33    0.38
   2  -5  -5    5.25    0.53
   2  -5  -5    5.36    0.45
   2  -5  -5    6.06    0.58
   2  -5  -5    5.79    0.58
   2  -5  -5    5.20    0.40
   2  -5  -5    5.30    0.65
  -2   5   5    5.62    0.61
  -2   5   5    5.43    0.40
  -2   5   5    5.00    0.40
  -2   5   5    5.77    0.40
  -2   5   5    5.65    0.65
  -2   5   5    5.43    0.76
   1  -5  -5   14.61    0.90
   1  -5  -5   16.84    1.13
   1  -5  -5   16.16    0.88
   1  -5  -5   16.43    0.98
   1  -5  -5   14.89    0.81
  -1   5   5   15.48    1.03
  -1   5   5   14.28    0.84
  -1   5   5   14.61    1.15
  -1   5   5   15.85    0.86
   0  -5  -5    1.15    0.21
   0  -5  -5    0.65    0.36
   0  -5  -5    0.70    0.29
   0  -5  -5    0.95    0.26
   0  -5  -5    1.18    0.14
   0   5   5    1.02    0.32
   0   5   5    1.01    0.32
   0   5   5    0.69    0.32
   0   5   5    1.10    0.21
   0   5   5    0.96    0.22
  -1  -5  -5   13.40    0.86
  -1  -5  -5   14.00    0.92
  -1  -5  -5   12.36    0.65
  -1  -5  -5   13.91    0.99
  -1  -5  -5   12.01    0.68
   1   5   5   12.34    0.91
   1   5   5   13.71    0.82
   1   5   5   12.88    0.81
   1   5   5   14.37    0.95
   1   5   5   12.75    0.81
  -2  -5  -5    2.98    0.27
  -2  -5  -5    3.51    0.33
  -2  -5  -5    4.20    0.60
  -2  -5  -5    3.33    0.43
  -2  -5  -5    3.97    0.56
   2   5   5    3.10    0.34
   2   5   5    4.00    0.47
   2   5   5    3.07    0.48
   2   5   5    3.70    0.49
   2   5   5    3.61    0.37
  -3  -5  -5    0.19    0.20
  -3  -5  -5   -0.74    0.33
  -3  -5  -5    0.05    0.31
  -3  -5  -5   -0.02    0.22
  -3  -5  -5   -0.12    0.11
   3   5   5   -0.13    0.28
   3   5   5   -0.24    0.29
   3   5   5    0.23    0.22
   3   5   5   -0.06    0.11
   3   5   5   -0.04    0.27
  -4  -5  -5    0.83    0.30
  -4  -5  -5    0.93    0.29
  -4  -5  -5    0.90    0.42
  -4  -5  -5    0.82    0.22
  -4  -5  -5    0.47    0.41
   4   5   5    1.47    0.40
   4   5   5    1.03    0.40
   4   5   5    2.24    0.45
   4   5   5    0.90    0.31
   4   5   5    1.11    0.26
  -5  -5  -5    3.32    0.49
  -5  -5  -5    2.79    0.56
  -5  -5  -5    2.92    0.43
  -5  -5  -5    2.75    0.47
  -5  -5  -5    3.22    0.61
   5   5   5    2.10    0.57
   5   5   5    3.00    0.52
   5   5   5    3.80    0.48
   5   5   5    3.05    0.54
  -6  -5  -5    9.28    1.07
  -6  -5  -5   10.55    0.86
  -6  -5  -5   10.55    0.93
  -6  -5  -5   10.07    0.83
  -6  -5  -5    9.87    1.07
  -6  -5  -5    8.68    1.05
   6   5   5   10.08    0.83
   6   5   5   11.05    0.98
   6   5   5   10.87    1.03
   6   5   5   10.73    1.00
  -7  -5  -5    4.11    0.65
  -7  -5  -5    3.34    0.66
  -7  -5  -5    2.71    0.71
  -7  -5  -5    4.01    0.58
   7   5   5    4.66    0.73
   7   5   5    4.78    0.71
   7   5   5    5.10    0.62
  -8  -5  -5    0.93    0.50
  -8  -5  -5    2.07    0.65
  -8  -5  -5    1.45    0.76
  -8  -5  -5    0.43    0.46
   8   5   5    1.12    0.63
   8   5   5    1.83    0.64
   8   5   5    2.29    0.58
   8   5   5    2.43    0.69
  -9  -5  -5    0.53    0.64
  -9  -5  -5    0.51    0.69
  -9  -5  -5    0.44    0.54
   9   5   5    1.46    0.77
   9   5   5    0.17    0.68
 -10  -5  -5    2.40    1.05
 -10  -5  -5    1.24    0.73
 -10  -5  -5   -1.23    0.77
  10   5   5    1.29    0.96
   6  -6  -5    1.29    0.88
  -6   6   5    1.32    1.03
  -6   6   5    2.68    0.72
   5  -6  -5    3.64    0.75
   5  -6  -5    4.19    0.82
  -5   6   5    2.67    0.66
  -5   6   5    2.31    0.97
   4  -6  -5    0.42    0.47
   4  -6  -5    0.24    0.49
   4  -6  -5    0.53    0.46
  -4   6   5   -0.31    0.60
  -4   6   5   -0.20    0.45
  -4   6   5    0.45    0.71
  -4   6   5    0.03    0.23
   3  -6  -5    0.75    0.40
   3  -6  -5    1.46    0.47
  -3   6   5    0.85    0.43
  -3   6   5    1.53    0.51
  -3   6   5    0.40    0.60
  -3   6   5    1.11    0.23
   2  -6  -5   12.36    0.89
   2  -6  -5   12.75    0.95
   2  -6  -5   12.53    0.75
   2  -6  -5   12.07    0.85
   2  -6  -5   11.78    0.80
  -2   6   5   13.04    1.20
  -2   6   5   12.98    0.76
  -2   6   5   12.45    0.99
  -2   6   5   12.10    1.02
  -2   6   5   13.45    0.71
   1  -6  -5    0.26    0.24
   1  -6  -5   -0.41    0.45
   1  -6  -5    0.31    0.30
   1  -6  -5    0.05    0.14
   1  -6  -5    0.27    0.21
  -1   6   5   -0.10    0.30
  -1   6   5    0.04    0.21
  -1   6   5    0.23    0.38
  -1   6   5   -0.23    0.35
   0  -6  -5   15.60    0.88
   0  -6  -5   15.96    1.05
   0  -6  -5   16.32    0.84
   0  -6  -5   16.51    1.04
   0  -6  -5   15.91    1.22
   0   6   5   16.39    1.13
   0   6   5   16.24    1.11
   0   6   5   18.12    0.96
   0   6   5   15.83    1.18
   0   6   5   15.48    0.97
  -1  -6  -5   41.67    1.80
  -1  -6  -5   40.45    2.04
  -1  -6  -5   37.60    2.18
  -1  -6  -5   38.95    2.16
  -1  -6  -5   41.29    1.90
   1   6   5   39.15    2.10
   1   6   5   40.40    2.08
   1   6   5   38.50    2.06
   1   6   5   39.62    2.21
   1   6   5   41.01    2.06
  -2  -6  -5   18.10    0.96
  -2  -6  -5   18.94    0.98
  -2  -6  -5   20.65    1.30
  -2  -6  -5   19.34    1.14
  -2  -6  -5   18.43    1.23
  -2  -6  -5   16.22    0.85
   2   6   5   18.06    1.17
   2   6   5   17.99    1.18
   2   6   5   18.95    1.13
   2   6   5   17.70    0.94
   2   6   5   17.86    1.02
   2   6   5   16.57    1.11
  -3  -6  -5    1.14    0.40
  -3  -6  -5    1.07    0.45
  -3  -6  -5   -0.25    0.26
  -3  -6  -5    0.43    0.15
  -3  -6  -5    0.50    0.18
   3   6   5    0.31    0.22
   3   6   5    0.37    0.15
   3   6   5    0.52    0.36
   3   6   5    0.24    0.33
   3   6   5    0.35    0.35
  -4  -6  -5    8.31    0.60
  -4  -6  -5    9.09    0.97
  -4  -6  -5    7.96    0.92
  -4  -6  -5    8.08    0.69
  -4  -6  -5    8.08    0.73
   4   6   5    9.08    0.87
   4   6   5    8.58    0.88
   4   6   5    7.79    0.84
   4   6   5    9.42    0.65
   4   6   5    8.47    0.74
  -5  -6  -5    4.53    0.61
  -5  -6  -5    4.06    0.47
  -5  -6  -5    4.01    0.55
  -5  -6  -5    4.40    0.71
   5   6   5    3.91    0.68
   5   6   5    4.81    0.67
   5   6   5    4.39    0.62
   5   6   5    4.75    0.50
  -6  -6  -5    2.38    0.47
  -6  -6  -5    1.78    0.66
  -6  -6  -5    1.97    0.48
  -6  -6  -5    2.67    0.46
   6   6   5    1.32    0.55
   6   6   5    1.95    0.37
   6   6   5    2.35    0.56
   6   6   5    1.95    0.47
  -7  -6  -5   -0.54    0.38
  -7  -6  -5   -0.56    0.64
  -7  -6  -5    0.18    0.42
  -7  -6  -5    0.41    0.41
   7   6   5    0.46    0.56
   7   6   5    0.12    0.40
   7   6   5    0.71    0.54
   7   6   5   -0.88    0.51
  -8  -6  -5   -0.18    0.42
  -8  -6  -5    0.87    0.60
  -8  -6  -5    0.51    0.50
  -8  -6  -5   -0.96    0.76
   8   6   5   -0.87    0.61
   8   6   5    0.03    0.67
   8   6   5   -0.41    0.52
  -9  -6  -5   -0.07    0.54
  -9  -6  -5    0.20    0.61
  -9  -6  -5    0.59    0.76
   9   6   5    0.25    0.74
   9   6   5   -1.29    0.81
 -10  -6  -5    0.70    0.81
 -10  -6  -5    0.96    0.71
 -10  -6  -5    0.21    1.00
  10   6   5    0.73    0.87
  10   6   5    0.03    1.04
   5  -7  -5   -0.09    0.69
  -5   7   5    0.38    0.64
  -5   7   5    0.41    0.94
   4  -7  -5   -0.10    0.51
   4  -7  -5    0.89    0.61
   4  -7  -5   -0.83    0.58
  -4   7   5    0.77    0.54
  -4   7   5    0.66    0.35
  -4   7   5   -0.58    0.79
   3  -7  -5   -0.60    0.44
   3  -7  -5    0.08    0.37
  -3   7   5    1.19    0.66
  -3   7   5   -0.03    0.46
  -3   7   5    0.21    0.66
  -3   7   5    0.40    0.29
   2  -7  -5    0.81    0.26
   2  -7  -5    0.61    0.43
   2  -7  -5    0.63    0.36
   2  -7  -5    0.90    0.30
  -2   7   5    0.96    0.46
  -2   7   5    1.19    0.55
  -2   7   5    0.34    0.53
  -2   7   5    0.88    0.29
   1  -7  -5    0.23    0.35
   1  -7  -5    0.39    0.31
   1  -7  -5    0.16    0.18
   1  -7  -5    0.39    0.29
  -1   7   5    0.40    0.41
  -1   7   5    0.92    0.51
  -1   7   5    0.01    0.43
  -1   7   5    0.04    0.27
   0  -7  -5   20.85    1.33
   0  -7  -5   22.18    1.14
   0  -7  -5   20.90    1.10
   0  -7  -5   20.32    1.34
   0  -7  -5   21.99    1.49
   0   7   5   23.49    1.49
   0   7   5   21.13    1.34
   0   7   5   21.13    1.37
  -1  -7  -5    1.20    0.22
  -1  -7  -5    1.34    0.41
  -1  -7  -5    1.44    0.20
  -1  -7  -5    0.68    0.56
  -1  -7  -5    1.54    0.39
   1   7   5    1.70    0.44
   1   7   5    1.34    0.36
   1   7   5    2.39    0.55
   1   7   5    1.61    0.35
   1   7   5    1.71    0.43
  -2  -7  -5    4.49    0.33
  -2  -7  -5    4.56    0.37
  -2  -7  -5    5.04    0.63
  -2  -7  -5    4.64    0.70
  -2  -7  -5    4.70    0.49
  -2  -7  -5    4.34    0.68
   2   7   5    4.99    0.64
   2   7   5    5.05    0.63
   2   7   5    4.42    0.59
   2   7   5    5.88    0.77
   2   7   5    4.88    0.68
  -3  -7  -5    0.30    0.17
  -3  -7  -5    0.22    0.54
  -3  -7  -5    0.24    0.32
  -3  -7  -5    0.77    0.49
  -3  -7  -5    0.03    0.14
  -3  -7  -5   -0.25    0.30
   3   7   5   -0.01    0.19
   3   7   5   -0.19    0.25
   3   7   5    0.72    0.39
   3   7   5    0.10    0.21
   3   7   5   -0.24    0.36
   3   7   5   -0.33    0.45
  -4  -7  -5    2.14    0.46
  -4  -7  -5    0.96    0.54
  -4  -7  -5    1.06    0.25
  -4  -7  -5    1.17    0.56
  -4  -7  -5    1.88    0.43
  -4  -7  -5    1.19    0.28
   4   7   5    1.14    0.31
   4   7   5    1.75    0.50
   4   7   5    1.17    0.17
   4   7   5    1.72    0.48
   4   7   5    1.35    0.16
   4   7   5    1.77    0.51
   4   7   5    1.61    0.29
  -5  -7  -5    0.20    0.28
  -5  -7  -5    0.56    0.35
  -5  -7  -5   -0.39    0.46
  -5  -7  -5    0.01    0.19
  -5  -7  -5    0.18    0.56
   5   7   5   -0.15    0.45
   5   7   5   -0.71    0.33
   5   7   5   -0.06    0.23
   5   7   5    0.69    0.44
  -6  -7  -5    3.76    0.56
  -6  -7  -5    4.24    0.83
   6   7   5    4.60    0.54
   6   7   5    4.42    0.71
   6   7   5    3.96    0.66
   6   7   5    3.23    0.74
  -7  -7  -5    1.47    0.50
  -7  -7  -5    2.37    0.59
  -7  -7  -5    2.01    0.44
  -7  -7  -5    2.67    0.94
   7   7   5    1.84    0.63
   7   7   5    2.06    0.62
   7   7   5    1.56    0.63
   7   7   5    3.00    0.42
  -8  -7  -5   -0.29    0.46
  -8  -7  -5   -0.29    0.49
  -8  -7  -5    0.35    0.56
   8   7   5   -1.15    0.69
   8   7   5   -0.89    0.64
   8   7   5    0.63    0.61
  -9  -7  -5    1.05    0.76
  -9  -7  -5    1.28    0.66
  -9  -7  -5    1.27    0.59
   9   7   5    3.04    0.90
   9   7   5    2.96    0.87
   5  -8  -5    4.67    1.06
  -5   8   5    2.90    0.91
  -5   8   5    3.13    1.30
   4  -8  -5    1.45    0.82
   4  -8  -5    1.96    0.70
  -4   8   5   -0.85    0.60
  -4   8   5    0.05    0.88
   3  -8  -5    0.91    0.59
   3  -8  -5   -0.50    0.58
   3  -8  -5    0.34    0.48
  -3   8   5   -0.74    0.58
  -3   8   5    0.68    0.46
  -3   8   5    1.55    0.76
  -3   8   5   -1.62    0.87
   2  -8  -5    2.38    0.54
   2  -8  -5    1.42    0.37
   2  -8  -5    2.55    0.36
   2  -8  -5    1.49    0.38
   2  -8  -5    2.78    0.53
   2  -8  -5    1.25    0.55
  -2   8   5    2.16    0.45
  -2   8   5    1.58    0.81
  -2   8   5    1.98    0.59
  -2   8   5    0.81    0.69
   1  -8  -5    0.35    0.24
   1  -8  -5    0.32    0.36
   1  -8  -5   -0.23    0.38
   1  -8  -5   -0.05    0.44
  -1   8   5    0.41    0.67
  -1   8   5    0.03    0.38
  -1   8   5    0.12    0.51
  -1   8   5    0.25    0.43
   0  -8  -5    3.38    0.44
   0  -8  -5    3.57    0.56
   0  -8  -5    3.37    0.57
   0  -8  -5    3.28    0.35
   0   8   5    3.31    0.53
   0   8   5    3.45    0.69
   0   8   5    3.40    0.65
  -1  -8  -5    4.75    0.46
  -1  -8  -5    5.46    0.72
  -1  -8  -5    5.00    0.39
  -1  -8  -5    5.52    0.71
  -1  -8  -5    3.47    0.84
   1   8   5    4.43    0.66
   1   8   5    4.37    0.67
   1   8   5    5.08    0.75
  -2  -8  -5   18.19    0.91
  -2  -8  -5   17.89    1.03
  -2  -8  -5   17.43    0.96
  -2  -8  -5   16.98    1.51
  -2  -8  -5   20.06    1.27
  -2  -8  -5   18.33    1.40
   2   8   5   17.49    1.27
   2   8   5   17.55    1.34
   2   8   5   17.68    1.26
   2   8   5   16.69    1.27
  -3  -8  -5    2.03    0.67
  -3  -8  -5    2.82    0.34
  -3  -8  -5    2.24    0.25
  -3  -8  -5    2.81    0.53
  -3  -8  -5    1.03    0.64
  -3  -8  -5    2.07    0.28
  -3  -8  -5    2.90    0.48
   3   8   5    2.30    0.62
   3   8   5    1.68    0.54
   3   8   5    1.45    0.39
   3   8   5    2.66    0.58
  -4  -8  -5    1.92    0.47
  -4  -8  -5    1.22    0.25
  -4  -8  -5    0.73    0.69
  -4  -8  -5    1.25    0.29
  -4  -8  -5    0.87    0.41
   4   8   5    1.20    0.33
   4   8   5    0.95    0.21
   4   8   5    1.35    0.34
   4   8   5    1.02    0.28
   4   8   5    1.39    0.52
  -5  -8  -5    1.24    0.74
  -5  -8  -5    0.90    0.43
  -5  -8  -5    1.78    0.59
   5   8   5    1.53    0.60
   5   8   5    1.45    0.31
   5   8   5    0.96    0.27
   5   8   5    1.58    0.44
   5   8   5    1.85    0.69
  -6  -8  -5    0.52    0.38
  -6  -8  -5    0.20    0.25
  -6  -8  -5   -0.01    0.39
  -6  -8  -5   -1.31    0.73
   6   8   5   -0.45    0.59
   6   8   5    0.67    0.55
   6   8   5   -0.03    0.19
   6   8   5    0.11    0.45
  -7  -8  -5    0.28    0.47
  -7  -8  -5    0.75    0.36
  -7  -8  -5    0.17    0.87
  -7  -8  -5    1.34    0.51
   7   8   5    1.46    0.74
   7   8   5    1.07    0.56
   7   8   5    1.37    0.70
  -8  -8  -5    0.47    0.56
  -8  -8  -5    0.97    0.61
  -8  -8  -5   -0.26    0.44
   8   8   5    1.35    0.73
   8   8   5   -0.92    0.78
   8   8   5    0.25    0.60
  -9  -8  -5    2.26    0.77
  -9  -8  -5    1.85    0.68
  -9  -8  -5    1.49    0.64
   9   8   5    0.49    0.86
   9   8   5    2.59    0.89
   4  -9  -5    1.44    0.92
  -4   9   5   -0.60    0.89
  -4   9   5   -0.70    1.04
   3  -9  -5    1.80    0.68
  -3   9   5    1.64    0.76
  -3   9   5    0.94    0.98
   2  -9  -5   -0.76    0.65
   2  -9  -5   -0.55    0.41
   2  -9  -5    0.01    0.45
   2  -9  -5    0.38    0.33
  -2   9   5    0.65    0.73
  -2   9   5    0.26    0.66
   1  -9  -5    4.13    0.56
   1  -9  -5    2.90    0.72
   1  -9  -5    2.69    0.62
   1  -9  -5    2.20    0.52
  -1   9   5    3.80    0.85
  -1   9   5    2.49    0.71
   0  -9  -5    1.29    0.60
   0  -9  -5    0.94    0.39
   0  -9  -5    0.54    0.25
   0  -9  -5    0.42    0.53
   0   9   5    0.75    0.56
   0   9   5   -0.43    0.54
   0   9   5    0.02    0.59
  -1  -9  -5   -0.50    0.59
  -1  -9  -5    0.46    0.20
  -1  -9  -5    0.76    0.28
  -1  -9  -5    0.18    0.30
   1   9   5    0.40    0.50
   1   9   5    1.44    0.58
   1   9   5   -0.17    0.55
  -2  -9  -5    0.13    0.23
  -2  -9  -5    0.53    0.18
   2   9   5   -0.23    0.52
   2   9   5    0.70    0.44
  -3  -9  -5    0.62    0.79
  -3  -9  -5    0.17    0.17
  -3  -9  -5   -0.03    0.43
  -3  -9  -5   -0.21    0.16
  -3  -9  -5    0.09    0.43
   3   9   5   -0.11    0.54
   3   9   5    0.23    0.38
   3   9   5   -0.69    0.51
  -4  -9  -5   -0.57    0.55
  -4  -9  -5    0.17    0.15
  -4  -9  -5    0.35    0.45
  -4  -9  -5    0.31    0.25
  -4  -9  -5    0.15    0.17
  -4  -9  -5   -0.89    0.85
   4   9   5    0.23    0.28
   4   9   5   -0.82    0.53
   4   9   5   -0.71    0.32
   4   9   5    0.29    0.56
  -5  -9  -5    1.11    0.70
  -5  -9  -5   -0.12    0.88
  -5  -9  -5    1.14    0.49
  -5  -9  -5    0.77    0.24
  -5  -9  -5    0.15    0.29
   5   9   5    0.42    0.22
   5   9   5   -0.67    0.65
   5   9   5    0.65    0.59
  -6  -9  -5    0.56    0.29
  -6  -9  -5    0.35    1.02
  -6  -9  -5    0.92    0.50
  -6  -9  -5    0.20    0.39
   6   9   5    0.98    0.46
   6   9   5    0.33    0.69
   6   9   5   -0.21    0.65
  -7  -9  -5    0.30    0.55
  -7  -9  -5    1.17    0.53
  -7  -9  -5    0.93    0.37
   7   9   5   -0.11    0.70
   7   9   5    0.70    0.60
   7   9   5    2.51    0.87
  -8  -9  -5    0.33    0.50
  -8  -9  -5   -0.23    0.60
  -8  -9  -5    0.53    0.61
   8   9   5   -0.16    0.83
   8   9   5   -0.33    0.68
  -9  -9  -5    0.96    0.85
  -9  -9  -5    1.17    0.73
  -9  -9  -5    1.36    0.63
   9   9   5    0.85    0.83
   9   9   5    0.88    1.07
   2 -10  -5    0.99    0.65
   2 -10  -5   -1.04    0.83
   2 -10  -5   -0.23    0.53
  -2  10   5    1.56    0.87
  -2  10   5    1.19    0.93
  -2  10   5    0.98    1.03
   1 -10  -5    0.07    0.41
   1 -10  -5   -0.17    0.47
   1 -10  -5    0.56    0.60
   1 -10  -5    0.72    0.72
  -1  10   5   -0.82    0.79
  -1  10   5   -0.20    0.72
  -1  10   5   -0.95    0.79
   0 -10  -5    1.21    0.78
   0 -10  -5   -0.19    0.63
   0 -10  -5    0.90    0.48
   0 -10  -5    0.36    0.30
   0  10   5   -0.46    0.63
   0  10   5    0.60    0.78
   0  10   5    0.63    0.72
  -1 -10  -5    0.60    0.26
  -1 -10  -5    0.76    0.40
  -1 -10  -5    0.85    0.61
   1  10   5    0.70    0.70
   1  10   5    0.27    0.61
   1  10   5    1.21    0.64
  -2 -10  -5    0.82    0.24
  -2 -10  -5    1.57    0.61
  -2 -10  -5    1.12    0.35
  -2 -10  -5    1.82    0.52
   2  10   5    1.65    0.58
   2  10   5    0.44    0.73
   2  10   5    1.22    0.73
  -3 -10  -5    0.20    0.58
  -3 -10  -5    0.13    0.52
  -3 -10  -5    0.84    0.27
   3  10   5    0.78    0.47
   3  10   5   -0.01    0.75
  -4 -10  -5    0.54    0.53
  -4 -10  -5   -0.05    0.67
  -4 -10  -5   -0.15    0.19
  -4 -10  -5   -0.06    0.25
   4  10   5    0.42    0.37
   4  10   5   -0.08    0.65
   4  10   5    0.05    0.69
  -5 -10  -5   -2.17    1.14
  -5 -10  -5    0.72    0.20
  -5 -10  -5    0.46    0.33
  -5 -10  -5    0.43    0.24
  -5 -10  -5   -0.01    0.53
   5  10   5    1.76    0.82
   5  10   5    0.43    0.70
  -6 -10  -5    0.14    0.37
  -6 -10  -5    0.57    0.54
  -6 -10  -5   -0.13    0.27
   6  10   5    0.22    0.74
   6  10   5   -0.49    0.74
  -7 -10  -5    7.92    0.80
  -7 -10  -5    7.46    0.96
  -7 -10  -5    8.26    1.03
   7  10   5    9.46    1.33
   7  10   5    8.32    1.16
  -8 -10  -5    0.93    0.70
  -8 -10  -5    0.62    0.64
  -8 -10  -5   -0.18    0.44
   8  10   5   -0.35    0.71
   8  10   5    0.89    1.05
   1 -11  -5    2.05    0.98
   1 -11  -5    1.78    0.58
  -1  11   5    0.82    0.98
  -1  11   5    1.98    1.15
  -1  11   5    3.44    1.25
   0 -11  -5    0.95    0.63
   0 -11  -5   -0.13    0.81
   0 -11  -5   -0.19    0.40
   0  11   5   -0.24    0.89
   0  11   5    1.92    1.08
   0  11   5   -0.96    0.83
  -1 -11  -5   -0.13    0.75
  -1 -11  -5   -0.03    0.30
  -1 -11  -5    0.29    0.49
   1  11   5   -0.26    0.82
   1  11   5    0.09    0.92
  -2 -11  -5   -0.30    0.42
  -2 -11  -5    0.32    0.72
  -2 -11  -5    0.29    0.29
   2  11   5   -0.50    0.76
   2  11   5    0.40    0.93
   2  11   5   -0.29    0.67
  -3 -11  -5   -0.07    0.24
  -3 -11  -5   -0.34    0.66
  -3 -11  -5    0.52    0.35
   3  11   5    0.51    0.57
   3  11   5   -0.14    0.78
   3  11   5    0.48    0.93
  -4 -11  -5   -0.91    0.65
  -4 -11  -5    0.21    0.27
  -4 -11  -5    0.21    0.29
   4  11   5   -1.84    0.83
   4  11   5    0.22    0.83
  -5 -11  -5    0.76    0.27
  -5 -11  -5    0.75    0.34
  -5 -11  -5    0.74    0.68
   5  11   5    0.00    0.95
  -6 -11  -5    0.25    0.27
  -6 -11  -5    0.20    0.29
  -6 -11  -5    0.12    0.43
  -6 -11  -5    0.57    0.70
   6  11   5   -0.89    0.92
   6  11   5   -0.03    0.96
  -7 -11  -5    2.33    0.82
  -7 -11  -5    1.23    0.39
  -7 -11  -5    0.70    0.56
   7  11   5   -0.63    0.99
  -1 -12  -5    0.70    0.47
  -1 -12  -5   -1.49    0.92
   1  12   5   -0.68    1.12
   1  12   5    0.10    1.02
  -2 -12  -5    0.53    0.93
  -2 -12  -5   -0.26    0.36
   2  12   5    0.05    1.03
   2  12   5   -0.98    1.12
  -3 -12  -5    3.82    0.52
  -3 -12  -5    4.28    0.98
   3  12   5    3.87    1.07
   3  12   5    4.92    1.26
  -4 -12  -5    0.95    0.87
  -4 -12  -5   -0.05    0.34
   4  12   5   -0.33    1.03
   4  12   5    0.14    1.13
  -5 -12  -5   -0.71    0.79
  -5 -12  -5    0.44    0.39
   5  12   5   -2.58    1.08
   5  12   5   -0.13    1.03
   3  10  -6    2.94    1.14
  -3 -10   6   -0.39    0.95
  -3 -10   6    2.06    0.61
  -3 -10   6    1.24    0.74
   2  10  -6    1.58    1.10
  -2 -10   6    1.07    0.60
  -2 -10   6   -0.45    0.88
  -2 -10   6    0.80    0.81
   1  10  -6   -0.66    1.08
  -1 -10   6    2.11    0.73
  -1 -10   6   -0.91    0.98
  -1 -10   6    0.72    0.72
   5   9  -6    0.99    0.91
  -5  -9   6    1.49    0.78
  -5  -9   6    0.09    0.70
  -5  -9   6    1.37    0.41
   4   9  -6   -0.43    0.82
  -4  -9   6    0.61    0.71
  -4  -9   6    0.89    0.37
  -4  -9   6    0.14    0.67
   3   9  -6    3.88    0.98
  -3  -9   6    3.46    0.75
  -3  -9   6    3.11    0.53
  -3  -9   6    2.82    0.82
   2   9  -6    3.16    0.96
  -2  -9   6    3.88    0.59
  -2  -9   6    1.38    0.67
  -2  -9   6    3.53    0.85
   1   9  -6   -0.05    0.92
   1   9  -6    0.25    0.81
  -1  -9   6   -0.37    0.47
  -1  -9   6    0.48    0.57
  -1  -9   6    0.92    0.78
   0   9  -6   -0.52    0.93
   0   9  -6    0.65    0.90
   0  -9   6    0.38    0.59
   0  -9   6    0.00    0.60
   0  -9   6    1.33    0.91
  -1   9  -6    0.88    0.98
  -1   9  -6    3.13    1.04
   1  -9   6    1.97    0.66
   1  -9   6    2.84    1.09
   1  -9   6    1.85    0.76
   1  -9   6    1.56    0.67
  -2   9  -6    2.28    1.28
  -2   9  -6    0.50    0.84
  -2   9  -6    0.30    1.14
   2  -9   6    0.61    0.73
   2  -9   6    0.77    0.72
   2  -9   6   -0.02    1.22
   6   8  -6   -1.75    0.82
  -6  -8   6   -0.18    0.30
  -6  -8   6    0.73    0.75
  -6  -8   6   -0.06    0.48
   5   8  -6    0.57    0.77
  -5  -8   6   -0.02    0.51
  -5  -8   6    0.08    0.27
  -5  -8   6    0.88    0.68
   4   8  -6    4.85    0.89
  -4  -8   6    2.97    0.42
  -4  -8   6    3.81    0.74
  -4  -8   6    3.98    0.70
   3   8  -6    0.52    0.73
   3   8  -6    1.54    0.63
  -3  -8   6    1.30    0.57
  -3  -8   6    1.88    0.62
  -3  -8   6    0.61    0.79
  -3  -8   6    0.66    0.32
   2   8  -6    1.37    0.77
   2   8  -6    1.65    0.68
  -2  -8   6    1.28    0.50
  -2  -8   6    2.00    0.41
  -2  -8   6    0.52    0.61
  -2  -8   6    1.28    0.83
   1   8  -6   -0.95    0.65
   1   8  -6    0.23    0.63
  -1  -8   6   -1.78    0.77
  -1  -8   6   -0.08    0.37
  -1  -8   6   -0.09    0.64
  -1  -8   6    1.38    0.51
  -1  -8   6   -0.81    0.99
   0   8  -6   -0.11    0.74
   0   8  -6    0.90    0.68
   0  -8   6    0.61    0.46
   0  -8   6    0.69    0.91
   0  -8   6   -0.65    0.43
   0  -8   6    0.74    0.73
  -1   8  -6    1.37    0.84
  -1   8  -6    0.43    0.80
   1  -8   6   -0.26    0.51
   1  -8   6   -0.01    0.47
   1  -8   6    0.36    0.42
   1  -8   6    0.49    0.84
  -2   8  -6    1.33    1.04
  -2   8  -6    1.86    0.86
  -2   8  -6    0.39    0.65
   2  -8   6   -0.75    0.85
   2  -8   6    0.68    0.54
   2  -8   6   -0.29    0.58
  -3   8  -6   -0.40    0.82
  -3   8  -6   -2.10    0.98
  -3   8  -6   -0.91    0.97
   3  -8   6   -0.17    1.12
   3  -8   6    0.84    0.68
   7   7  -6   -0.62    0.87
  -7  -7   6    1.29    0.78
  -7  -7   6    0.79    0.30
   6   7  -6    0.73    0.69
  -6  -7   6    0.01    0.23
  -6  -7   6    0.16    0.61
  -6  -7   6    0.47    0.65
   5   7  -6    0.49    0.67
  -5  -7   6    0.41    0.86
  -5  -7   6    0.91    0.24
  -5  -7   6    1.08    0.58
   4   7  -6    1.92    0.69
   4   7  -6    1.56    0.44
  -4  -7   6    1.33    0.27
  -4  -7   6    0.64    0.63
  -4  -7   6    2.00    0.56
  -4  -7   6    3.04    0.74
  -4  -7   6    1.55    0.51
  -4  -7   6    1.20    0.51
   3   7  -6    0.92    0.57
   3   7  -6    1.01    0.51
  -3  -7   6    0.83    0.55
  -3  -7   6    1.78    0.62
  -3  -7   6    0.49    0.48
  -3  -7   6    0.86    0.25
  -3  -7   6    1.49    0.49
  -3  -7   6    0.38    0.58
   2   7  -6    4.37    0.80
   2   7  -6    2.75    0.56
  -2  -7   6    3.11    0.64
  -2  -7   6    3.71    0.60
  -2  -7   6    3.34    0.43
  -2  -7   6    2.59    0.63
  -2  -7   6    3.78    0.76
   1   7  -6    0.21    0.54
   1   7  -6    0.05    0.49
  -1  -7   6    1.59    0.56
  -1  -7   6    0.18    0.41
  -1  -7   6    0.61    0.58
  -1  -7   6    0.99    0.74
  -1  -7   6   -0.03    0.29
   0   7  -6    0.59    0.63
   0   7  -6    0.62    0.58
   0  -7   6    0.14    0.85
   0  -7   6   -0.28    0.35
   0  -7   6   -0.29    0.67
   0  -7   6    0.44    0.57
  -1   7  -6    0.43    0.14
  -1   7  -6    0.44    0.11
  -1   7  -6    0.14    0.61
  -1   7  -6    0.53    0.66
  -1   7  -6    0.30    0.27
   1  -7   6    0.77    0.41
   1  -7   6   -1.09    0.79
   1  -7   6    0.62    0.44
   1  -7   6   -0.05    0.80
   1  -7   6   -0.03    0.65
   1  -7   6    0.76    0.34
  -2   7  -6    0.27    0.54
  -2   7  -6   -0.25    0.40
  -2   7  -6   -0.15    0.77
   2  -7   6    0.01    0.41
   2  -7   6    0.55    0.82
   2  -7   6   -0.90    0.71
   2  -7   6    0.19    0.46
  -3   7  -6    0.61    0.79
  -3   7  -6   -0.82    0.65
  -3   7  -6    0.90    0.91
  -3   7  -6    1.17    0.63
   3  -7   6   -0.15    0.52
   3  -7   6    0.10    0.84
   3  -7   6    0.47    0.52
  -4   7  -6   -1.47    0.94
  -4   7  -6    1.84    0.88
  -4   7  -6   -0.95    0.80
   4  -7   6    2.34    1.07
   4  -7   6   -0.22    0.63
  -5   7  -6   -0.75    1.15
  -5   7  -6   -2.82    1.00
  -5   7  -6    1.84    0.99
   5  -7   6    1.72    0.92
   5  -7   6   -0.15    0.83
   5  -7   6   -0.54    1.31
   7   6  -6    1.11    0.83
  -7  -6   6    2.12    0.69
  -7  -6   6    2.21    0.73
   6   6  -6    0.62    0.68
  -6  -6   6   -0.45    0.54
  -6  -6   6    0.22    0.50
  -6  -6   6   -0.13    0.21
   5   6  -6    0.64    0.52
  -5  -6   6    0.58    0.19
  -5  -6   6    0.03    0.52
  -5  -6   6    0.13    0.32
  -5  -6   6    0.97    0.48
  -5  -6   6    0.26    0.69
  -5  -6   6    0.77    0.36
   4   6  -6    0.38    0.52
   4   6  -6   -0.05    0.30
   4   6  -6    0.50    0.31
   4   6  -6   -0.25    0.49
  -4  -6   6    0.97    0.46
  -4  -6   6   -0.18    0.48
  -4  -6   6    0.19    0.17
  -4  -6   6    0.67    0.37
  -4  -6   6    0.18    0.34
  -4  -6   6   -0.16    0.52
   3   6  -6   -0.21    0.33
   3   6  -6    0.05    0.51
   3   6  -6   -0.29    0.26
   3   6  -6   -0.46    0.43
  -3  -6   6    0.31    0.45
  -3  -6   6   -0.02    0.38
  -3  -6   6    0.17    0.17
  -3  -6   6   -0.70    0.34
  -3  -6   6    0.08    0.45
  -3  -6   6   -0.21    0.34
   2   6  -6    0.53    0.40
   2   6  -6   -0.40    0.35
   2   6  -6    0.26    0.20
  -2  -6   6    0.56    0.48
  -2  -6   6   -0.68    0.38
  -2  -6   6    0.13    0.20
  -2  -6   6   -0.31    0.48
   1   6  -6    1.01    0.41
   1   6  -6    0.95    0.19
   1   6  -6    0.41    0.27
  -1  -6   6    1.24    0.66
  -1  -6   6    0.68    0.55
  -1  -6   6    0.85    0.28
   0   6  -6    5.46    0.53
   0   6  -6    8.03    0.90
   0   6  -6    5.85    0.37
   0  -6   6    4.55    0.80
   0  -6   6    5.64    0.77
   0  -6   6    4.67    0.63
   0  -6   6    4.66    0.82
  -1   6  -6    0.71    0.53
  -1   6  -6    0.46    0.23
  -1   6  -6    0.86    0.52
   1  -6   6    1.37    0.57
   1  -6   6    0.64    0.73
   1  -6   6    1.24    0.28
   1  -6   6    1.33    0.63
   1  -6   6    0.54    0.37
   1  -6   6    1.59    0.65
  -2   6  -6    0.28    0.64
  -2   6  -6   -0.78    0.58
  -2   6  -6    0.51    0.47
  -2   6  -6   -0.04    0.35
   2  -6   6    0.53    0.43
   2  -6   6    0.10    0.59
   2  -6   6    0.84    0.34
   2  -6   6    1.22    0.64
   2  -6   6    0.94    0.72
  -3   6  -6    0.34    0.54
  -3   6  -6   -0.35    0.64
  -3   6  -6    0.60    0.71
  -3   6  -6   -0.88    0.47
   3  -6   6    1.13    0.71
   3  -6   6    0.06    0.43
   3  -6   6    0.87    0.59
   3  -6   6    0.31    0.41
  -4   6  -6    1.15    0.69
  -4   6  -6    0.14    0.72
  -4   6  -6    0.90    0.68
   4  -6   6    0.04    0.56
   4  -6   6    0.59    0.88
   4  -6   6   -0.13    0.52
  -5   6  -6    2.66    0.98
  -5   6  -6    0.30    0.77
  -5   6  -6    0.65    0.86
   5  -6   6   -0.84    0.72
   5  -6   6    0.69    1.09
   5  -6   6    0.30    0.65
  -6   6  -6   -0.14    1.20
  -6   6  -6   -0.71    0.95
   6  -6   6   -1.40    0.94
   6  -6   6    0.25    1.32
   6  -6   6    1.53    0.92
  -8  -5   6    3.02    0.71
  -7  -5   6   -0.26    0.25
  -7  -5   6    1.50    0.67
  -7  -5   6   -0.58    0.54
   6   5  -6    1.80    0.65
  -6  -5   6    2.06    0.56
  -6  -5   6    2.68    0.65
  -6  -5   6    3.01    0.36
  -6  -5   6    2.58    0.35
  -6  -5   6    3.16    0.40
  -6  -5   6    3.20    0.81
   5   5  -6    0.28    0.51
  -5  -5   6    0.62    0.57
  -5  -5   6    0.15    0.15
  -5  -5   6    0.45    0.47
  -5  -5   6    0.49    0.21
  -5  -5   6    0.10    0.18
   4   5  -6    7.90    0.70
   4   5  -6    7.24    0.52
   4   5  -6    7.39    0.57
  -4  -5   6    9.29    0.92
  -4  -5   6    8.25    0.67
  -4  -5   6    6.88    0.47
  -4  -5   6    6.94    0.84
  -4  -5   6    6.87    0.62
  -4  -5   6    7.42    0.83
   3   5  -6   -0.15    0.40
   3   5  -6   -0.26    0.27
   3   5  -6   -0.24    0.32
  -3  -5   6    0.44    0.35
  -3  -5   6    0.19    0.31
  -3  -5   6   -0.22    0.41
  -3  -5   6   -0.23    0.28
  -3  -5   6   -0.06    0.13
  -3  -5   6    0.32    0.32
  -3  -5   6    0.18    0.41
   2   5  -6   -0.03    0.30
   2   5  -6    0.15    0.25
   2   5  -6   -0.06    0.42
   2   5  -6    0.19    0.19
  -2  -5   6   -0.05    0.30
  -2  -5   6    0.45    0.29
  -2  -5   6   -0.14    0.28
  -2  -5   6   -0.10    0.59
  -2  -5   6    0.07    0.15
  -2  -5   6   -0.06    0.31
   1   5  -6    6.05    0.82
   1   5  -6    6.11    0.71
   1   5  -6    6.58    0.44
   1   5  -6    7.15    0.72
   1   5  -6    7.56    0.55
  -1  -5   6    6.71    0.69
  -1  -5   6    7.17    0.94
  -1  -5   6    7.12    0.79
  -1  -5   6    7.24    0.72
  -1  -5   6    8.07    0.57
  -1  -5   6    6.14    0.83
   0   5  -6    0.02    0.42
   0   5  -6    0.51    0.35
   0   5  -6    0.12    0.40
   0   5  -6    0.41    0.19
   0   5  -6    0.30    0.11
   0  -5   6    0.17    0.25
   0  -5   6   -0.04    0.24
   0  -5   6   -0.07    0.38
   0  -5   6    0.18    0.42
   0  -5   6    0.55    0.47
   0  -5   6    0.47    0.50
  -1   5  -6    0.76    0.47
  -1   5  -6    0.04    0.40
  -1   5  -6    0.03    0.16
  -1   5  -6   -0.04    0.18
  -1   5  -6    0.02    0.48
   1  -5   6    0.60    0.47
   1  -5   6    0.03    0.28
   1  -5   6    0.64    0.46
   1  -5   6   -0.02    0.44
   1  -5   6    0.36    0.20
   1  -5   6   -0.20    0.29
   1  -5   6   -0.55    0.53
  -2   5  -6    3.14    0.61
  -2   5  -6    2.42    0.33
  -2   5  -6    2.52    0.62
  -2   5  -6    2.91    0.42
  -2   5  -6    3.49    0.59
  -2   5  -6    2.49    0.66
   2  -5   6    3.62    0.58
   2  -5   6    3.65    0.59
   2  -5   6    2.94    0.39
   2  -5   6    3.39    0.79
   2  -5   6    2.74    0.69
   2  -5   6    3.48    0.70
  -3   5  -6    1.83    0.48
  -3   5  -6    1.26    0.57
  -3   5  -6    1.63    0.51
  -3   5  -6    2.55    0.76
   3  -5   6   -0.13    0.70
   3  -5   6    1.47    0.39
   3  -5   6    1.11    0.50
   3  -5   6    1.77    0.47
  -4   5  -6    0.04    0.54
  -4   5  -6    0.61    0.53
  -4   5  -6    0.02    0.59
   4  -5   6    0.08    0.47
   4  -5   6    0.17    0.68
   4  -5   6    1.20    0.45
  -5   5  -6    0.14    0.60
  -5   5  -6   -0.12    0.73
   5  -5   6    0.35    0.60
   5  -5   6    0.06    0.58
   5  -5   6    1.22    0.85
  -6   5  -6    2.36    0.99
  -6   5  -6    1.23    0.92
  -6   5  -6    0.15    0.78
   6  -5   6    0.63    0.74
   6  -5   6   -0.45    1.07
   6  -5   6   -1.31    0.70
  -8  -4   6    2.83    0.93
  -8  -4   6    1.71    0.87
  -8  -4   6    1.72    0.41
  -8  -4   6    1.83    0.62
  -7  -4   6    0.00    0.64
  -7  -4   6    0.52    0.27
  -7  -4   6    0.53    0.52
   6   4  -6    0.26    0.54
  -6  -4   6    0.40    0.39
  -6  -4   6    0.35    0.19
  -6  -4   6   -0.06    0.37
  -6  -4   6   -0.54    0.62
  -6  -4   6    0.18    0.51
   5   4  -6    5.13    0.62
  -5  -4   6    3.09    0.30
  -5  -4   6    3.69    0.52
  -5  -4   6    2.76    0.32
  -5  -4   6    3.16    0.57
  -5  -4   6    3.25    0.38
   4   4  -6    0.31    0.17
   4   4  -6    0.00    0.37
   4   4  -6    0.24    0.30
   4   4  -6    0.13    0.14
  -4  -4   6    0.62    0.38
  -4  -4   6    0.16    0.62
  -4  -4   6    0.17    0.30
  -4  -4   6    0.83    0.47
  -4  -4   6    0.39    0.26
  -4  -4   6    0.25    0.11
  -4  -4   6    0.10    0.20
   3   4  -6   -0.47    0.26
   3   4  -6   -0.17    0.22
   3   4  -6    0.17    0.38
   3   4  -6   -0.15    0.21
   3   4  -6   -0.33    0.21
  -3  -4   6    0.01    0.24
  -3  -4   6   -0.13    0.28
  -3  -4   6    0.30    0.37
  -3  -4   6    0.15    0.34
  -3  -4   6    0.11    0.26
  -3  -4   6    0.10    0.11
  -3  -4   6   -0.11    0.48
  -3  -4   6    0.51    0.24
   2   4  -6    0.62    0.23
   2   4  -6   -0.12    0.40
   2   4  -6    0.48    0.28
   2   4  -6    0.44    0.19
   2   4  -6   -0.16    0.24
   2   4  -6    0.13    0.36
  -2  -4   6    0.38    0.30
  -2  -4   6    0.07    0.27
  -2  -4   6    0.33    0.26
  -2  -4   6    0.16    0.43
  -2  -4   6    0.28    0.13
  -2  -4   6    0.25    0.22
  -2  -4   6    0.40    0.34
   1   4  -6    2.51    0.29
   1   4  -6    1.76    0.44
   1   4  -6    2.43    0.38
   1   4  -6    2.33    0.48
   1   4  -6    2.03    0.23
   1   4  -6    1.75    0.39
  -1  -4   6    2.28    0.39
  -1  -4   6    3.65    0.57
  -1  -4   6    1.92    0.28
  -1  -4   6    2.12    0.28
  -1  -4   6    2.28    0.42
  -1  -4   6    2.10    0.44
  -1  -4   6    1.52    0.37
   0   4  -6   -0.49    0.32
   0   4  -6   -0.43    0.34
   0   4  -6   -0.19    0.09
   0   4  -6   -0.05    0.30
   0   4  -6    0.21    0.35
   0   4  -6    0.09    0.12
   0  -4   6   -0.32    0.21
   0  -4   6    0.37    0.32
   0  -4   6    0.05    0.35
   0  -4   6    0.01    0.33
   0  -4   6   -0.13    0.19
   0  -4   6    0.23    0.41
  -1   4  -6    0.14    0.41
  -1   4  -6    0.33    0.16
  -1   4  -6    0.08    0.36
  -1   4  -6    0.42    0.34
  -1   4  -6    0.23    0.37
  -1   4  -6    0.56    0.15
   1  -4   6    0.67    0.41
   1  -4   6    0.30    0.28
   1  -4   6    0.43    0.41
   1  -4   6    0.23    0.17
   1  -4   6    1.12    0.38
   1  -4   6    0.24    0.47
  -2   4  -6   10.68    0.92
  -2   4  -6   11.86    0.77
  -2   4  -6   11.23    0.97
  -2   4  -6    9.82    0.66
  -2   4  -6   11.18    1.00
  -2   4  -6   12.01    1.10
   2  -4   6   10.83    0.90
   2  -4   6   11.06    1.04
   2  -4   6   13.20    1.25
   2  -4   6   11.93    0.92
   2  -4   6   12.40    1.09
   2  -4   6   11.05    0.71
  -3   4  -6    7.15    0.83
  -3   4  -6    7.33    0.92
  -3   4  -6    8.51    1.04
  -3   4  -6    6.28    0.53
  -3   4  -6    7.14    0.76
  -3   4  -6    8.65    0.94
  -3   4  -6    7.57    0.86
   3  -4   6    7.23    0.78
   3  -4   6    7.41    0.66
   3  -4   6    7.38    0.72
   3  -4   6    8.29    1.00
   3  -4   6    8.43    0.94
  -4   4  -6    3.14    0.65
  -4   4  -6    3.71    0.71
  -4   4  -6    3.71    0.69
   4  -4   6    3.53    0.76
   4  -4   6    3.73    0.54
   4  -4   6    4.04    0.49
   4  -4   6    4.71    0.66
  -5   4  -6    2.11    0.73
  -5   4  -6    1.90    0.63
  -5   4  -6    0.98    0.63
   5  -4   6    2.42    0.55
   5  -4   6    1.69    0.55
  -6   4  -6   -0.89    0.83
  -6   4  -6   -0.02    0.68
  -6   4  -6   -0.32    0.67
   6  -4   6   -0.34    0.87
   6  -4   6    0.18    0.62
  -7   4  -6   -1.54    1.05
  -7   4  -6    1.89    0.96
  -7   4  -6   -0.74    0.79
   7  -4   6    1.22    0.79
   7  -4   6    3.43    1.12
   7  -4   6    1.43    1.25
   7  -4   6   -0.90    0.81
  -8  -3   6    0.45    0.84
  -8  -3   6    0.66    0.51
  -8  -3   6    0.56    0.37
  -7  -3   6    0.29    0.69
  -7  -3   6    0.63    0.43
  -7  -3   6   -0.04    0.57
  -7  -3   6    0.33    0.27
  -6  -3   6    0.63    0.57
  -6  -3   6    0.18    0.18
  -6  -3   6    1.27    0.56
  -6  -3   6    0.32    0.42
  -6  -3   6    0.02    0.34
   5   3  -6    4.25    0.72
   5   3  -6    4.22    0.60
  -5  -3   6    3.37    0.47
  -5  -3   6    3.93    0.57
  -5  -3   6    3.98    0.32
  -5  -3   6    3.53    0.47
  -5  -3   6    3.29    0.68
   4   3  -6   14.10    0.92
   4   3  -6   16.50    1.13
   4   3  -6   13.29    0.60
  -4  -3   6   13.21    0.75
  -4  -3   6   10.00    1.12
  -4  -3   6   14.08    1.02
  -4  -3   6   12.27    0.66
  -4  -3   6   14.38    0.84
  -4  -3   6   12.72    1.17
  -4  -3   6   13.17    0.93
  -4  -3   6   12.69    0.70
  -4  -3   6   11.95    0.91
  -4  -3   6   13.95    0.68
   3   3  -6    1.55    0.23
   3   3  -6    1.02    0.27
   3   3  -6    1.35    0.23
   3   3  -6    1.57    0.41
  -3  -3   6    1.53    0.15
  -3  -3   6    1.07    0.24
  -3  -3   6    1.96    0.18
  -3  -3   6    1.34    0.47
  -3  -3   6    1.38    0.30
  -3  -3   6    0.74    0.28
  -3  -3   6    1.60    0.38
  -3  -3   6    1.14    0.28
  -3  -3   6    1.33    0.18
   2   3  -6    0.77    0.24
   2   3  -6    0.80    0.36
   2   3  -6    1.24    0.37
   2   3  -6    0.58    0.20
   2   3  -6    0.92    0.20
   2   3  -6    1.26    0.27
  -2  -3   6    0.65    0.24
  -2  -3   6    0.69    0.20
  -2  -3   6    0.25    0.37
  -2  -3   6    1.47    0.35
  -2  -3   6    0.64    0.27
  -2  -3   6    0.83    0.46
  -2  -3   6    0.49    0.13
  -2  -3   6    0.68    0.26
   1   3  -6    4.99    0.53
   1   3  -6    4.76    0.60
   1   3  -6    4.95    0.60
   1   3  -6    4.96    0.36
   1   3  -6    4.53    0.54
   1   3  -6    4.68    0.35
  -1  -3   6    5.37    0.52
  -1  -3   6    5.42    0.34
  -1  -3   6    5.38    0.64
  -1  -3   6    5.06    0.58
  -1  -3   6    4.57    0.61
  -1  -3   6    5.04    0.39
   0   3  -6    5.98    0.35
   0   3  -6    5.98    0.67
   0   3  -6    5.17    0.60
   0   3  -6    6.20    0.37
   0   3  -6    6.26    0.61
   0   3  -6    6.42    0.64
   0  -3   6    6.31    0.56
   0  -3   6    5.79    0.60
   0  -3   6    5.38    0.62
   0  -3   6    6.61    0.63
   0  -3   6    4.38    0.64
   0  -3   6    5.29    0.47
  -1   3  -6    1.67    0.37
  -1   3  -6    2.19    0.40
  -1   3  -6    2.25    0.47
  -1   3  -6    1.90    0.21
  -1   3  -6    1.96    0.26
  -1   3  -6    2.07    0.44
   1  -3   6    1.74    0.43
   1  -3   6    2.44    0.39
   1  -3   6    1.93    0.37
   1  -3   6    2.84    0.42
   1  -3   6    1.98    0.44
  -2   3  -6    9.88    0.71
  -2   3  -6   10.46    0.94
  -2   3  -6   10.19    0.62
  -2   3  -6    9.34    0.94
  -2   3  -6   10.84    0.90
  -2   3  -6   11.43    0.85
   2  -3   6   10.81    0.91
   2  -3   6    9.73    0.64
   2  -3   6   11.27    0.78
   2  -3   6   11.58    0.95
   2  -3   6   12.41    0.87
   2  -3   6   10.79    0.98
  -3   3  -6   62.41    3.13
  -3   3  -6   65.17    3.36
  -3   3  -6   65.83    3.15
  -3   3  -6   56.89    2.98
  -3   3  -6   62.54    3.22
  -3   3  -6   65.73    3.31
  -3   3  -6   63.53    3.13
   3  -3   6   54.31    3.20
   3  -3   6   61.40    2.89
   3  -3   6   60.88    3.11
   3  -3   6   67.36    3.49
   3  -3   6   62.88    3.19
  -4   3  -6    2.45    0.53
  -4   3  -6    3.37    0.64
  -4   3  -6    1.89    0.58
  -4   3  -6    2.22    0.57
  -4   3  -6    2.82    0.51
   4  -3   6    2.27    0.37
   4  -3   6    2.31    0.65
   4  -3   6    2.49    0.49
   4  -3   6    2.93    0.65
   4  -3   6    2.90    0.45
  -5   3  -6    1.04    0.71
  -5   3  -6    1.54    0.59
  -5   3  -6    0.63    0.50
  -5   3  -6    0.48    0.46
  -5   3  -6    0.34    0.51
   5  -3   6    0.43    0.46
   5  -3   6    0.27    0.40
   5  -3   6    0.05    0.64
  -6   3  -6    0.57    0.64
  -6   3  -6    0.44    0.60
  -6   3  -6    0.50    0.68
   6  -3   6   -1.18    0.49
   6  -3   6    0.66    0.82
   6  -3   6    0.54    0.58
  -7   3  -6    1.21    0.82
  -7   3  -6    0.16    0.90
  -7   3  -6    1.40    0.76
   7  -3   6   -1.23    0.67
   7  -3   6    1.68    1.08
   7  -3   6    0.32    0.76
  -8   3  -6   -0.46    0.96
  -8   3  -6    0.09    0.98
  -8   3  -6    1.36    1.14
   8  -3   6    0.61    0.99
   8  -3   6    0.74    1.04
   8  -3   6   -1.97    1.32
  -8  -2   6   11.43    1.33
  -8  -2   6   13.32    1.64
  -7  -2   6    1.57    0.67
  -7  -2   6   -0.03    0.67
  -7  -2   6    0.32    0.30
  -7  -2   6   -0.19    0.34
   6   2  -6    0.11    0.46
  -6  -2   6    0.61    0.54
  -6  -2   6   -0.18    0.19
  -6  -2   6    0.03    0.46
  -6  -2   6   -0.11    0.29
  -6  -2   6    0.31    0.53
  -6  -2   6    0.34    0.68
   5   2  -6    1.51    0.46
  -5  -2   6    2.55    0.54
  -5  -2   6    1.72    0.35
  -5  -2   6    1.03    0.43
  -5  -2   6    1.71    0.30
  -5  -2   6    1.80    0.24
  -5  -2   6    2.08    0.42
  -5  -2   6    2.12    0.54
   4   2  -6   11.96    0.99
   4   2  -6   11.80    0.85
  -4  -2   6   11.83    0.68
  -4  -2   6   11.24    1.09
  -4  -2   6   13.19    1.07
  -4  -2   6   11.16    0.67
  -4  -2   6   12.74    0.66
  -4  -2   6   13.57    0.86
  -4  -2   6   12.06    0.61
  -4  -2   6   12.39    0.84
  -4  -2   6   12.40    0.94
   3   2  -6   11.74    0.89
   3   2  -6   11.23    0.65
   3   2  -6   10.97    0.74
   3   2  -6   10.52    0.62
   3   2  -6   11.87    0.93
  -3  -2   6   11.03    0.58
  -3  -2   6   10.82    0.95
  -3  -2   6   11.37    0.94
  -3  -2   6    9.47    0.76
  -3  -2   6   11.96    0.79
  -3  -2   6   13.17    0.58
  -3  -2   6   10.62    0.71
   2   2  -6    2.52    0.33
   2   2  -6    2.33    0.39
   2   2  -6    1.01    0.33
   2   2  -6    1.70    0.27
   2   2  -6    2.58    0.32
   2   2  -6    2.16    0.28
  -2  -2   6    2.04    0.20
  -2  -2   6    1.68    0.44
  -2  -2   6    2.30    0.26
  -2  -2   6    1.31    0.28
  -2  -2   6    2.28    0.35
  -2  -2   6    2.31    0.39
   1   2  -6    0.13    0.09
   1   2  -6    0.05    0.25
   1   2  -6    0.16    0.24
   1   2  -6    0.19    0.23
   1   2  -6   -0.01    0.22
   1   2  -6    0.28    0.12
  -1  -2   6   -0.03    0.13
  -1  -2   6   -0.24    0.26
  -1  -2   6    0.05    0.20
  -1  -2   6    0.31    0.26
  -1  -2   6    0.08    0.22
  -1  -2   6    0.31    0.26
  -1  -2   6    0.08    0.11
  -1  -2   6    0.16    0.06
  -1  -2   6    0.35    0.33
   0   2  -6    4.94    0.60
   0   2  -6    6.15    0.36
   0   2  -6    5.85    0.57
   0   2  -6    6.42    0.35
   0   2  -6    5.82    0.59
   0   2  -6    5.83    0.57
   0  -2   6    5.85    0.44
   0  -2   6    5.80    0.62
   0  -2   6    6.58    0.59
   0  -2   6    6.42    0.58
   0  -2   6    6.68    0.65
   0  -2   6    5.67    0.55
  -1   2  -6    0.39    0.26
  -1   2  -6    0.97    0.27
  -1   2  -6    0.30    0.27
  -1   2  -6    0.56    0.31
  -1   2  -6    0.44    0.13
   1  -2   6    0.26    0.29
   1  -2   6    0.52    0.21
   1  -2   6    0.73    0.26
   1  -2   6    0.51    0.23
   1  -2   6    0.32    0.28
   1  -2   6    0.19    0.30
  -2   2  -6    3.98    0.55
  -2   2  -6    4.39    0.35
  -2   2  -6    3.95    0.41
  -2   2  -6    4.46    0.58
  -2   2  -6    3.92    0.53
  -2   2  -6    4.17    0.58
   2  -2   6    4.88    0.55
   2  -2   6    3.88    0.47
   2  -2   6    4.10    0.60
   2  -2   6    4.73    0.59
   2  -2   6    4.12    0.33
   2  -2   6    4.52    0.62
   2  -2   6    4.01    0.47
  -3   2  -6    0.01    0.18
  -3   2  -6    0.16    0.41
  -3   2  -6    0.13    0.27
  -3   2  -6    0.68    0.28
  -3   2  -6    0.37    0.25
  -3   2  -6    0.82    0.37
  -3   2  -6    0.33    0.34
   3  -2   6    0.59    0.40
   3  -2   6    0.10    0.22
   3  -2   6    0.40    0.28
   3  -2   6    0.05    0.37
   3  -2   6    0.45    0.22
  -4   2  -6    0.27    0.26
  -4   2  -6    0.65    0.36
  -4   2  -6    0.39    0.36
  -4   2  -6    0.21    0.29
  -4   2  -6    0.99    0.51
  -4   2  -6    0.44    0.34
  -4   2  -6    0.20    0.37
   4  -2   6    0.32    0.47
   4  -2   6    0.06    0.33
   4  -2   6    0.16    0.47
   4  -2   6    0.62    0.28
   4  -2   6    0.28    0.22
  -5   2  -6    2.90    0.71
  -5   2  -6    2.43    0.50
  -5   2  -6    2.85    0.59
  -5   2  -6    2.90    0.59
  -5   2  -6    2.04    0.59
   5  -2   6    2.45    0.51
   5  -2   6    2.71    0.67
   5  -2   6    2.07    0.30
   5  -2   6    3.42    0.50
  -6   2  -6    0.83    0.58
  -6   2  -6    0.33    0.46
  -6   2  -6    0.15    0.77
  -6   2  -6   -0.13    0.52
   6  -2   6    0.03    0.46
   6  -2   6   -0.85    0.64
   6  -2   6   -0.41    0.50
  -7   2  -6    1.96    0.71
  -7   2  -6    2.13    1.03
  -7   2  -6    0.44    0.65
  -7   2  -6    1.37    0.72
   7  -2   6    0.47    0.64
   7  -2   6    0.90    0.89
   7  -2   6    0.32    0.73
  -8   2  -6   -0.32    0.93
  -8   2  -6    2.28    0.86
  -8   2  -6    0.35    0.82
   8  -2   6   -1.03    0.90
   8  -2   6    0.81    0.83
  -8  -1   6    0.60    0.96
  -8  -1   6    2.38    0.92
  -7  -1   6   -0.41    0.30
  -7  -1   6    0.87    0.70
  -7  -1   6    0.14    0.92
  -7  -1   6   -0.06    0.68
  -7  -1   6   -0.26    0.33
   6   1  -6    1.94    0.57
   6   1  -6    3.09    0.63
  -6  -1   6    2.74    0.65
  -6  -1   6    2.25    0.39
  -6  -1   6    1.10    0.56
  -6  -1   6    1.50    0.55
  -6  -1   6    2.02    0.30
  -6  -1   6    3.00    0.69
   5   1  -6    6.69    0.79
   5   1  -6    5.75    0.75
  -5  -1   6    6.80    0.56
  -5  -1   6    6.33    0.59
  -5  -1   6    7.13    0.83
  -5  -1   6    6.47    0.73
  -5  -1   6    6.70    0.82
  -5  -1   6    4.63    0.74
  -5  -1   6    6.06    0.41
   4   1  -6   17.71    0.79
   4   1  -6   17.28    1.08
   4   1  -6   18.31    1.09
  -4  -1   6   18.20    1.13
  -4  -1   6   17.51    0.88
  -4  -1   6   16.89    0.91
  -4  -1   6   15.62    1.03
  -4  -1   6   17.05    1.32
  -4  -1   6   16.80    1.21
  -4  -1   6   18.30    0.90
   3   1  -6    0.00    0.32
   3   1  -6    1.02    0.17
   3   1  -6    1.12    0.26
   3   1  -6    0.72    0.27
   3   1  -6    1.22    0.21
  -3  -1   6    0.72    0.36
  -3  -1   6    0.77    0.21
  -3  -1   6    0.65    0.08
  -3  -1   6    1.17    0.43
  -3  -1   6    0.69    0.15
  -3  -1   6    0.64    0.24
  -3  -1   6    1.05    0.21
  -3  -1   6    0.65    0.28
  -3  -1   6    0.75    0.12
  -3  -1   6    0.39    0.20
   2   1  -6    0.74    0.19
   2   1  -6    0.61    0.24
   2   1  -6    0.83    0.32
   2   1  -6    0.67    0.23
   2   1  -6    0.48    0.17
  -2  -1   6    0.93    0.26
  -2  -1   6    0.89    0.23
  -2  -1   6    0.56    0.10
  -2  -1   6    1.25    0.33
  -2  -1   6    0.61    0.15
  -2  -1   6    0.83    0.13
  -2  -1   6    1.31    0.42
  -2  -1   6    0.69    0.23
   1   1  -6    3.14    0.28
   1   1  -6    3.11    0.39
   1   1  -6    3.15    0.42
   1   1  -6    3.00    0.45
   1   1  -6    3.61    0.45
   1   1  -6    3.37    0.23
  -1  -1   6    2.81    0.28
  -1  -1   6    3.13    0.40
  -1  -1   6    3.81    0.44
  -1  -1   6    3.25    0.41
  -1  -1   6    3.88    0.51
  -1  -1   6    2.90    0.43
   0   1  -6   17.76    1.07
   0   1  -6   17.38    1.03
   0   1  -6   16.81    0.86
   0   1  -6   18.29    0.85
   0   1  -6   17.26    0.85
   0   1  -6   17.79    1.12
   0   1  -6   19.68    1.10
   0  -1   6   17.42    1.10
   0  -1   6   18.67    1.17
   0  -1   6   17.41    1.05
   0  -1   6   18.83    1.13
   0  -1   6   18.06    0.98
   0  -1   6   18.16    1.08
  -1   1  -6    0.09    0.09
  -1   1  -6    0.46    0.26
  -1   1  -6    0.37    0.21
  -1   1  -6   -0.22    0.26
  -1   1  -6   -0.09    0.21
  -1   1  -6    0.09    0.08
   1  -1   6    0.24    0.18
   1  -1   6    0.42    0.27
   1  -1   6    0.24    0.19
   1  -1   6   -0.03    0.22
   1  -1   6   -0.05    0.27
  -2   1  -6    0.28    0.25
  -2   1  -6    0.70    0.33
  -2   1  -6    0.46    0.16
  -2   1  -6    0.35    0.27
  -2   1  -6    0.74    0.19
  -2   1  -6    0.24    0.21
   2  -1   6    0.59    0.28
   2  -1   6    0.41    0.30
   2  -1   6    0.57    0.26
   2  -1   6    0.10    0.31
   2  -1   6    0.42    0.31
  -3   1  -6    0.51    0.30
  -3   1  -6    0.50    0.38
  -3   1  -6    0.82    0.30
  -3   1  -6    0.48    0.21
  -3   1  -6    1.31    0.32
  -3   1  -6    0.53    0.23
   3  -1   6    0.69    0.30
   3  -1   6    0.73    0.37
   3  -1   6    0.42    0.34
   3  -1   6    0.68    0.38
   3  -1   6    1.09    0.36
  -4   1  -6    3.28    0.45
  -4   1  -6    1.98    0.41
  -4   1  -6    2.38    0.46
  -4   1  -6    2.12    0.37
  -4   1  -6    2.12    0.46
  -4   1  -6    2.47    0.54
  -4   1  -6    2.70    0.50
   4  -1   6    3.86    0.67
   4  -1   6    2.16    0.45
   4  -1   6    2.55    0.55
   4  -1   6    2.50    0.51
   4  -1   6    2.66    0.58
   4  -1   6    2.30    0.35
  -5   1  -6   -0.05    0.38
  -5   1  -6    0.29    0.37
  -5   1  -6   -0.06    0.23
  -5   1  -6    0.29    0.39
  -5   1  -6   -0.25    0.37
  -5   1  -6    0.18    0.31
  -5   1  -6    0.32    0.54
   5  -1   6   -0.51    0.48
   5  -1   6   -0.05    0.19
   5  -1   6   -0.44    0.36
   5  -1   6   -0.44    0.30
  -6   1  -6    0.32    0.48
  -6   1  -6    0.03    0.47
  -6   1  -6    1.04    0.68
  -6   1  -6    0.27    0.42
  -6   1  -6   -0.14    0.49
  -6   1  -6    0.76    0.36
   6  -1   6    0.63    0.21
   6  -1   6    0.77    0.43
   6  -1   6    0.55    0.47
   6  -1   6    0.89    0.56
   6  -1   6    1.77    0.64
   6  -1   6    0.64    0.19
  -7   1  -6    3.81    0.77
  -7   1  -6    4.17    0.98
  -7   1  -6    1.97    0.67
  -7   1  -6    4.22    0.73
   7  -1   6    3.72    0.71
   7  -1   6    3.99    1.00
   7  -1   6    2.11    0.76
  -8   1  -6    1.14    0.75
  -8   1  -6    2.69    0.98
  -8   1  -6    1.65    0.79
   8  -1   6    2.39    0.93
   8  -1   6    2.21    1.15
  -9   1  -6    0.94    1.08
  -9   1  -6    0.46    0.98
  -9   1  -6    1.75    0.98
   9  -1   6    1.44    1.12
   8   0  -6    5.41    1.05
  -8   0   6    5.50    1.34
  -8   0   6    5.39    1.15
   7   0  -6   -0.10    0.68
  -7   0   6    1.14    0.82
  -7   0   6    0.59    0.36
  -7   0   6   -1.34    0.69
  -7   0   6    0.12    0.74
  -7   0   6    0.18    0.31
   6   0  -6    0.46    0.50
   6   0  -6    0.99    0.58
  -6   0   6    1.21    0.61
  -6   0   6    1.33    0.30
  -6   0   6    1.18    0.29
  -6   0   6    0.66    0.61
  -6   0   6    1.39    0.29
   5   0  -6    0.69    0.43
   5   0  -6   -0.21    0.36
  -5   0   6    0.50    0.51
  -5   0   6    0.39    0.17
  -5   0   6    0.30    0.16
  -5   0   6    0.44    0.35
  -5   0   6    0.12    0.46
  -5   0   6    0.20    0.17
  -5   0   6    0.16    0.40
  -5   0   6    0.30    0.23
  -5   0   6    0.22    0.14
   4   0  -6    3.29    0.49
   4   0  -6    3.64    0.30
   4   0  -6    3.64    0.51
   4   0  -6    4.13    0.37
  -4   0   6    4.19    0.39
  -4   0   6    4.42    0.44
  -4   0   6    4.87    0.47
  -4   0   6    3.48    0.25
  -4   0   6    4.32    0.39
  -4   0   6    3.63    0.23
  -4   0   6    5.06    0.67
  -4   0   6    4.27    0.36
  -4   0   6    4.16    0.50
  -4   0   6    2.38    0.58
   3   0  -6    7.93    0.64
   3   0  -6    8.19    0.49
   3   0  -6    8.28    0.64
   3   0  -6    7.72    0.62
   3   0  -6    7.83    0.58
  -3   0   6    8.24    0.49
  -3   0   6    6.96    0.77
  -3   0   6    7.96    0.69
  -3   0   6    7.64    0.56
  -3   0   6    8.07    0.56
  -3   0   6    7.82    0.46
  -3   0   6    8.06    0.60
   2   0  -6    2.38    0.33
   2   0  -6    1.98    0.28
   2   0  -6    2.52    0.29
   2   0  -6    2.81    0.37
   2   0  -6    2.44    0.33
   2   0  -6    1.89    0.37
  -2   0   6    2.27    0.22
  -2   0   6    2.05    0.34
  -2   0   6    2.73    0.36
  -2   0   6    2.45    0.44
  -2   0   6    2.23    0.34
   1   0  -6   19.34    0.94
   1   0  -6   19.20    1.08
   1   0  -6   18.70    1.04
   1   0  -6   19.39    1.11
   1   0  -6   18.72    1.16
   1   0  -6   19.06    0.92
  -1   0   6   19.73    1.06
  -1   0   6   19.09    1.10
  -1   0   6   19.07    1.11
  -1   0   6   18.14    0.98
  -1   0   6   18.80    1.20
   0   0  -6   36.40    1.98
   0   0  -6   36.19    1.66
   0   0  -6   38.37    1.78
   0   0  -6   37.34    1.91
   0   0  -6   38.12    1.88
   0   0  -6   38.79    1.97
   0   0   6   40.12    1.89
   0   0   6   36.98    2.00
   0   0   6   37.65    2.01
   0   0   6   36.59    1.94
   0   0   6   39.64    1.90
  -1   0  -6   -0.07    0.08
  -1   0  -6   -0.15    0.18
  -1   0  -6    0.15    0.09
  -1   0  -6    0.05    0.16
  -1   0  -6    0.20    0.25
  -1   0  -6    0.19    0.24
   1   0   6   -0.16    0.23
   1   0   6    0.05    0.25
   1   0   6   -0.17    0.18
   1   0   6   -0.21    0.23
   1   0   6    0.22    0.22
   1   0   6    0.16    0.19
  -2   0  -6    7.41    0.37
  -2   0  -6    7.72    0.64
  -2   0  -6    8.30    0.62
  -2   0  -6    7.03    0.61
  -2   0  -6    7.75    0.53
  -2   0  -6    7.79    0.74
  -2   0  -6    7.63    0.53
   2   0   6    8.06    0.66
   2   0   6    7.68    0.67
   2   0   6    6.65    0.73
   2   0   6    7.10    0.61
   2   0   6    7.69    0.70
  -3   0  -6   -0.36    0.33
  -3   0  -6    0.06    0.23
  -3   0  -6    0.27    0.21
  -3   0  -6   -0.35    0.26
  -3   0  -6    0.10    0.23
  -3   0  -6    0.08    0.18
  -3   0  -6   -0.05    0.12
   3   0   6   -0.05    0.24
   3   0   6    0.00    0.30
   3   0   6    0.41    0.33
   3   0   6    0.07    0.32
   3   0   6    0.80    0.36
  -4   0  -6    0.13    0.25
  -4   0  -6    0.04    0.32
  -4   0  -6    0.09    0.25
  -4   0  -6    0.13    0.41
  -4   0  -6    0.02    0.26
  -4   0  -6    0.19    0.23
  -4   0  -6    0.41    0.19
   4   0   6    0.11    0.28
   4   0   6    0.53    0.39
   4   0   6   -0.20    0.35
   4   0   6    0.45    0.42
   4   0   6   -0.21    0.36
  -5   0  -6   -0.18    0.46
  -5   0  -6   -0.15    0.31
  -5   0  -6    0.42    0.31
  -5   0  -6   -0.10    0.33
  -5   0  -6    0.09    0.32
  -5   0  -6    0.70    0.38
  -5   0  -6    0.06    0.26
   5   0   6    0.37    0.50
   5   0   6    0.07    0.37
   5   0   6   -0.06    0.48
   5   0   6    0.12    0.46
   5   0   6    0.16    0.50
  -6   0  -6    0.09    0.37
  -6   0  -6    0.35    0.61
  -6   0  -6   -0.16    0.38
  -6   0  -6    0.14    0.44
  -6   0  -6   -0.20    0.42
   6   0   6   -0.16    0.41
   6   0   6   -0.36    0.53
  -7   0  -6    0.36    0.51
  -7   0  -6   -0.80    0.51
  -7   0  -6    0.23    0.54
  -7   0  -6    0.26    0.52
  -7   0  -6    1.30    0.77
  -7   0  -6    0.09    0.57
   7   0   6    0.31    0.16
   7   0   6    0.68    0.71
   7   0   6   -0.21    0.54
   7   0   6    0.24    0.20
  -8   0  -6    0.60    0.63
  -8   0  -6   -0.11    0.64
  -8   0  -6   -0.83    0.65
   8   0   6   -1.39    0.78
   8   0   6    0.32    0.89
  -9   0  -6    2.40    0.88
  -9   0  -6    0.29    0.86
  -9   0  -6    1.23    0.92
   9   0   6    1.31    1.08
   8  -1  -6   -0.19    0.96
  -8   1   6    0.10    1.05
  -8   1   6    2.88    1.17
   7  -1  -6   -0.76    0.72
  -7   1   6    0.43    0.41
  -7   1   6    0.50    0.87
   6  -1  -6    1.82    0.55
  -6   1   6    0.62    0.51
  -6   1   6    0.98    0.23
  -6   1   6    1.15    0.32
  -6   1   6    1.23    0.64
  -6   1   6    1.34    0.24
  -6   1   6    1.12    0.28
   5  -1  -6    0.47    0.19
   5  -1  -6    0.34    0.25
   5  -1  -6    0.04    0.42
  -5   1   6    0.38    0.55
  -5   1   6   -0.09    0.22
  -5   1   6    0.09    0.24
  -5   1   6    0.46    0.49
  -5   1   6    0.39    0.13
  -5   1   6    0.32    0.39
  -5   1   6    0.09    0.20
  -5   1   6    0.11    0.20
   4  -1  -6    0.28    0.27
   4  -1  -6   -0.18    0.29
   4  -1  -6    0.10    0.32
   4  -1  -6   -0.11    0.15
  -4   1   6   -0.13    0.37
  -4   1   6   -0.22    0.38
  -4   1   6    0.22    0.09
  -4   1   6    0.20    0.27
  -4   1   6   -0.01    0.05
  -4   1   6    0.01    0.18
  -4   1   6   -0.02    0.20
  -4   1   6    0.01    0.20
  -4   1   6   -0.21    0.23
   3  -1  -6    0.60    0.25
   3  -1  -6    0.87    0.26
   3  -1  -6    0.11    0.20
   3  -1  -6    0.29    0.29
  -3   1   6    0.90    0.19
  -3   1   6    0.23    0.36
  -3   1   6    0.73    0.24
  -3   1   6    0.43    0.22
  -3   1   6    0.40    0.22
  -3   1   6    0.87    0.14
   2  -1  -6    6.32    0.60
   2  -1  -6    4.97    0.46
   2  -1  -6    6.11    0.45
   2  -1  -6    5.99    0.49
  -2   1   6    5.81    0.42
  -2   1   6    5.73    0.66
  -2   1   6    5.61    0.37
  -2   1   6    6.69    0.52
  -2   1   6    5.31    0.51
  -2   1   6    5.61    0.52
   1  -1  -6    0.07    0.16
   1  -1  -6   -0.13    0.10
   1  -1  -6   -0.11    0.20
   1  -1  -6    0.03    0.22
   1  -1  -6    0.04    0.14
  -1   1   6    0.05    0.10
  -1   1   6    0.11    0.23
  -1   1   6    0.19    0.21
  -1   1   6   -0.32    0.24
  -1   1   6    0.17    0.17
   0  -1  -6    0.16    0.09
   0  -1  -6    0.22    0.10
   0  -1  -6    0.37    0.26
   0  -1  -6    0.06    0.06
   0  -1  -6    0.01    0.19
   0  -1  -6    0.09    0.16
   0  -1  -6    0.22    0.18
   0  -1  -6    0.08    0.03
   0   1   6    0.01    0.23
   0   1   6    0.03    0.18
   0   1   6    0.00    0.20
   0   1   6    0.05    0.22
   0   1   6   -0.03    0.13
  -1  -1  -6   14.45    0.86
  -1  -1  -6   13.19    0.84
  -1  -1  -6   11.02    0.70
  -1  -1  -6   12.93    0.71
  -1  -1  -6   14.06    0.88
  -1  -1  -6   14.17    0.92
   1   1   6   14.02    0.93
   1   1   6   14.21    0.85
   1   1   6   13.71    0.91
   1   1   6   13.52    0.88
   1   1   6   14.52    0.88
  -2  -1  -6    1.07    0.16
  -2  -1  -6    1.02    0.27
  -2  -1  -6    1.62    0.24
  -2  -1  -6    1.18    0.30
  -2  -1  -6    1.16    0.25
  -2  -1  -6    0.79    0.32
   2   1   6    1.25    0.38
   2   1   6    1.18    0.29
   2   1   6    0.60    0.25
   2   1   6    0.85    0.31
   2   1   6    1.12    0.31
  -3  -1  -6    0.33    0.17
  -3  -1  -6    0.53    0.34
  -3  -1  -6    0.17    0.18
  -3  -1  -6   -0.20    0.16
  -3  -1  -6   -0.20    0.25
  -3  -1  -6    0.18    0.24
   3   1   6    0.15    0.28
   3   1   6   -0.06    0.31
   3   1   6   -0.09    0.30
   3   1   6    0.00    0.29
   3   1   6    0.18    0.24
  -4  -1  -6   12.27    0.91
  -4  -1  -6   12.60    0.95
  -4  -1  -6   12.21    0.89
  -4  -1  -6   13.25    0.79
  -4  -1  -6   12.88    1.00
  -4  -1  -6   12.39    0.83
   4   1   6   11.73    0.98
   4   1   6   11.96    0.96
   4   1   6   13.61    1.04
   4   1   6   14.10    1.05
   4   1   6   13.38    1.02
  -5  -1  -6    4.92    0.68
  -5  -1  -6    5.92    0.63
  -5  -1  -6    6.29    0.78
  -5  -1  -6    5.20    0.56
  -5  -1  -6    3.71    0.52
  -5  -1  -6    4.11    0.60
  -5  -1  -6    4.44    0.55
   5   1   6    3.66    0.65
   5   1   6    4.51    0.65
   5   1   6    4.40    0.70
   5   1   6    3.88    0.60
   5   1   6    4.61    0.67
   5   1   6    4.12    0.71
  -6  -1  -6    4.16    0.57
  -6  -1  -6    2.79    0.54
  -6  -1  -6    4.01    0.58
  -6  -1  -6    4.41    0.55
  -6  -1  -6    3.85    0.62
  -6  -1  -6    3.21    0.58
  -6  -1  -6    4.19    0.72
   6   1   6    6.44    0.87
   6   1   6    3.96    0.81
   6   1   6    3.84    0.69
   6   1   6    4.99    0.91
  -7  -1  -6   -0.02    0.54
  -7  -1  -6    0.34    0.50
  -7  -1  -6   -0.42    0.68
  -7  -1  -6    0.66    0.51
  -7  -1  -6    0.63    0.48
  -7  -1  -6    0.25    0.55
   7   1   6   -0.15    0.64
   7   1   6    0.15    0.33
   7   1   6    0.19    0.55
  -8  -1  -6    2.88    0.71
  -8  -1  -6    3.81    0.80
  -8  -1  -6    3.47    1.04
  -8  -1  -6    4.23    0.80
   8   1   6    3.31    0.89
   8   1   6    3.51    0.96
  -9  -1  -6    1.83    0.82
  -9  -1  -6    2.77    0.79
  -9  -1  -6    1.30    0.93
   9   1   6    1.23    0.88
   8  -2  -6    0.10    1.03
   7  -2  -6   -0.15    0.73
  -7   2   6    1.73    0.97
   6  -2  -6    4.16    0.53
   6  -2  -6    4.63    0.78
   6  -2  -6    4.73    0.47
   6  -2  -6    4.16    0.81
  -6   2   6    6.31    0.84
  -6   2   6    4.82    0.97
  -6   2   6    4.83    0.56
  -6   2   6    4.42    0.54
   5  -2  -6    3.33    0.66
   5  -2  -6    4.05    0.42
   5  -2  -6    3.22    0.60
   5  -2  -6    4.48    0.54
  -5   2   6    4.10    0.64
  -5   2   6    2.91    0.25
  -5   2   6    3.49    0.45
  -5   2   6    4.20    0.76
  -5   2   6    3.81    0.48
   4  -2  -6    2.58    0.48
   4  -2  -6    3.14    0.48
   4  -2  -6    2.93    0.51
  -4   2   6    3.46    0.42
  -4   2   6    1.95    0.15
  -4   2   6    2.21    0.32
  -4   2   6    2.47    0.62
  -4   2   6    2.15    0.36
  -4   2   6    2.21    0.37
   3  -2  -6   23.56    1.19
   3  -2  -6   21.42    1.24
   3  -2  -6   21.67    1.14
   3  -2  -6   23.61    1.29
   3  -2  -6   21.76    1.27
  -3   2   6   20.62    1.11
  -3   2   6   23.28    1.46
  -3   2   6   22.61    1.21
  -3   2   6   21.59    1.49
  -3   2   6   21.31    1.09
  -3   2   6   20.62    1.19
  -3   2   6   22.12    1.24
   2  -2  -6    9.37    0.66
   2  -2  -6    8.57    0.63
   2  -2  -6   11.03    0.68
   2  -2  -6   10.15    0.66
   2  -2  -6   11.75    0.79
  -2   2   6   10.37    0.56
  -2   2   6   10.54    0.84
  -2   2   6    9.80    0.57
  -2   2   6    9.48    0.70
  -2   2   6    9.86    0.72
  -2   2   6   10.47    0.57
   1  -2  -6   16.99    0.89
   1  -2  -6   17.89    0.97
   1  -2  -6   16.96    1.06
   1  -2  -6   15.08    0.85
  -1   2   6   17.60    1.06
  -1   2   6   15.89    0.89
  -1   2   6   15.97    1.02
  -1   2   6   16.96    1.02
  -1   2   6   17.27    0.99
   0  -2  -6    5.90    0.54
   0  -2  -6    6.62    0.31
   0  -2  -6    6.84    0.65
   0  -2  -6    6.68    0.39
   0  -2  -6    6.41    0.40
   0  -2  -6    6.22    0.51
   0   2   6    6.60    0.47
   0   2   6    6.48    0.58
   0   2   6    6.21    0.62
   0   2   6    7.06    0.59
   0   2   6    5.98    0.57
  -1  -2  -6    4.76    0.47
  -1  -2  -6    5.02    0.47
  -1  -2  -6    5.52    0.39
  -1  -2  -6    5.77    0.36
  -1  -2  -6    5.89    0.65
  -1  -2  -6    5.71    0.48
   1   2   6    5.53    0.57
   1   2   6    5.69    0.46
   1   2   6    4.60    0.57
   1   2   6    5.58    0.55
   1   2   6    5.47    0.50
  -2  -2  -6    0.52    0.32
  -2  -2  -6    0.45    0.14
  -2  -2  -6    0.52    0.20
  -2  -2  -6    0.18    0.23
  -2  -2  -6    0.31    0.22
   2   2   6    0.39    0.25
   2   2   6    0.73    0.34
   2   2   6    0.36    0.24
   2   2   6    0.09    0.24
   2   2   6    0.32    0.18
   2   2   6    0.16    0.27
  -3  -2  -6   13.83    0.82
  -3  -2  -6   13.75    0.87
  -3  -2  -6   14.79    0.96
  -3  -2  -6   15.07    1.05
  -3  -2  -6   14.04    0.95
  -3  -2  -6   13.97    0.83
   3   2   6   14.09    0.96
   3   2   6   15.38    0.97
   3   2   6   12.83    1.03
   3   2   6   13.69    1.01
   3   2   6   14.26    1.00
  -4  -2  -6   13.70    0.96
  -4  -2  -6   13.57    0.97
  -4  -2  -6   12.71    0.78
  -4  -2  -6   12.63    1.00
  -4  -2  -6   13.54    0.85
  -4  -2  -6   12.81    0.89
   4   2   6   13.72    1.01
   4   2   6   13.93    1.06
   4   2   6   13.17    0.95
   4   2   6   14.87    1.06
   4   2   6   14.11    1.04
   4   2   6   13.13    1.00
  -5  -2  -6    0.19    0.31
  -5  -2  -6    0.28    0.48
  -5  -2  -6    0.27    0.21
  -5  -2  -6   -0.07    0.29
  -5  -2  -6   -0.19    0.28
  -5  -2  -6   -0.02    0.35
   5   2   6   -0.20    0.37
   5   2   6    0.22    0.45
   5   2   6    0.16    0.46
   5   2   6    0.43    0.33
   5   2   6    0.07    0.37
  -6  -2  -6    0.28    0.23
  -6  -2  -6    1.05    0.46
  -6  -2  -6    0.28    0.55
  -6  -2  -6    0.29    0.43
  -6  -2  -6    0.40    0.38
  -6  -2  -6   -0.35    0.35
   6   2   6    0.31    0.40
   6   2   6    0.58    0.50
   6   2   6    0.71    0.53
   6   2   6    0.71    0.62
  -7  -2  -6    1.28    0.66
  -7  -2  -6    0.17    0.39
  -7  -2  -6   -0.29    0.55
  -7  -2  -6    0.25    0.47
  -7  -2  -6   -0.04    0.29
  -7  -2  -6    0.99    0.46
   7   2   6    1.08    0.78
   7   2   6   -0.26    0.59
   7   2   6   -0.35    0.53
   7   2   6   -0.13    0.37
  -8  -2  -6    0.15    0.49
  -8  -2  -6   -1.02    0.87
  -8  -2  -6    0.96    0.60
  -8  -2  -6    1.04    0.54
  -8  -2  -6   -0.05    0.40
   8   2   6    0.18    0.42
   8   2   6   -0.47    0.75
   8   2   6   -0.47    0.62
  -9  -2  -6   -0.19    0.79
  -9  -2  -6   -0.71    0.62
  -9  -2  -6    1.25    0.74
   9   2   6    0.39    1.04
   9   2   6    1.15    0.89
   7  -3  -6    1.36    0.87
  -7   3   6    0.95    1.13
   6  -3  -6    1.10    0.66
   6  -3  -6    3.25    0.81
  -6   3   6    3.45    0.50
  -6   3   6    2.16    0.77
  -6   3   6    2.93    0.94
   5  -3  -6   -0.07    0.47
  -5   3   6   -0.08    0.32
  -5   3   6    0.06    0.12
  -5   3   6   -0.14    0.49
  -5   3   6    0.65    0.38
  -5   3   6    0.06    0.61
   4  -3  -6    4.45    0.63
   4  -3  -6    4.64    0.63
   4  -3  -6    4.72    0.63
   4  -3  -6    5.12    0.53
  -4   3   6    5.02    0.60
  -4   3   6    5.71    0.59
  -4   3   6    4.75    0.29
  -4   3   6    4.69    0.81
   3  -3  -6    1.42    0.43
   3  -3  -6    0.96    0.28
   3  -3  -6    1.14    0.20
   3  -3  -6    1.12    0.34
   3  -3  -6    0.90    0.32
  -3   3   6    1.10    0.15
  -3   3   6    1.41    0.49
  -3   3   6    0.91    0.31
  -3   3   6    1.18    0.32
  -3   3   6    1.38    0.21
  -3   3   6    1.65    0.50
   2  -3  -6    1.06    0.20
   2  -3  -6    1.67    0.39
   2  -3  -6    1.12    0.26
   2  -3  -6    1.40    0.29
   2  -3  -6    1.48    0.29
  -2   3   6    1.09    0.27
  -2   3   6    1.13    0.18
  -2   3   6    1.40    0.33
  -2   3   6    1.31    0.38
  -2   3   6    1.21    0.33
  -2   3   6    1.17    0.19
  -2   3   6    1.15    0.14
   1  -3  -6    2.54    0.35
   1  -3  -6    2.46    0.43
   1  -3  -6    1.95    0.27
   1  -3  -6    2.75    0.30
  -1   3   6    2.50    0.19
  -1   3   6    1.91    0.35
  -1   3   6    2.53    0.27
  -1   3   6    2.99    0.44
  -1   3   6    3.07    0.42
  -1   3   6    2.59    0.40
   0  -3  -6    1.75    0.21
   0  -3  -6    1.14    0.35
   0  -3  -6    1.28    0.10
   0  -3  -6    1.60    0.28
   0  -3  -6    1.48    0.30
   0   3   6    1.07    0.31
   0   3   6    1.06    0.33
   0   3   6    1.65    0.25
   0   3   6    1.50    0.32
   0   3   6    1.08    0.31
  -1  -3  -6    4.75    0.61
  -1  -3  -6    4.89    0.32
  -1  -3  -6    4.68    0.50
  -1  -3  -6    4.50    0.47
  -1  -3  -6    5.00    0.33
  -1  -3  -6    5.61    0.35
   1   3   6    4.57    0.41
   1   3   6    4.70    0.46
   1   3   6    4.42    0.52
   1   3   6    4.49    0.46
   1   3   6    4.01    0.55
   1   3   6    4.67    0.50
  -2  -3  -6    5.63    0.54
  -2  -3  -6    4.98    0.52
  -2  -3  -6    4.60    0.37
  -2  -3  -6    4.41    0.59
  -2  -3  -6    4.23    0.41
   2   3   6    5.04    0.53
   2   3   6    4.55    0.60
   2   3   6    4.79    0.59
   2   3   6    4.75    0.45
   2   3   6    3.99    0.52
   2   3   6    4.44    0.43
  -3  -3  -6    5.09    0.43
  -3  -3  -6    4.88    0.55
  -3  -3  -6    4.51    0.39
  -3  -3  -6    4.56    0.53
  -3  -3  -6    4.78    0.64
   3   3   6    4.58    0.51
   3   3   6    4.67    0.64
   3   3   6    4.76    0.59
   3   3   6    6.03    0.58
   3   3   6    4.20    0.54
   3   3   6    3.71    0.57
  -4  -3  -6    0.65    0.31
  -4  -3  -6    0.55    0.29
  -4  -3  -6    0.54    0.23
  -4  -3  -6    0.78    0.33
  -4  -3  -6    1.27    0.41
   4   3   6    0.85    0.34
   4   3   6    0.98    0.38
   4   3   6    0.44    0.30
   4   3   6    0.52    0.38
   4   3   6    0.84    0.41
  -5  -3  -6   10.26    0.85
  -5  -3  -6   11.44    0.86
  -5  -3  -6   10.30    0.95
  -5  -3  -6    9.67    1.04
  -5  -3  -6   10.65    0.57
  -5  -3  -6   10.66    0.86
   5   3   6   11.66    1.14
   5   3   6   10.56    0.95
   5   3   6   11.86    0.97
   5   3   6    8.47    0.89
   5   3   6   10.79    0.94
  -6  -3  -6    0.79    0.14
  -6  -3  -6    1.43    0.49
  -6  -3  -6    0.63    0.36
  -6  -3  -6    0.57    0.38
  -6  -3  -6    0.63    0.47
  -6  -3  -6    0.97    0.58
   6   3   6    0.53    0.50
   6   3   6    0.61    0.65
   6   3   6    0.09    0.41
   6   3   6    0.24    0.48
  -7  -3  -6    0.81    0.62
  -7  -3  -6    0.95    0.48
  -7  -3  -6    0.84    0.72
  -7  -3  -6    0.78    0.48
   7   3   6    0.75    0.62
   7   3   6    0.08    0.41
   7   3   6    0.30    0.51
   7   3   6    0.32    0.65
  -8  -3  -6    2.24    0.66
  -8  -3  -6    3.09    0.65
  -8  -3  -6    3.22    0.91
   8   3   6    2.67    0.56
   8   3   6    3.09    0.82
   8   3   6    3.62    0.78
  -9  -3  -6    0.27    0.77
  -9  -3  -6    1.64    0.67
   9   3   6    1.37    0.87
   9   3   6    2.49    0.63
   9   3   6    2.11    1.03
 -10  -3  -6    2.96    0.96
 -10  -3  -6    0.07    1.09
  10   3   6    1.05    1.29
   7  -4  -6   -0.71    1.00
  -7   4   6    0.61    0.57
  -7   4   6    1.36    1.18
   6  -4  -6   -0.32    0.68
  -6   4   6    1.39    0.97
  -6   4   6    0.28    0.46
   5  -4  -6   -0.27    0.52
   5  -4  -6    0.05    0.41
  -5   4   6   -0.01    0.16
  -5   4   6    0.30    0.50
  -5   4   6    0.63    0.71
  -5   4   6    0.06    0.36
   4  -4  -6   -0.30    0.38
   4  -4  -6    0.35    0.40
  -4   4   6   -0.25    0.32
  -4   4   6    0.51    0.42
  -4   4   6    0.01    0.12
  -4   4   6    0.39    0.54
   3  -4  -6    2.22    0.54
   3  -4  -6    2.63    0.41
   3  -4  -6    1.91    0.27
   3  -4  -6    2.27    0.42
   3  -4  -6    1.85    0.40
  -3   4   6    1.93    0.28
  -3   4   6    2.38    0.25
  -3   4   6    3.07    0.64
  -3   4   6    2.19    0.42
  -3   4   6    1.76    0.41
   2  -4  -6    3.26    0.43
   2  -4  -6    2.87    0.57
   2  -4  -6    3.22    0.44
   2  -4  -6    3.40    0.32
   2  -4  -6    3.05    0.43
  -2   4   6    2.66    0.44
  -2   4   6    3.39    0.56
  -2   4   6    3.11    0.56
  -2   4   6    2.31    0.28
  -2   4   6    2.30    0.45
  -2   4   6    2.84    0.30
   1  -4  -6    5.97    0.56
   1  -4  -6    6.69    0.76
   1  -4  -6    6.16    0.48
   1  -4  -6    5.24    0.48
   1  -4  -6    6.24    0.40
  -1   4   6    6.37    0.65
  -1   4   6    6.18    0.62
  -1   4   6    5.88    0.42
  -1   4   6    7.68    0.64
  -1   4   6    6.37    0.47
   0  -4  -6    3.90    0.44
   0  -4  -6    4.35    0.48
   0  -4  -6    3.97    0.23
   0  -4  -6    3.90    0.59
   0  -4  -6    3.68    0.32
   0   4   6    3.54    0.37
   0   4   6    4.06    0.49
   0   4   6    3.77    0.25
   0   4   6    4.43    0.53
   0   4   6    3.72    0.53
  -1  -4  -6    8.91    0.49
  -1  -4  -6    8.50    0.68
  -1  -4  -6    9.35    0.50
  -1  -4  -6    8.65    0.67
  -1  -4  -6    8.44    0.82
  -1  -4  -6    8.57    0.52
   1   4   6    8.39    0.65
   1   4   6    7.51    0.74
   1   4   6    9.62    0.66
   1   4   6    9.22    0.77
   1   4   6    8.89    0.56
  -2  -4  -6    6.00    0.42
  -2  -4  -6    6.05    0.46
  -2  -4  -6    5.95    0.61
  -2  -4  -6    5.58    0.58
  -2  -4  -6    6.77    0.76
   2   4   6    5.69    0.48
   2   4   6    6.11    0.67
   2   4   6    6.13    0.56
   2   4   6    5.89    0.65
   2   4   6    6.64    0.52
  -3  -4  -6    0.04    0.19
  -3  -4  -6    0.27    0.38
  -3  -4  -6   -0.28    0.24
  -3  -4  -6    0.45    0.29
   3   4   6    0.23    0.24
   3   4   6    0.13    0.25
   3   4   6    0.45    0.34
   3   4   6    0.05    0.33
   3   4   6    0.44    0.32
   3   4   6    0.28    0.14
  -4  -4  -6    0.22    0.34
  -4  -4  -6   -0.24    0.24
  -4  -4  -6   -0.21    0.17
  -4  -4  -6   -0.13    0.43
  -4  -4  -6   -0.25    0.26
   4   4   6    0.08    0.28
   4   4   6    0.32    0.35
   4   4   6   -0.02    0.35
   4   4   6    0.03    0.29
   4   4   6   -0.43    0.38
  -5  -4  -6    1.20    0.49
  -5  -4  -6    0.71    0.34
  -5  -4  -6   -0.09    0.24
  -5  -4  -6   -0.36    0.36
  -5  -4  -6    0.00    0.41
  -5  -4  -6    0.10    0.30
   5   4   6    0.40    0.33
   5   4   6    0.00    0.33
   5   4   6   -0.14    0.47
   5   4   6    0.17    0.40
   5   4   6   -0.38    0.41
  -6  -4  -6    0.32    0.35
  -6  -4  -6    0.07    0.54
  -6  -4  -6    0.36    0.38
  -6  -4  -6   -0.15    0.51
  -6  -4  -6   -0.02    0.46
   6   4   6   -0.30    0.47
   6   4   6    0.72    0.50
   6   4   6   -0.09    0.42
  -7  -4  -6    8.17    0.86
  -7  -4  -6    5.29    0.90
  -7  -4  -6    6.16    0.83
   7   4   6    7.71    0.97
   7   4   6    7.08    0.96
   7   4   6    7.21    0.94
   7   4   6    8.45    0.97
  -8  -4  -6    0.34    0.55
  -8  -4  -6    0.47    0.51
  -8  -4  -6    0.19    0.83
   8   4   6    0.46    0.73
   8   4   6    0.90    0.64
   8   4   6    1.58    0.78
   8   4   6    0.81    0.56
  -9  -4  -6   -0.29    0.58
  -9  -4  -6   -0.02    0.75
   9   4   6    0.22    0.64
   9   4   6    1.07    0.82
 -10  -4  -6    0.77    0.96
 -10  -4  -6   -0.14    0.76
  10   4   6   -0.21    1.12
   6  -5  -6    1.60    0.87
  -6   5   6    2.86    1.18
  -6   5   6    2.21    0.65
   5  -5  -6   -0.27    0.54
   5  -5  -6    0.93    0.60
   5  -5  -6    0.59    0.64
  -5   5   6   -0.03    0.70
  -5   5   6    0.53    0.46
   4  -5  -6    0.26    0.42
   4  -5  -6    1.05    0.49
   4  -5  -6    0.87    0.46
  -4   5   6    1.02    0.41
  -4   5   6    0.51    0.66
  -4   5   6    1.48    0.53
  -4   5   6    0.28    0.20
   3  -5  -6    0.17    0.33
   3  -5  -6    0.83    0.38
   3  -5  -6    0.78    0.16
   3  -5  -6    0.22    0.35
  -3   5   6    0.47    0.18
  -3   5   6    0.52    0.44
   2  -5  -6    4.46    0.58
   2  -5  -6    5.31    0.62
   2  -5  -6    6.74    0.47
   2  -5  -6    4.94    0.59
  -2   5   6    6.16    0.45
  -2   5   6    6.65    0.82
  -2   5   6    5.11    0.48
  -2   5   6    6.68    0.85
  -2   5   6    5.66    0.65
   1  -5  -6    1.90    0.31
   1  -5  -6    1.92    0.25
   1  -5  -6    2.50    0.33
   1  -5  -6    1.89    0.39
  -1   5   6    2.28    0.47
  -1   5   6    2.19    0.31
  -1   5   6    1.86    0.46
  -1   5   6    1.62    0.27
  -1   5   6    1.65    0.45
  -1   5   6    1.79    0.40
   0  -5  -6   32.89    1.94
   0  -5  -6   36.17    1.86
   0  -5  -6   35.22    1.80
   0  -5  -6   34.84    1.61
   0   5   6   33.38    1.77
   0   5   6   32.86    1.82
   0   5   6   34.79    1.87
   0   5   6   33.95    1.87
  -1  -5  -6    0.97    0.14
  -1  -5  -6    0.80    0.30
  -1  -5  -6    1.43    0.34
  -1  -5  -6    0.67    0.43
  -1  -5  -6    1.15    0.18
   1   5   6    1.14    0.34
   1   5   6    1.31    0.28
   1   5   6    1.41    0.40
   1   5   6    0.86    0.27
  -2  -5  -6   11.75    0.93
  -2  -5  -6   12.53    0.88
  -2  -5  -6   10.72    1.05
  -2  -5  -6   12.60    0.72
  -2  -5  -6   12.04    0.70
   2   5   6   12.13    0.88
   2   5   6   12.08    0.77
   2   5   6   12.39    0.96
   2   5   6   12.99    0.92
   2   5   6   12.29    0.74
  -3  -5  -6    3.96    0.45
  -3  -5  -6    2.98    0.61
  -3  -5  -6    4.03    0.52
  -3  -5  -6    4.22    0.38
  -3  -5  -6    4.59    0.62
   3   5   6    4.25    0.57
   3   5   6    4.90    0.66
   3   5   6    3.91    0.60
   3   5   6    3.98    0.36
   3   5   6    4.34    0.51
  -4  -5  -6    2.06    0.56
  -4  -5  -6    2.62    0.36
  -4  -5  -6    2.15    0.38
  -4  -5  -6    2.15    0.42
  -4  -5  -6    2.73    0.52
   4   5   6    2.31    0.48
   4   5   6    2.24    0.44
   4   5   6    2.68    0.50
   4   5   6    1.69    0.37
   4   5   6    3.75    0.59
  -5  -5  -6    0.81    0.35
  -5  -5  -6    0.97    0.39
  -5  -5  -6    0.97    0.32
   5   5   6    0.60    0.32
   5   5   6    0.81    0.47
   5   5   6    0.73    0.38
   5   5   6    1.58    0.50
  -6  -5  -6   19.51    1.43
  -6  -5  -6   17.67    1.43
  -6  -5  -6   20.03    1.32
  -6  -5  -6   18.22    1.30
  -6  -5  -6   17.49    1.35
   6   5   6   17.09    1.35
   6   5   6   21.64    1.35
   6   5   6   19.44    1.42
  -7  -5  -6    2.21    0.48
  -7  -5  -6    1.85    0.59
  -7  -5  -6    1.54    0.74
  -7  -5  -6    1.95    0.53
   7   5   6    1.91    0.58
   7   5   6    1.46    0.56
   7   5   6    1.74    0.60
   7   5   6    0.81    0.64
  -8  -5  -6    0.57    0.51
  -8  -5  -6    1.73    0.90
  -8  -5  -6    0.61    0.51
  -8  -5  -6   -0.15    0.56
   8   5   6   -0.97    0.73
   8   5   6    0.84    0.62
   8   5   6    1.41    0.65
   8   5   6    1.02    0.77
  -9  -5  -6    3.21    0.72
  -9  -5  -6    2.25    0.82
  -9  -5  -6    2.28    0.74
   9   5   6    3.08    0.95
   9   5   6    1.46    0.77
 -10  -5  -6    0.07    0.76
 -10  -5  -6   -0.35    1.10
 -10  -5  -6    0.80    1.00
  10   5   6    1.40    1.03
   6  -6  -6    0.46    0.98
  -6   6   6    2.60    1.23
  -6   6   6    1.19    0.73
   5  -6  -6    0.61    0.72
   5  -6  -6   -0.87    0.72
  -5   6   6    0.30    0.93
  -5   6   6    0.57    0.56
   4  -6  -6   -0.53    0.56
   4  -6  -6    0.37    0.49
   4  -6  -6    0.18    0.55
  -4   6   6    0.15    0.27
  -4   6   6   -0.30    0.46
  -4   6   6   -0.53    0.71
  -4   6   6    0.78    0.79
   3  -6  -6    0.63    0.42
   3  -6  -6    0.55    0.45
   3  -6  -6    0.05    0.12
   3  -6  -6   -0.06    0.39
  -3   6   6   -0.14    0.54
  -3   6   6   -0.12    0.59
  -3   6   6   -0.63    0.23
  -3   6   6   -0.29    0.39
   2  -6  -6    0.30    0.34
   2  -6  -6    0.02    0.21
   2  -6  -6   -0.05    0.37
   2  -6  -6    0.54    0.29
  -2   6   6    0.27    0.49
  -2   6   6   -0.11    0.23
  -2   6   6    0.53    0.51
   1  -6  -6    5.46    0.55
   1  -6  -6    5.09    0.67
   1  -6  -6    4.73    0.55
   1  -6  -6    5.01    0.41
  -1   6   6    5.39    0.71
  -1   6   6    5.08    0.68
  -1   6   6    5.83    0.81
  -1   6   6    4.85    0.65
  -1   6   6    5.62    0.53
  -1   6   6    3.98    0.51
   0  -6  -6    0.55    0.12
   0  -6  -6    0.42    0.33
   0  -6  -6    0.21    0.19
   0  -6  -6    1.59    0.55
   0  -6  -6    0.67    0.30
   0   6   6    0.45    0.35
   0   6   6    0.62    0.37
   0   6   6   -0.02    0.41
   0   6   6    0.53    0.28
   0   6   6    0.27    0.33
   0   6   6    0.42    0.24
  -1  -6  -6    4.91    0.60
  -1  -6  -6    4.16    0.72
  -1  -6  -6    3.59    0.35
  -1  -6  -6    4.49    0.30
  -1  -6  -6    4.76    0.59
   1   6   6    4.23    0.53
   1   6   6    4.87    0.63
   1   6   6    3.46    0.56
   1   6   6    4.90    0.55
  -2  -6  -6    9.89    0.92
  -2  -6  -6   10.46    0.63
  -2  -6  -6   10.51    0.58
  -2  -6  -6   10.40    0.85
  -2  -6  -6   12.95    1.12
  -2  -6  -6   10.08    0.63
   2   6   6   10.26    0.91
   2   6   6    9.43    0.87
   2   6   6   10.73    0.64
   2   6   6   10.40    0.71
  -3  -6  -6    1.62    0.57
  -3  -6  -6    0.96    0.22
  -3  -6  -6    0.62    0.36
  -3  -6  -6    1.02    0.20
  -3  -6  -6    0.62    0.46
   3   6   6    1.18    0.22
   3   6   6    1.24    0.45
   3   6   6    1.66    0.33
   3   6   6    1.76    0.50
  -4  -6  -6    8.90    0.74
  -4  -6  -6    8.49    0.95
  -4  -6  -6    9.11    1.08
  -4  -6  -6    9.35    0.81
  -4  -6  -6    9.37    0.67
   4   6   6    9.73    0.78
   4   6   6    9.45    0.93
   4   6   6   10.39    0.80
   4   6   6    9.10    0.92
  -5  -6  -6    0.16    0.25
  -5  -6  -6    0.35    0.36
  -5  -6  -6    0.22    0.59
  -5  -6  -6    0.65    0.34
   5   6   6    0.58    0.38
   5   6   6    1.20    0.58
   5   6   6    0.64    0.52
   5   6   6    0.84    0.34
  -6  -6  -6    0.12    0.30
  -6  -6  -6   -0.04    0.41
  -6  -6  -6   -0.36    0.35
  -6  -6  -6    1.12    0.73
   6   6   6   -0.93    0.42
   6   6   6   -0.77    0.50
   6   6   6    0.02    0.50
   6   6   6   -0.11    0.37
  -7  -6  -6    0.23    0.50
  -7  -6  -6    1.85    0.86
  -7  -6  -6    0.06    0.41
  -7  -6  -6    0.27    0.39
   7   6   6    0.57    0.56
   7   6   6    0.03    0.51
   7   6   6   -0.40    0.62
   7   6   6    0.58    0.54
  -8  -6  -6   -0.71    0.51
  -8  -6  -6    0.27    0.66
  -8  -6  -6    0.11    0.50
   8   6   6    0.04    0.68
   8   6   6    1.59    0.77
   8   6   6    0.29    0.67
  -9  -6  -6    2.94    0.72
  -9  -6  -6    4.40    0.79
  -9  -6  -6    2.60    0.92
   9   6   6    2.82    0.93
   9   6   6    2.17    0.82
   5  -7  -6    1.89    0.91
  -5   7   6    1.96    0.72
  -5   7   6    2.51    1.02
   4  -7  -6    0.89    0.67
   4  -7  -6   -0.39    0.63
   4  -7  -6    1.44    0.67
  -4   7   6   -0.39    0.60
  -4   7   6   -0.26    0.95
   3  -7  -6    0.63    0.52
   3  -7  -6   -0.09    0.51
   3  -7  -6    0.68    0.42
  -3   7   6    1.66    0.72
  -3   7   6    0.39    0.37
  -3   7   6    0.22    0.73
  -3   7   6    1.18    0.55
   2  -7  -6    0.36    0.40
   2  -7  -6    0.56    0.37
   2  -7  -6    0.55    0.27
   2  -7  -6    0.34    0.47
   2  -7  -6    0.57    0.28
  -2   7   6    0.57    0.61
  -2   7   6   -0.43    0.42
  -2   7   6    0.60    0.32
  -2   7   6    0.73    0.66
   1  -7  -6    0.40    0.32
   1  -7  -6    0.75    0.32
   1  -7  -6    0.54    0.21
   1  -7  -6    1.40    0.46
  -1   7   6    1.46    0.55
  -1   7   6    0.48    0.42
  -1   7   6    1.08    0.34
  -1   7   6    0.97    0.56
   0  -7  -6    1.15    0.29
   0  -7  -6    0.88    0.38
   0  -7  -6    0.99    0.18
   0  -7  -6    1.19    0.41
   0   7   6    0.93    0.44
   0   7   6    1.07    0.36
   0   7   6    0.80    0.42
   0   7   6    1.01    0.60
  -1  -7  -6    0.74    0.37
  -1  -7  -6    0.86    0.45
  -1  -7  -6    1.03    0.66
  -1  -7  -6    0.50    0.21
  -1  -7  -6    0.49    0.12
   1   7   6    0.91    0.54
   1   7   6    0.74    0.41
   1   7   6    0.51    0.35
   1   7   6    1.25    0.50
   1   7   6    0.65    0.36
  -2  -7  -6    0.12    0.14
  -2  -7  -6    0.41    0.63
  -2  -7  -6    0.72    0.49
  -2  -7  -6   -0.11    0.13
  -2  -7  -6    0.17    0.36
   2   7   6    0.39    0.36
   2   7   6   -0.09    0.26
   2   7   6    0.46    0.50
   2   7   6    0.32    0.42
  -3  -7  -6    6.46    0.88
  -3  -7  -6    5.18    0.43
  -3  -7  -6    4.85    0.86
  -3  -7  -6    5.74    0.66
  -3  -7  -6    4.64    0.45
   3   7   6    4.44    0.45
   3   7   6    5.44    0.76
   3   7   6    4.06    0.64
   3   7   6    4.55    0.51
  -4  -7  -6    4.30    0.63
  -4  -7  -6    5.39    0.56
  -4  -7  -6    4.44    0.96
  -4  -7  -6    5.74    0.50
   4   7   6    6.79    0.83
   4   7   6    5.21    0.62
   4   7   6    4.74    0.80
   4   7   6    5.94    0.64
  -5  -7  -6    3.04    0.78
  -5  -7  -6    2.44    0.44
   5   7   6    3.51    0.48
   5   7   6    3.40    0.68
   5   7   6    2.56    0.53
  -6  -7  -6   -0.75    0.73
  -6  -7  -6    0.32    0.29
  -6  -7  -6    0.38    0.39
  -6  -7  -6    0.42    0.42
   6   7   6    0.27    0.53
   6   7   6    1.24    0.51
   6   7   6    0.63    0.58
  -7  -7  -6    0.27    0.48
  -7  -7  -6    0.25    0.86
  -7  -7  -6    0.91    0.42
  -7  -7  -6    0.09    0.50
   7   7   6    0.33    0.58
   7   7   6    0.45    0.67
   7   7   6   -0.18    0.67
  -8  -7  -6    0.41    0.47
  -8  -7  -6   -0.26    0.62
  -8  -7  -6   -0.49    0.54
   8   7   6    0.67    0.85
   8   7   6    0.51    0.77
   8   7   6    0.68    0.73
  -9  -7  -6    1.08    0.85
  -9  -7  -6    1.13    0.71
  -9  -7  -6    1.04    0.68
   9   7   6   -0.48    0.86
   9   7   6   -0.58    0.84
   4  -8  -6    1.02    0.72
   4  -8  -6    1.15    0.82
  -4   8   6    0.15    1.02
  -4   8   6   -0.02    0.71
   3  -8  -6    0.13    0.66
   3  -8  -6    0.89    0.57
   3  -8  -6   -0.79    0.66
  -3   8   6    0.57    0.64
  -3   8   6    1.14    0.95
   2  -8  -6    0.60    0.36
   2  -8  -6    0.57    0.52
   2  -8  -6   -0.07    0.58
   2  -8  -6    0.53    0.45
  -2   8   6    0.51    0.57
  -2   8   6   -0.38    0.81
  -2   8   6   -0.19    0.45
  -2   8   6    0.74    0.71
   1  -8  -6    0.68    0.50
   1  -8  -6   -0.15    0.41
   1  -8  -6    0.04    0.24
   1  -8  -6    0.48    0.41
  -1   8   6    0.74    0.57
  -1   8   6   -1.29    0.71
  -1   8   6   -0.21    0.42
  -1   8   6    0.58    0.57
   0  -8  -6    0.16    0.47
   0  -8  -6    0.44    0.44
   0  -8  -6    0.18    0.33
   0  -8  -6    0.06    0.17
   0   8   6    0.03    0.50
   0   8   6   -0.01    0.44
   0   8   6    0.42    0.67
   0   8   6    0.19    0.46
  -1  -8  -6   -0.11    0.51
  -1  -8  -6    0.51    0.45
  -1  -8  -6   -0.05    0.13
  -1  -8  -6    0.02    0.23
   1   8   6   -0.36    0.43
   1   8   6   -0.12    0.45
   1   8   6    0.78    0.55
   1   8   6    0.03    0.64
  -2  -8  -6    2.71    0.33
  -2  -8  -6    2.56    0.70
  -2  -8  -6    3.03    0.57
  -2  -8  -6    2.33    0.30
  -2  -8  -6    0.68    0.78
   2   8   6    3.57    0.68
   2   8   6    2.85    0.46
   2   8   6    1.76    0.67
   2   8   6    2.56    0.57
   2   8   6    2.98    0.59
  -3  -8  -6   -0.68    0.72
  -3  -8  -6    0.21    0.19
  -3  -8  -6   -0.09    0.15
  -3  -8  -6    0.11    0.41
   3   8   6    1.13    0.55
   3   8   6    0.41    0.28
   3   8   6    0.12    0.37
  -4  -8  -6    6.39    0.59
  -4  -8  -6    5.84    0.77
  -4  -8  -6    6.03    0.51
  -4  -8  -6    5.96    1.02
   4   8   6    7.02    0.86
   4   8   6    4.78    0.66
   4   8   6    6.22    0.73
   4   8   6    6.43    0.45
   4   8   6    6.32    0.64
  -5  -8  -6    0.27    0.22
  -5  -8  -6   -0.21    0.83
  -5  -8  -6    0.25    0.44
   5   8   6    0.43    0.56
   5   8   6    0.07    0.56
   5   8   6    0.16    0.37
  -6  -8  -6    3.44    0.56
  -6  -8  -6    1.11    1.02
  -6  -8  -6    3.26    0.63
  -6  -8  -6    3.55    0.49
   6   8   6    3.57    0.50
   6   8   6    2.36    0.64
   6   8   6    2.70    0.75
   6   8   6    3.01    0.81
  -7  -8  -6   -0.10    0.41
  -7  -8  -6    1.63    0.55
  -7  -8  -6    0.46    1.09
  -7  -8  -6   -0.01    0.48
   7   8   6    0.11    0.74
   7   8   6    1.56    0.64
   7   8   6   -0.06    0.78
  -8  -8  -6    0.35    0.50
  -8  -8  -6   -0.03    0.63
  -8  -8  -6   -0.09    0.61
   8   8   6    0.28    0.89
   8   8   6   -0.76    0.87
   8   8   6    0.65    0.75
  -9  -8  -6    1.60    0.68
  -9  -8  -6    1.85    0.84
  -9  -8  -6    2.51    0.79
   9   8   6    2.34    1.04
   9   8   6    3.34    1.03
   3  -9  -6    1.88    0.83
   3  -9  -6   -0.41    0.65
  -3   9   6   -0.03    0.76
  -3   9   6    0.36    1.02
   2  -9  -6    0.10    0.51
   2  -9  -6    0.69    0.64
  -2   9   6    0.29    0.87
  -2   9   6   -0.17    0.64
   1  -9  -6    0.04    0.33
  -1   9   6   -0.20    0.59
  -1   9   6   -0.49    0.71
  -1   9   6    1.19    0.67
   0  -9  -6    1.49    0.47
   0  -9  -6    0.89    0.64
   0  -9  -6    1.31    0.30
   0   9   6    2.49    0.69
   0   9   6    0.81    0.62
  -1  -9  -6    1.50    0.68
  -1  -9  -6    1.07    0.23
  -1  -9  -6    1.25    0.35
   1   9   6    1.22    0.60
   1   9   6    0.76    0.64
   1   9   6    0.93    0.59
  -2  -9  -6    1.51    0.50
  -2  -9  -6    1.02    0.28
  -2  -9  -6    0.80    0.20
   2   9   6    0.28    0.51
   2   9   6    0.99    0.56
   2   9   6    2.94    0.71
  -3  -9  -6    0.05    0.20
  -3  -9  -6    0.01    0.48
  -3  -9  -6    0.42    0.22
   3   9   6   -0.52    0.45
   3   9   6    1.54    0.61
   3   9   6    0.45    0.39
  -4  -9  -6    0.90    1.00
  -4  -9  -6    0.25    0.18
  -4  -9  -6   -0.08    0.25
  -4  -9  -6    0.20    0.18
  -4  -9  -6   -0.50    0.50
   4   9   6   -0.33    0.61
   4   9   6    0.52    0.42
   4   9   6    0.40    0.28
  -5  -9  -6   -0.03    0.31
  -5  -9  -6   -0.21    0.51
  -5  -9  -6   -0.59    1.06
  -5  -9  -6    0.08    0.21
   5   9   6    0.36    0.64
   5   9   6    0.14    0.37
   5   9   6   -0.05    0.40
   5   9   6   -0.20    0.66
   5   9   6   -0.22    0.35
  -6  -9  -6   -0.96    1.12
  -6  -9  -6   -0.12    0.40
  -6  -9  -6    0.87    0.55
  -6  -9  -6    0.69    0.34
   6   9   6    1.18    0.77
   6   9   6    0.98    0.53
   6   9   6    0.55    0.70
  -7  -9  -6    1.14    0.64
  -7  -9  -6    2.24    0.48
  -7  -9  -6    2.93    0.61
   7   9   6   -0.49    0.85
   7   9   6    1.12    0.65
   7   9   6    3.71    0.96
  -8  -9  -6   -0.31    0.67
  -8  -9  -6   -1.00    0.47
  -8  -9  -6    0.44    0.66
   8   9   6    0.94    0.81
   8   9   6   -0.30    0.92
   2 -10  -6    3.83    0.79
   2 -10  -6    2.41    0.98
   2 -10  -6    2.80    0.67
   2 -10  -6    1.58    0.85
  -2  10   6    1.86    0.93
  -2  10   6    0.46    1.10
   1 -10  -6    0.24    0.81
   1 -10  -6   -0.87    0.65
   1 -10  -6   -0.72    0.41
  -1  10   6    0.20    0.89
  -1  10   6    0.17    0.77
   0 -10  -6    6.52    0.96
   0 -10  -6    6.34    0.70
   0 -10  -6    7.08    0.81
   0  10   6   10.62    1.32
   0  10   6    6.02    1.07
  -1 -10  -6    3.37    0.48
  -1 -10  -6    3.99    0.60
  -1 -10  -6    4.96    0.82
   1  10   6    4.88    0.96
   1  10   6    5.50    0.91
  -2 -10  -6    5.33    0.48
  -2 -10  -6    4.63    0.53
  -2 -10  -6    5.19    0.84
   2  10   6    4.34    0.83
   2  10   6    4.58    0.85
  -3 -10  -6    0.06    0.22
  -3 -10  -6    0.01    0.27
  -3 -10  -6    0.92    0.58
   3  10   6   -0.06    0.53
   3  10   6    1.52    0.82
   3  10   6    0.04    0.65
  -4 -10  -6   -0.20    0.25
  -4 -10  -6    0.26    0.25
  -4 -10  -6   -0.31    0.57
   4  10   6   -0.14    0.73
   4  10   6   -0.06    0.49
   4  10   6   -0.35    0.69
  -5 -10  -6    0.13    0.25
  -5 -10  -6    0.40    0.23
  -5 -10  -6    0.21    0.58
  -5 -10  -6   -0.03    0.32
   5  10   6   -0.91    0.84
  -6 -10  -6    0.67    0.34
  -6 -10  -6    0.88    0.40
  -6 -10  -6   -0.82    0.64
   6  10   6    0.56    0.89
   6  10   6   -0.58    0.83
  -7 -10  -6    4.32    0.70
  -7 -10  -6    4.26    0.59
  -7 -10  -6    3.11    0.81
   7  10   6    3.14    1.06
   7  10   6    4.11    0.81
   7  10   6    4.71    1.15
  -8 -10  -6    0.51    0.51
  -8 -10  -6    0.19    0.82
  -8 -10  -6   -0.23    0.66
   8  10   6    1.18    1.09
   8  10   6   -0.23    0.79
   0 -11  -6    2.09    0.48
   0 -11  -6    3.08    0.95
   0  11   6    2.80    1.07
   0  11   6    2.08    1.00
   0  11   6    1.17    1.04
  -1 -11  -6   -1.35    0.79
  -1 -11  -6    1.12    0.37
  -1 -11  -6    1.78    0.60
   1  11   6    0.66    0.98
   1  11   6    1.02    0.90
   1  11   6   -0.15    0.85
  -2 -11  -6    0.91    0.32
  -2 -11  -6    1.35    0.47
  -2 -11  -6    2.08    0.79
   2  11   6    0.88    0.97
   2  11   6    0.83    0.78
   2  11   6   -0.01    0.83
  -3 -11  -6    0.24    0.40
  -3 -11  -6    0.21    0.27
  -3 -11  -6    0.59    0.73
   3  11   6   -0.46    0.65
   3  11   6   -1.24    0.93
   3  11   6   -0.01    0.83
  -4 -11  -6    1.90    0.39
  -4 -11  -6    3.32    0.79
  -4 -11  -6    1.49    0.36
   4  11   6    2.53    1.08
   4  11   6    1.80    0.91
  -5 -11  -6    2.21    0.45
  -5 -11  -6    0.71    0.74
   5  11   6    0.74    1.00
   5  11   6    0.50    0.94
  -6 -11  -6    0.24    0.30
  -6 -11  -6    0.01    0.33
  -6 -11  -6    0.37    0.75
  -6 -11  -6   -0.20    0.43
   6  11   6   -1.31    0.98
   6  11   6    1.32    1.07
  -3 -12  -6    1.76    0.98
   3  12   6   -0.26    1.06
   3  12   6    1.42    1.32
  -4 -12  -6   -0.33    0.94
  -4 -12  -6   -0.50    0.35
   4  12   6   -1.85    1.14
   4  12   6    2.63    1.16
   4   9  -7    3.08    1.13
  -4  -9   7    2.50    0.59
  -4  -9   7    2.80    0.87
  -4  -9   7    1.39    0.85
   3   9  -7   -1.30    0.92
  -3  -9   7    2.03    0.82
  -3  -9   7    0.00    0.84
  -3  -9   7    1.89    0.58
   2   9  -7    6.11    1.15
  -2  -9   7    5.78    0.95
  -2  -9   7    6.51    0.85
  -2  -9   7    4.72    1.02
   1   9  -7   -1.06    1.04
  -1  -9   7    1.40    0.99
  -1  -9   7    1.56    0.67
  -1  -9   7   -0.01    0.67
   0   9  -7    0.86    1.10
   0  -9   7    0.60    1.05
   0  -9   7    0.24    0.73
   0  -9   7    0.45    0.75
   5   8  -7   -0.57    0.90
  -5  -8   7    1.71    0.69
  -5  -8   7    0.59    0.35
  -5  -8   7   -0.15    0.63
   4   8  -7    3.37    0.91
  -4  -8   7    2.41    0.44
  -4  -8   7    2.47    0.73
  -4  -8   7    2.26    0.76
   3   8  -7    1.94    0.89
  -3  -8   7    1.12    0.66
  -3  -8   7    1.00    0.71
  -3  -8   7    0.67    0.42
   2   8  -7    2.19    0.91
  -2  -8   7    0.61    0.71
  -2  -8   7    0.30    0.45
  -2  -8   7    0.64    0.57
   1   8  -7    0.76    0.74
   1   8  -7   -0.53    0.87
  -1  -8   7    0.13    0.58
  -1  -8   7    1.00    0.50
  -1  -8   7    2.94    0.86
   0   8  -7    1.13    0.87
   0   8  -7    1.37    0.84
   0  -8   7    0.69    0.41
   0  -8   7    2.63    0.89
   0  -8   7    1.05    0.59
   0  -8   7    2.42    0.67
  -1   8  -7   -0.05    0.88
  -1   8  -7   -0.06    0.99
   1  -8   7   -0.79    0.64
   1  -8   7    0.30    0.51
   1  -8   7    1.65    0.95
  -2   8  -7    0.27    1.07
  -2   8  -7   -0.01    1.02
   2  -8   7    1.17    0.74
   2  -8   7   -0.63    1.00
  -3   8  -7   -0.84    0.90
  -3   8  -7    1.01    1.29
  -3   8  -7   -3.10    1.18
   3  -8   7    0.21    1.22
   3  -8   7   -0.05    0.74
   6   7  -7    0.90    0.89
  -6  -7   7    0.29    0.65
  -6  -7   7    0.90    0.32
   5   7  -7   -0.64    0.78
  -5  -7   7    0.25    0.60
  -5  -7   7    0.62    0.52
   4   7  -7   -0.04    0.67
  -4  -7   7    0.22    0.28
  -4  -7   7    0.93    0.61
  -4  -7   7    0.48    0.55
   3   7  -7    2.26    0.75
  -3  -7   7    1.75    0.57
  -3  -7   7    1.20    0.55
  -3  -7   7    2.29    0.41
  -3  -7   7    2.78    0.83
   2   7  -7   -0.59    0.67
   2   7  -7    0.62    0.30
   2   7  -7    0.25    0.57
  -2  -7   7    0.04    0.49
  -2  -7   7   -0.86    0.80
  -2  -7   7    0.00    0.56
  -2  -7   7   -0.45    0.56
   1   7  -7    5.46    0.99
   1   7  -7    2.92    0.69
   1   7  -7    3.59    0.44
  -1  -7   7    2.40    0.81
  -1  -7   7    3.03    0.52
  -1  -7   7    2.91    0.62
  -1  -7   7    2.44    0.72
   0   7  -7    0.74    0.22
   0   7  -7   -1.07    0.62
   0   7  -7    0.92    0.74
   0  -7   7    0.79    0.30
   0  -7   7   -0.07    0.42
   0  -7   7   -1.41    0.80
   0  -7   7    1.02    0.51
   0  -7   7   -0.37    0.66
  -1   7  -7    0.59    0.71
  -1   7  -7    0.72    0.69
  -1   7  -7    0.37    0.18
   1  -7   7    0.01    0.53
   1  -7   7   -0.43    0.36
   1  -7   7   -1.45    1.04
   1  -7   7   -0.91    0.72
  -2   7  -7   -0.71    0.85
  -2   7  -7    0.59    0.82
   2  -7   7   -0.54    0.55
   2  -7   7    1.02    0.49
   2  -7   7    0.10    0.86
  -3   7  -7    0.90    0.74
  -3   7  -7    0.44    0.93
  -3   7  -7    1.63    0.93
   3  -7   7    1.12    0.62
   3  -7   7   -0.13    1.01
   3  -7   7    0.61    0.60
  -4   7  -7    0.10    0.90
  -4   7  -7    0.99    1.13
  -4   7  -7   -0.38    1.15
   4  -7   7    0.61    0.85
   4  -7   7    1.27    1.26
   7   6  -7    0.00    0.99
  -7  -6   7    0.48    0.71
   6   6  -7   -0.96    0.74
  -6  -6   7   -0.45    0.56
  -6  -6   7   -0.24    0.75
  -6  -6   7    0.25    0.23
   5   6  -7    0.96    0.67
  -5  -6   7   -0.02    0.39
  -5  -6   7    0.11    0.21
  -5  -6   7    0.03    0.48
   4   6  -7    1.72    0.65
   4   6  -7   -0.63    0.62
   4   6  -7    0.40    0.40
  -4  -6   7   -0.28    0.58
  -4  -6   7    0.08    0.44
  -4  -6   7    0.60    0.44
  -4  -6   7    0.61    0.43
  -4  -6   7    0.32    0.22
  -4  -6   7    0.45    0.68
   3   6  -7    1.86    0.69
   3   6  -7    2.30    0.48
   3   6  -7    1.79    0.39
   3   6  -7    1.80    0.57
  -3  -6   7    2.29    0.35
  -3  -6   7    2.36    0.54
  -3  -6   7    1.96    0.52
  -3  -6   7    1.88    0.52
  -3  -6   7    1.52    0.68
  -3  -6   7    2.63    0.53
   2   6  -7    0.91    0.46
   2   6  -7   -0.13    0.26
   2   6  -7   -0.09    0.43
   2   6  -7   -0.05    0.56
  -2  -6   7   -0.31    0.64
  -2  -6   7   -0.66    0.48
  -2  -6   7    0.11    0.26
  -2  -6   7    0.21    0.44
  -2  -6   7   -0.27    0.37
   1   6  -7    0.88    0.24
   1   6  -7    0.49    0.35
   1   6  -7   -0.03    0.57
   1   6  -7    0.13    0.53
  -1  -6   7    1.14    0.40
  -1  -6   7    2.11    0.76
  -1  -6   7    0.35    0.57
  -1  -6   7    1.28    0.37
  -1  -6   7    1.30    0.56
   0   6  -7    2.47    0.27
   0   6  -7    2.36    0.71
   0   6  -7    2.32    0.60
   0  -6   7    2.10    0.30
   0  -6   7    2.76    0.69
   0  -6   7    2.01    0.49
   0  -6   7    2.66    0.50
   0  -6   7    2.47    0.70
  -1   6  -7    0.19    0.57
  -1   6  -7    0.02    0.63
  -1   6  -7    0.11    0.15
   1  -6   7    0.38    0.74
   1  -6   7   -0.02    0.43
   1  -6   7    0.36    0.60
   1  -6   7    0.45    0.29
   1  -6   7   -1.79    0.71
  -2   6  -7    0.96    0.34
  -2   6  -7    0.82    0.72
  -2   6  -7    1.48    0.69
   2  -6   7    0.75    0.73
   2  -6   7    0.38    0.78
   2  -6   7    1.38    0.41
   2  -6   7    0.37    0.50
  -3   6  -7    3.38    0.95
  -3   6  -7    3.80    0.92
  -3   6  -7    2.32    0.53
  -3   6  -7    2.33    0.73
   3  -6   7    3.74    0.90
   3  -6   7    2.34    0.58
   3  -6   7    3.23    0.64
  -4   6  -7   -0.02    0.73
  -4   6  -7    0.30    0.64
  -4   6  -7    0.54    0.81
  -4   6  -7    0.21    0.95
   4  -6   7    0.22    0.61
   4  -6   7    0.75    0.72
   4  -6   7   -0.20    0.96
  -5   6  -7    1.69    1.16
  -5   6  -7    2.33    0.94
  -5   6  -7    1.84    1.09
  -5   6  -7    1.37    0.92
   5  -6   7    2.21    1.22
   5  -6   7    2.76    0.90
  -7  -5   7    0.36    0.66
   6   5  -7   -0.96    0.66
  -6  -5   7    0.06    0.19
  -6  -5   7    0.13    0.53
  -6  -5   7    0.12    0.67
   5   5  -7    0.02    0.47
   5   5  -7    0.02    0.63
  -5  -5   7   -0.60    0.42
  -5  -5   7   -0.07    0.17
  -5  -5   7   -1.09    0.63
  -5  -5   7   -0.26    0.58
  -5  -5   7    0.15    0.23
  -5  -5   7   -0.36    0.25
   4   5  -7    0.53    0.58
   4   5  -7    1.05    0.31
   4   5  -7    1.54    0.41
   4   5  -7    1.52    0.34
  -4  -5   7    1.65    0.37
  -4  -5   7    0.88    0.46
  -4  -5   7    3.50    0.66
  -4  -5   7    1.72    0.44
  -4  -5   7    1.38    0.23
  -4  -5   7    1.04    0.48
   3   5  -7   -0.23    0.40
   3   5  -7    0.37    0.47
   3   5  -7    0.07    0.28
  -3  -5   7    0.17    0.41
  -3  -5   7    0.27    0.53
  -3  -5   7    0.92    0.40
  -3  -5   7    0.13    0.18
  -3  -5   7   -0.03    0.36
   2   5  -7    0.40    0.33
   2   5  -7   -0.37    0.44
   2   5  -7    0.20    0.23
  -2  -5   7    0.28    0.22
  -2  -5   7    0.14    0.39
  -2  -5   7    0.14    0.52
  -2  -5   7   -0.41    0.34
  -2  -5   7    0.53    0.39
  -2  -5   7    0.43    0.29
   1   5  -7    7.04    0.82
   1   5  -7    8.16    0.54
   1   5  -7    7.69    0.63
  -1  -5   7    8.51    0.60
  -1  -5   7    6.27    0.85
  -1  -5   7    7.76    0.65
  -1  -5   7    7.82    0.86
   0   5  -7    0.18    0.14
   0   5  -7   -0.13    0.23
   0   5  -7    0.15    0.45
   0  -5   7    0.37    0.30
   0  -5   7   -0.56    0.62
   0  -5   7    0.89    0.55
   0  -5   7    0.23    0.62
   0  -5   7    0.07    0.18
  -1   5  -7   -0.31    0.48
  -1   5  -7    0.02    0.20
  -1   5  -7   -0.20    0.52
  -1   5  -7    0.15    0.10
   1  -5   7   -0.08    0.36
   1  -5   7    0.72    0.51
   1  -5   7   -0.12    0.23
   1  -5   7   -0.10    0.60
   1  -5   7   -0.17    0.58
  -2   5  -7    2.81    0.74
  -2   5  -7    1.95    0.34
  -2   5  -7    1.16    0.56
   2  -5   7    1.44    0.65
   2  -5   7    2.59    0.80
   2  -5   7    1.68    0.47
   2  -5   7    1.77    0.63
   2  -5   7    2.32    0.38
  -3   5  -7   31.47    1.82
  -3   5  -7   33.51    2.16
  -3   5  -7   32.12    2.07
  -3   5  -7   31.89    2.23
   3  -5   7   31.92    1.90
   3  -5   7   31.85    2.11
   3  -5   7   33.52    1.74
   3  -5   7   33.13    1.99
  -4   5  -7    0.69    0.55
  -4   5  -7    1.61    0.80
  -4   5  -7    0.75    0.76
  -4   5  -7    0.76    0.64
   4  -5   7    1.74    0.79
   4  -5   7    0.88    0.53
   4  -5   7    0.59    0.56
  -5   5  -7    1.23    0.88
  -5   5  -7    0.98    0.77
  -5   5  -7    0.17    0.72
  -5   5  -7    0.57    0.97
   5  -5   7    2.13    0.67
   5  -5   7    0.25    0.95
   5  -5   7    1.77    0.76
  -6   5  -7   -0.69    1.03
  -6   5  -7   -0.18    0.96
  -6   5  -7   -0.41    0.93
   6  -5   7    1.40    0.84
   6  -5   7   -1.95    0.86
   6  -5   7   -1.44    1.20
  -7  -4   7   -0.63    0.75
  -7  -4   7    0.07    0.52
   6   4  -7    0.27    0.71
  -6  -4   7    0.08    0.44
  -6  -4   7    0.79    0.73
  -6  -4   7    0.15    0.17
  -6  -4   7   -0.59    0.67
  -6  -4   7    0.82    0.39
   5   4  -7    1.21    0.59
   5   4  -7   -0.02    0.46
  -5  -4   7   -0.06    0.51
  -5  -4   7   -0.11    0.13
  -5  -4   7   -0.09    0.12
   4   4  -7    4.13    0.42
   4   4  -7    4.33    0.73
   4   4  -7    3.79    0.54
   4   4  -7    4.65    0.39
  -4  -4   7    3.58    0.49
  -4  -4   7    3.99    0.57
  -4  -4   7    4.21    0.49
  -4  -4   7    4.49    0.49
   3   4  -7    4.93    0.55
   3   4  -7    4.84    0.54
   3   4  -7    4.46    0.60
  -3  -4   7    3.31    0.64
  -3  -4   7    5.02    0.56
  -3  -4   7    4.14    0.37
  -3  -4   7    4.07    0.52
  -3  -4   7    4.75    0.58
  -3  -4   7    3.83    0.55
   2   4  -7   -0.19    0.30
   2   4  -7    0.08    0.22
   2   4  -7    0.42    0.27
   2   4  -7    0.08    0.42
   2   4  -7    0.28    0.32
  -2  -4   7    0.57    0.46
  -2  -4   7    0.26    0.22
  -2  -4   7   -0.14    0.27
  -2  -4   7   -0.19    0.30
  -2  -4   7    0.14    0.36
  -2  -4   7    0.19    0.18
   1   4  -7    3.22    0.61
   1   4  -7    2.30    0.30
   1   4  -7    2.81    0.33
   1   4  -7    2.64    0.47
   1   4  -7    2.26    0.48
  -1  -4   7    2.68    0.52
  -1  -4   7    2.66    0.59
  -1  -4   7    2.72    0.36
  -1  -4   7    2.87    0.49
  -1  -4   7    2.19    0.48
  -1  -4   7    2.53    0.56
  -1  -4   7    2.24    0.28
   0   4  -7    0.20    0.43
   0   4  -7    0.32    0.35
   0   4  -7    0.61    0.18
   0   4  -7    0.72    0.16
   0  -4   7    0.97    0.33
   0  -4   7    0.94    0.48
   0  -4   7    1.06    0.44
   0  -4   7    1.04    0.51
   0  -4   7    0.79    0.27
   0  -4   7    0.97    0.44
  -1   4  -7    0.77    0.44
  -1   4  -7   -0.07    0.14
  -1   4  -7    0.68    0.45
  -1   4  -7    0.14    0.40
  -1   4  -7    0.11    0.11
   1  -4   7    0.98    0.51
   1  -4   7   -0.32    0.44
   1  -4   7   -0.88    0.53
   1  -4   7    0.13    0.45
   1  -4   7    0.09    0.16
   1  -4   7    0.18    0.33
  -2   4  -7    2.99    0.56
  -2   4  -7    1.78    0.31
  -2   4  -7    1.89    0.55
  -2   4  -7    1.93    0.26
   2  -4   7    2.06    0.64
   2  -4   7    1.92    0.61
   2  -4   7    2.59    0.53
   2  -4   7    2.07    0.31
   2  -4   7    2.07    0.46
  -3   4  -7    0.08    0.49
  -3   4  -7    0.16    0.42
  -3   4  -7    0.04    0.33
   3  -4   7    0.97    0.65
   3  -4   7   -0.38    0.74
   3  -4   7   -0.47    0.46
   3  -4   7    0.06    0.30
  -4   4  -7    2.71    0.79
  -4   4  -7    2.45    0.52
  -4   4  -7    1.84    0.59
  -4   4  -7    2.82    0.68
   4  -4   7    1.90    0.57
   4  -4   7    1.74    0.46
   4  -4   7    1.16    0.68
  -5   4  -7    0.34    0.75
  -5   4  -7    0.06    0.70
  -5   4  -7    0.45    0.63
  -5   4  -7    0.67    0.65
   5  -4   7    0.28    0.84
   5  -4   7    1.24    0.52
   5  -4   7    1.34    0.60
  -6   4  -7    0.78    0.78
  -6   4  -7    1.54    0.91
  -6   4  -7    1.38    0.81
   6  -4   7    0.23    1.03
   6  -4   7   -0.05    0.70
   6  -4   7    1.78    0.77
  -7   4  -7    0.42    1.07
  -7   4  -7    1.16    1.01
  -7   4  -7    0.00    1.06
   7  -4   7   -1.29    1.42
   7  -4   7   -0.45    0.96
   7  -4   7   -0.15    1.16
   7  -4   7    0.70    0.94
  -8  -3   7    0.45    1.03
  -7  -3   7    0.52    0.49
  -7  -3   7    0.17    0.76
  -7  -3   7    1.10    0.68
   6   3  -7    1.00    0.56
  -6  -3   7    0.65    0.50
  -6  -3   7    0.51    0.16
  -6  -3   7    0.73    0.40
  -6  -3   7   -0.76    0.63
  -6  -3   7    0.27    0.64
   5   3  -7    7.87    1.02
   5   3  -7    5.04    0.70
  -5  -3   7    6.02    0.68
  -5  -3   7    6.73    0.38
  -5  -3   7    5.09    0.38
  -5  -3   7    7.02    0.81
  -5  -3   7    4.75    0.61
   4   3  -7   15.77    1.46
   4   3  -7   17.51    0.85
   4   3  -7   18.21    1.14
   4   3  -7   18.17    0.85
  -4  -3   7   15.24    1.27
  -4  -3   7   16.20    0.98
  -4  -3   7   18.27    1.03
  -4  -3   7   17.78    0.97
  -4  -3   7   17.32    0.89
  -4  -3   7   19.78    0.89
  -4  -3   7   18.37    1.10
  -4  -3   7   17.35    1.17
   3   3  -7    9.55    0.98
   3   3  -7   10.66    0.71
   3   3  -7   10.35    0.68
   3   3  -7    9.88    0.96
   3   3  -7   10.31    0.75
  -3  -3   7   11.97    0.82
  -3  -3   7   10.28    0.59
  -3  -3   7   10.42    0.82
  -3  -3   7   11.11    0.88
  -3  -3   7   11.31    0.74
  -3  -3   7   10.14    0.69
  -3  -3   7    9.69    0.52
   2   3  -7    8.18    0.87
   2   3  -7    7.73    0.56
   2   3  -7    7.03    0.66
   2   3  -7    7.20    0.86
   2   3  -7    6.40    0.65
   2   3  -7    7.94    0.58
  -2  -3   7    7.42    0.51
  -2  -3   7    7.67    0.81
  -2  -3   7    7.57    0.70
  -2  -3   7    6.88    0.88
  -2  -3   7    8.22    0.66
  -2  -3   7    7.93    0.75
  -2  -3   7    7.64    0.47
   1   3  -7    0.48    0.34
   1   3  -7    0.42    0.36
   1   3  -7    0.22    0.38
   1   3  -7    0.45    0.16
   1   3  -7    0.89    0.36
  -1  -3   7    0.79    0.44
  -1  -3   7    0.39    0.20
  -1  -3   7    0.33    0.40
  -1  -3   7    0.70    0.32
  -1  -3   7    0.29    0.33
  -1  -3   7    0.05    0.25
   0   3  -7    2.47    0.46
   0   3  -7    2.52    0.25
   0   3  -7    2.81    0.27
   0   3  -7    2.78    0.54
   0   3  -7    1.78    0.44
   0  -3   7    1.94    0.41
   0  -3   7    3.67    0.57
   0  -3   7    2.88    0.53
   0  -3   7    3.02    0.48
   0  -3   7    3.05    0.49
  -1   3  -7    0.31    0.12
  -1   3  -7    0.50    0.12
  -1   3  -7    0.43    0.35
  -1   3  -7    0.71    0.38
  -1   3  -7    0.27    0.43
   1  -3   7    0.33    0.39
   1  -3   7    0.99    0.43
   1  -3   7   -0.05    0.41
   1  -3   7    0.34    0.29
   1  -3   7    0.57    0.38
  -2   3  -7    0.16    0.49
  -2   3  -7    0.77    0.22
  -2   3  -7    1.64    0.50
  -2   3  -7    0.35    0.37
  -2   3  -7    1.52    0.44
  -2   3  -7    0.61    0.17
   2  -3   7    1.05    0.46
   2  -3   7    0.99    0.18
   2  -3   7    0.45    0.54
   2  -3   7    1.23    0.38
   2  -3   7    1.25    0.38
   2  -3   7    1.15    0.47
  -3   3  -7    1.28    0.33
  -3   3  -7    1.43    0.51
  -3   3  -7    1.13    0.53
  -3   3  -7    1.11    0.26
  -3   3  -7    1.95    0.64
  -3   3  -7    1.62    0.47
   3  -3   7    1.96    0.57
   3  -3   7    1.17    0.29
   3  -3   7    1.82    0.60
   3  -3   7    1.30    0.39
   3  -3   7    0.30    0.37
  -4   3  -7    2.16    0.68
  -4   3  -7    2.04    0.60
  -4   3  -7    1.75    0.46
  -4   3  -7    1.88    0.48
   4  -3   7    2.82    0.72
   4  -3   7    1.85    0.38
   4  -3   7    3.02    0.60
   4  -3   7    1.28    0.44
  -5   3  -7    3.25    0.69
  -5   3  -7    5.31    0.79
  -5   3  -7    2.19    0.58
   5  -3   7    2.88    0.71
   5  -3   7    2.29    0.56
   5  -3   7    2.08    0.86
   5  -3   7    3.48    0.44
  -6   3  -7    1.75    0.83
  -6   3  -7    2.31    0.77
  -6   3  -7    1.51    0.69
  -6   3  -7   -0.88    0.68
   6  -3   7    0.58    0.59
   6  -3   7    0.65    0.96
   6  -3   7    0.54    0.69
  -7   3  -7    2.38    0.88
  -7   3  -7    3.92    1.05
  -7   3  -7    1.73    0.90
   7  -3   7    0.69    0.79
   7  -3   7    3.18    0.90
   7  -3   7    0.11    1.20
   7  -3   7    0.85    0.99
  -8  -2   7    0.24    1.07
  -8  -2   7   -0.54    0.95
  -7  -2   7    0.19    0.80
  -7  -2   7    0.04    0.71
  -7  -2   7    0.15    0.44
   6   2  -7   -0.78    0.54
  -6  -2   7   -0.01    0.13
  -6  -2   7   -0.42    0.51
  -6  -2   7    0.09    0.65
  -6  -2   7   -0.14    0.37
  -6  -2   7   -0.79    0.56
  -5  -2   7    0.49    0.31
  -5  -2   7    0.29    0.15
  -5  -2   7   -0.41    0.58
  -5  -2   7    0.16    0.09
  -5  -2   7   -0.20    0.40
  -5  -2   7   -0.07    0.39
   4   2  -7    2.33    0.23
   4   2  -7    1.88    0.23
   4   2  -7    2.91    0.50
  -4  -2   7    1.71    0.38
  -4  -2   7    2.28    0.36
  -4  -2   7    2.05    0.30
  -4  -2   7    2.82    0.25
  -4  -2   7    2.45    0.20
  -4  -2   7    1.93    0.51
   3   2  -7   13.26    0.78
   3   2  -7   13.31    0.74
   3   2  -7   12.28    0.84
   3   2  -7   12.84    1.03
   3   2  -7   12.00    1.04
  -3  -2   7   13.77    0.87
  -3  -2   7   13.79    0.93
  -3  -2   7   13.62    0.75
  -3  -2   7   10.78    0.68
  -3  -2   7   11.88    0.89
   2   2  -7    8.02    0.83
   2   2  -7    8.04    0.65
   2   2  -7    7.42    0.60
   2   2  -7    8.09    0.57
   2   2  -7    8.11    0.51
   2   2  -7    6.92    0.74
  -2  -2   7    7.25    0.70
  -2  -2   7    7.52    0.43
  -2  -2   7    8.62    0.50
  -2  -2   7    7.99    0.63
  -2  -2   7    7.60    0.70
  -2  -2   7    7.61    0.49
   1   2  -7    0.28    0.30
   1   2  -7   -0.03    0.31
   1   2  -7    0.24    0.15
   1   2  -7    0.01    0.11
   1   2  -7    0.24    0.29
   1   2  -7    0.17    0.33
  -1  -2   7    0.13    0.35
  -1  -2   7    0.05    0.29
  -1  -2   7    0.53    0.35
  -1  -2   7   -0.41    0.41
  -1  -2   7   -0.22    0.22
  -1  -2   7    0.20    0.18
  -1  -2   7   -0.07    0.27
   0   2  -7    1.92    0.43
   0   2  -7    1.30    0.35
   0   2  -7    1.73    0.40
   0   2  -7    1.79    0.23
   0   2  -7    1.95    0.39
   0   2  -7    1.67    0.18
   0  -2   7    2.05    0.28
   0  -2   7    1.06    0.38
   0  -2   7    1.95    0.48
   0  -2   7    2.39    0.42
   0  -2   7    1.14    0.39
  -1   2  -7    0.64    0.39
  -1   2  -7   -0.03    0.28
  -1   2  -7    0.04    0.10
  -1   2  -7   -0.32    0.29
  -1   2  -7   -0.17    0.32
  -1   2  -7   -0.03    0.08
   1  -2   7   -0.38    0.24
   1  -2   7    0.58    0.31
   1  -2   7    0.62    0.43
   1  -2   7   -0.20    0.36
   1  -2   7   -0.08    0.25
   1  -2   7    0.19    0.34
  -2   2  -7    0.04    0.13
  -2   2  -7   -0.14    0.33
  -2   2  -7   -1.11    0.41
  -2   2  -7    0.05    0.18
  -2   2  -7    0.72    0.35
  -2   2  -7    0.52    0.34
   2  -2   7    0.78    0.41
   2  -2   7    0.52    0.31
   2  -2   7    0.42    0.44
   2  -2   7   -0.68    0.41
   2  -2   7    0.47    0.29
  -3   2  -7   -0.18    0.35
  -3   2  -7   -0.52    0.38
  -3   2  -7    0.11    0.24
  -3   2  -7   -0.20    0.21
  -3   2  -7    0.43    0.39
  -3   2  -7    0.97    0.56
   3  -2   7   -0.26    0.28
   3  -2   7    0.48    0.32
   3  -2   7   -0.20    0.45
  -4   2  -7   -0.65    0.39
  -4   2  -7    0.10    0.61
  -4   2  -7   -0.52    0.42
  -4   2  -7    0.04    0.42
  -4   2  -7    0.38    0.31
  -4   2  -7   -0.05    0.39
  -4   2  -7    0.07    0.31
   4  -2   7   -0.04    0.29
   4  -2   7    0.10    0.27
   4  -2   7   -0.25    0.38
   4  -2   7    0.22    0.52
   4  -2   7    0.70    0.58
  -5   2  -7    0.55    0.53
  -5   2  -7    0.06    0.44
  -5   2  -7   -0.14    0.53
  -5   2  -7   -0.06    0.45
   5  -2   7    0.73    0.40
   5  -2   7    0.19    0.32
   5  -2   7    0.54    0.52
   5  -2   7   -0.83    0.60
  -6   2  -7    3.91    0.76
  -6   2  -7    5.03    0.88
  -6   2  -7    4.97    0.84
  -6   2  -7    3.62    0.76
   6  -2   7    5.27    0.71
   6  -2   7    5.19    0.89
  -7   2  -7    1.35    0.72
  -7   2  -7    1.11    0.77
  -7   2  -7    0.57    0.78
   7  -2   7   -0.09    0.80
   7  -2   7   -0.14    1.00
   7  -2   7   -0.34    0.71
  -8   2  -7    0.41    0.98
  -8   2  -7    1.25    0.99
  -8   2  -7   -0.27    0.89
   8  -2   7   -0.28    1.06
   8  -2   7   -0.94    1.48
  -8  -1   7    1.81    1.15
  -8  -1   7    2.15    1.04
  -7  -1   7    7.30    1.15
  -7  -1   7    8.24    0.85
   6   1  -7    0.59    0.56
  -6  -1   7   -0.04    0.36
  -6  -1   7    0.28    0.13
  -6  -1   7    0.54    0.60
  -6  -1   7   -1.59    0.70
  -6  -1   7   -0.26    0.67
  -6  -1   7   -0.26    0.56
   5   1  -7    1.33    0.49
  -5  -1   7    1.29    0.40
  -5  -1   7    1.01    0.55
  -5  -1   7    2.12    0.65
  -5  -1   7    1.22    0.38
  -5  -1   7    1.36    0.13
   4   1  -7    3.33    0.51
   4   1  -7    3.29    0.28
   4   1  -7    3.10    0.32
  -4  -1   7    3.26    0.30
  -4  -1   7    3.75    0.49
  -4  -1   7    4.02    0.47
  -4  -1   7    2.94    0.36
  -4  -1   7    3.40    0.38
  -4  -1   7    3.54    0.40
  -4  -1   7    3.90    0.57
   3   1  -7   12.80    0.80
   3   1  -7   14.24    0.86
   3   1  -7   12.25    1.06
   3   1  -7   12.84    0.73
   3   1  -7   12.45    0.97
  -3  -1   7   13.41    0.81
  -3  -1   7   11.87    0.89
  -3  -1   7   12.20    1.03
  -3  -1   7   13.25    0.84
  -3  -1   7   13.17    0.88
  -3  -1   7   12.61    0.70
   2   1  -7   -0.13    0.27
   2   1  -7    0.22    0.30
   2   1  -7    0.08    0.21
   2   1  -7    0.00    0.29
   2   1  -7   -0.05    0.18
  -2  -1   7    0.48    0.26
  -2  -1   7    0.09    0.28
  -2  -1   7    0.14    0.33
  -2  -1   7    0.35    0.15
  -2  -1   7    0.33    0.39
  -2  -1   7    0.05    0.26
   1   1  -7    5.68    0.42
   1   1  -7    5.73    0.35
   1   1  -7    5.83    0.62
   1   1  -7    5.53    0.66
   1   1  -7    6.55    0.61
  -1  -1   7    5.97    0.57
  -1  -1   7    5.60    0.58
  -1  -1   7    6.01    0.75
  -1  -1   7    5.35    0.64
  -1  -1   7    5.21    0.64
   0   1  -7    3.73    0.23
   0   1  -7    3.58    0.47
   0   1  -7    3.26    0.29
   0   1  -7    3.94    0.53
   0   1  -7    4.03    0.52
   0   1  -7    3.62    0.55
   0  -1   7    3.64    0.50
   0  -1   7    2.91    0.43
   0  -1   7    3.19    0.53
   0  -1   7    4.22    0.60
   0  -1   7    4.04    0.43
   0  -1   7    4.09    0.55
  -1   1  -7    0.85    0.12
  -1   1  -7    0.92    0.15
  -1   1  -7    1.42    0.40
  -1   1  -7    1.12    0.35
  -1   1  -7    1.08    0.32
  -1   1  -7    0.61    0.29
   1  -1   7    1.41    0.41
   1  -1   7   -0.21    0.32
   1  -1   7    1.07    0.28
   1  -1   7    0.97    0.28
  -2   1  -7    0.05    0.27
  -2   1  -7   -0.12    0.30
  -2   1  -7    0.21    0.28
  -2   1  -7    0.26    0.16
  -2   1  -7    0.37    0.40
  -2   1  -7    0.16    0.16
   2  -1   7    0.11    0.37
   2  -1   7    0.09    0.37
   2  -1   7    0.07    0.38
   2  -1   7    0.01    0.32
   2  -1   7    0.01    0.26
  -3   1  -7    1.15    0.34
  -3   1  -7    0.78    0.23
  -3   1  -7    0.36    0.35
  -3   1  -7    1.13    0.50
  -3   1  -7    0.96    0.42
  -3   1  -7    0.24    0.22
   3  -1   7    0.29    0.44
   3  -1   7    0.52    0.41
   3  -1   7    1.44    0.53
   3  -1   7    0.76    0.37
  -4   1  -7    0.53    0.39
  -4   1  -7    0.11    0.36
  -4   1  -7    0.00    0.37
  -4   1  -7   -0.03    0.29
  -4   1  -7    0.25    0.30
  -4   1  -7    0.16    0.56
   4  -1   7   -0.22    0.51
   4  -1   7    0.19    0.46
   4  -1   7    0.10    0.36
   4  -1   7    0.04    0.52
  -5   1  -7    0.95    0.42
  -5   1  -7    0.41    0.44
  -5   1  -7    1.21    0.67
  -5   1  -7    0.68    0.43
  -5   1  -7    0.55    0.48
   5  -1   7    1.91    0.64
   5  -1   7    0.67    0.51
  -6   1  -7    0.29    0.50
  -6   1  -7   -0.03    0.85
  -6   1  -7    0.74    0.59
  -6   1  -7    0.85    0.56
   6  -1   7   -0.10    0.72
   6  -1   7    0.30    0.27
  -7   1  -7    0.10    0.70
  -7   1  -7    0.42    0.64
  -7   1  -7    1.41    0.71
  -7   1  -7    0.42    0.60
   7  -1   7   -0.12    0.68
   7  -1   7   -0.04    0.65
   7  -1   7    0.37    0.93
  -8   1  -7    2.35    0.89
  -8   1  -7    1.66    0.83
  -8   1  -7    0.09    0.83
   8  -1   7    1.13    0.93
   8  -1   7    0.19    1.15
   7   0  -7    0.92    0.78
  -7   0   7    1.09    0.83
  -7   0   7    2.24    0.98
   6   0  -7    2.45    0.69
  -6   0   7    2.20    0.74
  -6   0   7    2.61    0.44
  -6   0   7    2.02    0.79
   5   0  -7    2.49    0.57
   5   0  -7    3.13    0.59
  -5   0   7    2.09    0.37
  -5   0   7    1.98    0.25
  -5   0   7    1.91    0.28
  -5   0   7    2.20    0.53
   4   0  -7    0.30    0.24
   4   0  -7    0.03    0.17
   4   0  -7    0.28    0.35
   4   0  -7    0.10    0.32
  -4   0   7   -0.25    0.36
  -4   0   7    0.23    0.25
  -4   0   7    0.24    0.22
  -4   0   7    0.11    0.15
  -4   0   7    0.28    0.24
  -4   0   7   -0.24    0.45
  -4   0   7    0.05    0.22
   3   0  -7    1.38    0.32
   3   0  -7    0.74    0.30
   3   0  -7    1.13    0.31
   3   0  -7    1.06    0.32
   3   0  -7    0.85    0.21
  -3   0   7    1.50    0.33
  -3   0   7    0.92    0.29
  -3   0   7    1.12    0.29
  -3   0   7    1.10    0.18
  -3   0   7    1.15    0.28
  -3   0   7    1.62    0.46
   2   0  -7    7.33    0.57
   2   0  -7    6.90    0.62
   2   0  -7    7.75    0.70
   2   0  -7    7.22    0.55
   2   0  -7    7.32    0.54
   2   0  -7    7.79    0.77
  -2   0   7    8.11    0.63
  -2   0   7    7.63    0.67
  -2   0   7    9.31    0.65
  -2   0   7    7.03    0.79
   1   0  -7    1.77    0.26
   1   0  -7    1.79    0.38
   1   0  -7    2.38    0.38
   1   0  -7    1.54    0.37
  -1   0   7    2.05    0.27
  -1   0   7    2.32    0.39
  -1   0   7    1.82    0.46
  -1   0   7    1.58    0.37
   0   0  -7    0.83    0.25
   0   0  -7    1.18    0.17
   0   0  -7    0.77    0.09
   0   0  -7    1.01    0.32
   0   0  -7    1.81    0.38
   0   0  -7    0.75    0.29
   0   0   7    0.67    0.23
   0   0   7    0.91    0.34
   0   0   7    0.64    0.31
   0   0   7    1.01    0.34
   0   0   7    1.35    0.32
  -1   0  -7    1.99    0.38
  -1   0  -7    2.10    0.21
  -1   0  -7    2.26    0.20
  -1   0  -7    1.95    0.39
  -1   0  -7    2.25    0.35
  -1   0  -7    1.48    0.41
   1   0   7    1.92    0.40
   1   0   7    1.41    0.36
   1   0   7    2.22    0.45
   1   0   7    1.97    0.45
   1   0   7    2.07    0.35
   1   0   7    1.78    0.36
  -2   0  -7    1.17    0.38
  -2   0  -7    0.93    0.20
  -2   0  -7    1.87    0.48
  -2   0  -7    0.92    0.30
  -2   0  -7    0.92    0.30
   2   0   7    1.12    0.38
   2   0   7    1.37    0.42
   2   0   7    0.80    0.33
   2   0   7    1.32    0.38
   2   0   7    1.45    0.33
  -3   0  -7    0.70    0.23
  -3   0  -7    0.83    0.12
  -3   0  -7    0.36    0.24
  -3   0  -7    0.01    0.44
  -3   0  -7    0.70    0.32
  -3   0  -7    0.87    0.30
  -3   0  -7    0.54    0.36
   3   0   7    1.52    0.43
   3   0   7    0.84    0.41
   3   0   7    0.67    0.41
   3   0   7    0.78    0.32
   3   0   7    0.76    0.40
  -4   0  -7    1.21    0.36
  -4   0  -7    1.21    0.33
  -4   0  -7    1.84    0.24
  -4   0  -7    1.57    0.35
  -4   0  -7    0.40    0.51
  -4   0  -7    1.03    0.45
  -4   0  -7    1.27    0.38
   4   0   7    0.79    0.47
   4   0   7    1.49    0.47
   4   0   7    1.18    0.55
   4   0   7    2.35    0.55
   4   0   7    1.53    0.54
  -5   0  -7   -0.88    0.58
  -5   0  -7    0.47    0.40
  -5   0  -7    0.20    0.34
  -5   0  -7    0.02    0.37
  -5   0  -7   -0.31    0.39
  -5   0  -7    0.75    0.47
  -5   0  -7    0.16    0.26
   5   0   7   -0.18    0.59
   5   0   7   -0.26    0.40
   5   0   7    0.13    0.53
   5   0   7   -0.43    0.63
  -6   0  -7   -0.93    0.77
  -6   0  -7    1.21    0.57
  -6   0  -7    0.23    0.40
  -6   0  -7    0.87    0.47
  -6   0  -7   -0.14    0.43
   6   0   7    0.40    0.52
   6   0   7    0.31    0.52
   6   0   7    0.13    0.67
  -7   0  -7   -0.02    0.54
  -7   0  -7    1.09    0.59
  -7   0  -7    0.62    0.66
  -7   0  -7    1.02    0.60
  -7   0  -7    1.64    0.62
  -7   0  -7    2.00    1.02
   7   0   7    0.00    0.81
   7   0   7    2.99    0.80
   7   0   7    1.41    0.37
  -8   0  -7   -0.21    0.65
  -8   0  -7   -0.82    0.74
  -8   0  -7   -0.25    0.70
  -8   0  -7    0.13    0.71
   8   0   7    0.56    0.81
   8   0   7    0.79    1.07
  -9   0  -7    3.01    1.11
  -9   0  -7    5.94    1.14
  -9   0  -7    3.40    1.13
   9   0   7    5.79    1.28
   7  -1  -7    1.86    0.88
  -7   1   7    0.04    0.99
   6  -1  -7    2.18    0.64
   6  -1  -7    1.16    0.64
  -6   1   7    1.10    0.25
  -6   1   7    1.33    0.28
  -6   1   7    1.02    0.37
  -6   1   7   -0.56    0.72
   5  -1  -7   -0.80    0.43
   5  -1  -7    1.05    0.29
   5  -1  -7   -0.16    0.20
   5  -1  -7   -0.11    0.42
  -5   1   7    0.04    0.44
  -5   1   7    0.19    0.32
  -5   1   7   -0.09    0.23
  -5   1   7   -0.13    0.60
  -5   1   7   -0.30    0.30
   4  -1  -7    0.69    0.40
   4  -1  -7    0.56    0.37
   4  -1  -7   -0.01    0.33
   4  -1  -7    0.78    0.22
  -4   1   7    0.64    0.18
  -4   1   7    0.15    0.29
  -4   1   7    0.73    0.30
  -4   1   7    0.62    0.25
  -4   1   7    0.10    0.52
  -4   1   7    1.50    0.54
   3  -1  -7    2.24    0.43
   3  -1  -7    1.89    0.39
   3  -1  -7    2.73    0.37
   3  -1  -7    2.13    0.39
  -3   1   7    2.93    0.41
  -3   1   7    2.43    0.36
  -3   1   7    2.20    0.29
  -3   1   7    2.35    0.27
  -3   1   7    2.27    0.37
  -3   1   7    2.30    0.37
   2  -1  -7    9.32    0.69
   2  -1  -7    9.65    0.67
   2  -1  -7    9.59    0.67
   2  -1  -7    9.07    0.80
   2  -1  -7    9.25    0.65
  -2   1   7   10.29    0.59
  -2   1   7    8.79    0.72
  -2   1   7    9.93    0.90
  -2   1   7    9.59    0.61
  -2   1   7    9.58    0.72
  -2   1   7    9.05    0.73
   1  -1  -7    4.42    0.49
   1  -1  -7    4.32    0.44
   1  -1  -7    3.28    0.33
   1  -1  -7    3.51    0.36
   1  -1  -7    3.07    0.48
   1  -1  -7    3.31    0.48
  -1   1   7    2.81    0.46
  -1   1   7    3.59    0.54
  -1   1   7    3.29    0.36
  -1   1   7    4.02    0.49
   0  -1  -7    1.20    0.15
   0  -1  -7    1.28    0.40
   0  -1  -7    1.02    0.35
   0  -1  -7    1.69    0.30
   0  -1  -7    1.10    0.18
   0  -1  -7    1.07    0.32
   0   1   7    1.08    0.35
   0   1   7    0.92    0.27
   0   1   7    1.25    0.38
   0   1   7    1.69    0.35
   0   1   7    1.02    0.23
  -1  -1  -7    3.43    0.46
  -1  -1  -7    3.28    0.44
  -1  -1  -7    3.79    0.53
  -1  -1  -7    3.14    0.26
  -1  -1  -7    3.38    0.48
  -1  -1  -7    3.02    0.26
   1   1   7    3.50    0.50
   1   1   7    2.07    0.42
   1   1   7    2.67    0.38
   1   1   7    2.71    0.52
   1   1   7    3.41    0.46
  -2  -1  -7    7.21    0.66
  -2  -1  -7    7.06    0.60
  -2  -1  -7    7.60    0.74
  -2  -1  -7    6.68    0.67
  -2  -1  -7    6.42    0.38
  -2  -1  -7    7.48    0.49
   2   1   7    6.81    0.65
   2   1   7    6.71    0.78
   2   1   7    7.40    0.70
   2   1   7    5.75    0.67
   2   1   7    7.26    0.69
  -3  -1  -7    2.72    0.54
  -3  -1  -7    2.38    0.34
  -3  -1  -7    2.64    0.43
  -3  -1  -7    2.15    0.25
  -3  -1  -7    2.34    0.46
  -3  -1  -7    2.79    0.40
   3   1   7    2.76    0.53
   3   1   7    2.37    0.46
   3   1   7    2.45    0.44
   3   1   7    2.38    0.47
   3   1   7    1.79    0.46
  -4  -1  -7    0.08    0.37
  -4  -1  -7    0.01    0.25
  -4  -1  -7    0.68    0.28
  -4  -1  -7    1.32    0.54
  -4  -1  -7    0.47    0.21
  -4  -1  -7    0.13    0.35
   4   1   7    0.57    0.38
   4   1   7   -0.28    0.43
   4   1   7    0.57    0.46
   4   1   7    0.75    0.50
   4   1   7    0.17    0.43
  -5  -1  -7    4.11    0.51
  -5  -1  -7    3.09    0.62
  -5  -1  -7    3.26    0.60
  -5  -1  -7    3.68    0.46
  -5  -1  -7    4.26    0.80
  -5  -1  -7    3.68    0.54
   5   1   7    2.37    0.64
   5   1   7    4.45    0.70
   5   1   7    4.34    0.73
   5   1   7    3.43    0.73
   5   1   7    3.48    0.73
   5   1   7    4.24    0.70
  -6  -1  -7    1.38    0.68
  -6  -1  -7    1.24    0.43
  -6  -1  -7    0.99    0.47
  -6  -1  -7    0.73    0.36
  -6  -1  -7    0.28    0.50
   6   1   7    0.51    0.63
   6   1   7    0.69    0.54
   6   1   7    1.46    0.61
  -7  -1  -7   -1.17    0.45
  -7  -1  -7   -0.42    0.56
  -7  -1  -7    0.14    0.49
  -7  -1  -7    0.72    0.88
  -7  -1  -7    0.57    0.44
  -7  -1  -7    0.57    0.55
   7   1   7   -0.47    0.62
   7   1   7   -0.84    0.72
   7   1   7    0.14    0.41
  -8  -1  -7   -0.18    0.69
  -8  -1  -7    1.06    0.67
  -8  -1  -7    1.22    0.55
  -8  -1  -7    0.37    0.58
   8   1   7    0.57    0.95
   8   1   7    0.38    0.81
  -9  -1  -7    3.17    0.95
  -9  -1  -7    3.00    1.02
  -9  -1  -7    2.70    0.81
   9   1   7    1.88    1.05
   7  -2  -7    0.34    0.87
  -7   2   7   -0.22    1.05
   6  -2  -7    0.10    0.65
   6  -2  -7    1.18    0.69
  -6   2   7    0.92    0.83
   5  -2  -7    0.49    0.51
   5  -2  -7    0.11    0.55
   5  -2  -7    0.07    0.49
   5  -2  -7    0.50    0.29
  -5   2   7    0.59    0.30
  -5   2   7    0.07    0.38
  -5   2   7    0.21    0.30
  -5   2   7   -0.73    0.59
  -5   2   7    0.20    0.37
   4  -2  -7    1.74    0.50
   4  -2  -7    1.57    0.49
   4  -2  -7    1.12    0.43
  -4   2   7    1.30    0.34
  -4   2   7    1.93    0.35
  -4   2   7    1.93    0.37
  -4   2   7    1.14    0.32
   3  -2  -7    2.10    0.34
   3  -2  -7    2.01    0.48
   3  -2  -7    1.96    0.32
   3  -2  -7    2.37    0.44
   3  -2  -7    2.39    0.43
  -3   2   7    3.06    0.42
  -3   2   7    2.89    0.31
  -3   2   7    1.85    0.38
  -3   2   7    2.18    0.41
  -3   2   7    2.11    0.32
   2  -2  -7    0.78    0.29
   2  -2  -7    0.56    0.37
   2  -2  -7    0.44    0.24
   2  -2  -7    0.89    0.27
   2  -2  -7    0.31    0.24
  -2   2   7    0.35    0.25
  -2   2   7    0.86    0.31
  -2   2   7    0.52    0.31
  -2   2   7    0.94    0.42
  -2   2   7    0.71    0.19
   1  -2  -7    0.94    0.21
   1  -2  -7    0.82    0.20
   1  -2  -7    1.05    0.30
   1  -2  -7    1.06    0.43
   1  -2  -7    0.80    0.24
  -1   2   7    0.94    0.21
  -1   2   7    1.25    0.36
  -1   2   7    0.55    0.28
  -1   2   7    0.85    0.28
   0  -2  -7    2.21    0.26
   0  -2  -7    2.50    0.39
   0  -2  -7    2.63    0.37
   0  -2  -7    1.99    0.47
   0  -2  -7    2.88    0.44
   0  -2  -7    2.86    0.27
   0   2   7    2.68    0.45
   0   2   7    2.93    0.46
   0   2   7    2.26    0.48
   0   2   7    2.85    0.38
   0   2   7    2.88    0.45
  -1  -2  -7    2.25    0.39
  -1  -2  -7    3.29    0.26
  -1  -2  -7    2.72    0.49
  -1  -2  -7    3.18    0.32
  -1  -2  -7    3.21    0.44
  -1  -2  -7    3.05    0.42
  -1  -2  -7    3.18    0.27
   1   2   7    3.14    0.45
   1   2   7    3.13    0.46
   1   2   7    3.73    0.46
   1   2   7    3.00    0.52
  -2  -2  -7   -0.01    0.20
  -2  -2  -7   -0.40    0.37
  -2  -2  -7    0.03    0.12
  -2  -2  -7    0.26    0.27
  -2  -2  -7    0.07    0.24
   2   2   7   -0.08    0.29
   2   2   7   -0.59    0.31
   2   2   7   -0.32    0.30
   2   2   7   -0.28    0.27
   2   2   7    0.25    0.30
  -3  -2  -7    1.90    0.31
  -3  -2  -7    1.90    0.52
  -3  -2  -7    2.11    0.29
  -3  -2  -7    2.32    0.34
  -3  -2  -7    2.47    0.45
  -3  -2  -7    1.82    0.41
   3   2   7    2.01    0.41
   3   2   7    1.99    0.48
   3   2   7    2.26    0.49
   3   2   7    3.01    0.51
   3   2   7    1.80    0.45
  -4  -2  -7    0.97    0.39
  -4  -2  -7    0.66    0.36
  -4  -2  -7    0.74    0.27
  -4  -2  -7    0.63    0.50
  -4  -2  -7    0.79    0.27
  -4  -2  -7    1.10    0.25
   4   2   7    1.13    0.46
   4   2   7    0.98    0.38
   4   2   7    0.56    0.47
   4   2   7    0.83    0.46
   4   2   7    0.99    0.46
   4   2   7    0.24    0.36
  -5  -2  -7   -0.49    0.30
  -5  -2  -7    0.06    0.26
  -5  -2  -7   -0.13    0.39
  -5  -2  -7    0.13    0.55
  -5  -2  -7    0.44    0.23
  -5  -2  -7   -0.37    0.42
   5   2   7    0.75    0.58
   5   2   7    0.37    0.44
   5   2   7    0.09    0.38
   5   2   7    0.14    0.51
   5   2   7    1.29    0.51
   5   2   7   -0.74    0.48
  -6  -2  -7    0.22    0.39
  -6  -2  -7    0.85    0.30
  -6  -2  -7    0.25    0.44
  -6  -2  -7    0.11    0.71
   6   2   7    0.67    0.59
   6   2   7    1.92    0.75
  -7  -2  -7    8.23    1.06
  -7  -2  -7    5.96    0.87
  -7  -2  -7    5.64    0.78
  -7  -2  -7    6.85    0.86
  -7  -2  -7    6.24    0.69
   7   2   7    6.78    1.04
   7   2   7    7.61    0.88
   7   2   7    6.21    0.97
  -8  -2  -7    2.26    0.71
  -8  -2  -7    1.86    0.46
  -8  -2  -7    2.20    0.71
  -8  -2  -7    1.75    1.18
   8   2   7    2.22    0.55
   8   2   7    2.69    0.86
   8   2   7    0.51    0.90
  -9  -2  -7    0.60    0.90
  -9  -2  -7   -0.26    0.80
   9   2   7    1.58    0.93
   7  -3  -7   -0.62    1.02
  -7   3   7    2.30    1.28
   6  -3  -7    0.70    0.79
   6  -3  -7    1.09    0.74
  -6   3   7   -0.53    0.93
   5  -3  -7    1.16    0.61
   5  -3  -7    1.19    0.58
   5  -3  -7    0.95    0.37
  -5   3   7    1.62    0.48
  -5   3   7    1.18    0.15
  -5   3   7    0.91    0.75
  -5   3   7    1.19    0.39
   4  -3  -7    0.13    0.42
   4  -3  -7   -0.23    0.41
   4  -3  -7   -0.39    0.30
  -4   3   7    0.18    0.38
  -4   3   7    0.10    0.34
  -4   3   7    0.14    0.57
   3  -3  -7    0.26    0.32
   3  -3  -7    0.99    0.49
   3  -3  -7    0.00    0.31
   3  -3  -7    0.46    0.22
   3  -3  -7   -0.25    0.27
  -3   3   7   -0.20    0.29
  -3   3   7   -0.18    0.27
  -3   3   7    0.17    0.18
  -3   3   7   -0.23    0.34
  -3   3   7    0.09    0.45
   2  -3  -7   22.50    1.14
   2  -3  -7   19.83    1.31
   2  -3  -7   18.87    1.15
   2  -3  -7   19.81    1.14
   2  -3  -7   20.45    1.16
  -2   3   7   18.72    1.20
  -2   3   7   19.74    1.08
  -2   3   7   19.87    1.36
  -2   3   7   19.13    1.22
  -2   3   7   19.89    1.24
  -2   3   7   19.61    0.91
   1  -3  -7    0.16    0.25
   1  -3  -7    0.02    0.17
   1  -3  -7   -0.29    0.19
   1  -3  -7   -0.09    0.17
   1  -3  -7    0.12    0.40
  -1   3   7    0.11    0.17
  -1   3   7    0.09    0.27
  -1   3   7    0.34    0.33
  -1   3   7    0.52    0.30
  -1   3   7   -0.23    0.30
   0  -3  -7    2.82    0.53
   0  -3  -7    2.49    0.37
   0  -3  -7    2.32    0.13
   0  -3  -7    2.24    0.26
   0  -3  -7    2.16    0.38
   0   3   7    2.61    0.47
   0   3   7    2.37    0.41
   0   3   7    1.99    0.30
   0   3   7    1.21    0.36
   0   3   7    3.01    0.47
  -1  -3  -7    0.17    0.24
  -1  -3  -7    0.20    0.40
  -1  -3  -7    0.56    0.27
  -1  -3  -7    0.34    0.11
  -1  -3  -7    0.83    0.14
  -1  -3  -7    0.72    0.15
   1   3   7    0.70    0.30
   1   3   7    0.88    0.34
   1   3   7    1.27    0.39
   1   3   7    0.58    0.24
   1   3   7    0.58    0.30
  -2  -3  -7    2.20    0.30
  -2  -3  -7    2.46    0.42
  -2  -3  -7    2.65    0.57
  -2  -3  -7    2.11    0.37
  -2  -3  -7    2.15    0.27
   2   3   7    2.58    0.45
   2   3   7    2.14    0.46
   2   3   7    2.28    0.37
   2   3   7    2.60    0.43
   2   3   7    2.53    0.36
   2   3   7    1.68    0.41
  -3  -3  -7    0.27    0.17
  -3  -3  -7    0.35    0.29
  -3  -3  -7    0.25    0.23
  -3  -3  -7    1.04    0.33
  -3  -3  -7    0.21    0.20
   3   3   7   -0.04    0.32
   3   3   7    0.25    0.34
   3   3   7    0.46    0.35
   3   3   7    0.45    0.31
   3   3   7    0.47    0.39
   3   3   7    0.31    0.39
  -4  -3  -7    1.33    0.40
  -4  -3  -7    0.27    0.35
  -4  -3  -7    0.98    0.27
  -4  -3  -7    0.64    0.31
  -4  -3  -7    1.30    0.23
  -4  -3  -7    1.37    0.53
   4   3   7    1.45    0.46
   4   3   7    1.26    0.50
   4   3   7    1.23    0.38
   4   3   7    1.19    0.44
   4   3   7    1.44    0.49
  -5  -3  -7    0.23    0.37
  -5  -3  -7    0.08    0.28
  -5  -3  -7   -0.29    0.54
  -5  -3  -7    0.46    0.20
  -5  -3  -7    0.38    0.36
  -5  -3  -7    0.57    0.48
   5   3   7    1.09    0.58
   5   3   7    1.39    0.56
   5   3   7    1.08    0.41
   5   3   7    0.81    0.49
   5   3   7   -0.32    0.45
  -6  -3  -7    7.64    0.83
  -6  -3  -7    6.72    0.47
  -6  -3  -7    6.95    1.01
   6   3   7    7.65    0.98
   6   3   7    6.17    0.88
   6   3   7    6.69    0.89
  -7  -3  -7   20.13    1.52
  -7  -3  -7   18.07    1.38
  -7  -3  -7   17.85    1.36
  -7  -3  -7   17.85    1.76
   7   3   7   18.29    1.57
   7   3   7   17.91    1.56
   7   3   7   19.83    1.37
  -8  -3  -7    0.19    0.57
  -8  -3  -7    2.90    1.08
   8   3   7    1.25    0.58
   8   3   7   -0.83    0.79
   8   3   7    1.72    0.75
  -9  -3  -7   -0.04    0.76
  -9  -3  -7    0.31    0.73
   9   3   7    1.10    0.96
   6  -4  -7    1.84    0.85
   6  -4  -7    0.68    0.82
  -6   4   7   -0.65    1.05
  -6   4   7   -0.25    0.50
   5  -4  -7   -0.15    0.63
   5  -4  -7   -0.23    0.59
  -5   4   7   -1.09    0.70
  -5   4   7   -0.13    0.43
   4  -4  -7    3.91    0.67
   4  -4  -7    3.86    0.67
  -4   4   7    2.50    0.60
  -4   4   7    2.70    0.30
  -4   4   7    2.15    0.72
  -4   4   7    3.28    0.53
   3  -4  -7    0.92    0.40
   3  -4  -7    0.50    0.34
   3  -4  -7    0.49    0.22
  -3   4   7    0.70    0.57
  -3   4   7    0.60    0.15
  -3   4   7    0.34    0.36
  -3   4   7    0.20    0.45
   2  -4  -7    0.90    0.23
   2  -4  -7    1.10    0.34
   2  -4  -7    0.57    0.31
   2  -4  -7    0.64    0.61
   2  -4  -7    0.67    0.31
  -2   4   7    0.32    0.35
  -2   4   7    0.75    0.39
  -2   4   7    0.90    0.50
  -2   4   7    0.92    0.50
  -2   4   7    0.63    0.24
   1  -4  -7    9.83    0.78
   1  -4  -7    9.44    1.01
   1  -4  -7   10.63    0.67
   1  -4  -7    9.54    0.68
   1  -4  -7    9.19    0.70
  -1   4   7   10.52    0.83
  -1   4   7   10.19    0.86
  -1   4   7   10.13    0.69
  -1   4   7    8.93    0.89
   0  -4  -7   13.71    0.90
   0  -4  -7   12.97    0.74
   0  -4  -7   13.22    1.11
   0  -4  -7   12.67    0.87
   0   4   7   12.53    0.66
   0   4   7   11.93    0.95
   0   4   7   13.27    0.96
   0   4   7   13.70    0.86
   0   4   7   12.17    1.00
  -1  -4  -7    2.22    0.27
  -1  -4  -7    3.25    0.46
  -1  -4  -7    2.25    0.53
  -1  -4  -7    2.42    0.24
  -1  -4  -7    1.76    0.37
  -1  -4  -7    2.18    0.21
   1   4   7    2.59    0.52
   1   4   7    2.70    0.33
   1   4   7    2.78    0.50
   1   4   7    2.49    0.39
   1   4   7    2.42    0.40
  -2  -4  -7    5.44    0.42
  -2  -4  -7    4.53    0.72
  -2  -4  -7    5.45    0.45
  -2  -4  -7    7.14    0.71
  -2  -4  -7    6.26    0.63
   2   4   7    6.66    0.73
   2   4   7    5.88    0.64
   2   4   7    6.82    0.77
   2   4   7    6.11    0.55
   2   4   7    5.98    0.56
  -3  -4  -7    2.19    0.46
  -3  -4  -7    2.25    0.46
  -3  -4  -7    1.97    0.34
  -3  -4  -7    2.12    0.29
  -3  -4  -7    1.63    0.56
   3   4   7    1.80    0.38
   3   4   7    1.89    0.29
   3   4   7    2.05    0.48
   3   4   7    1.84    0.39
   3   4   7    1.39    0.46
   3   4   7    1.17    0.51
  -4  -4  -7    0.09    0.21
  -4  -4  -7    0.21    0.31
  -4  -4  -7    0.61    0.30
  -4  -4  -7    0.75    0.52
   4   4   7    0.63    0.42
   4   4   7   -0.45    0.44
   4   4   7    0.11    0.36
   4   4   7   -0.20    0.44
   4   4   7    0.04    0.36
  -5  -4  -7    0.52    0.40
  -5  -4  -7    0.25    0.43
  -5  -4  -7    0.36    0.28
  -5  -4  -7    0.82    0.35
  -5  -4  -7    0.46    0.58
   5   4   7    1.45    0.56
   5   4   7    0.51    0.40
   5   4   7    0.50    0.43
   5   4   7    1.05    0.62
   5   4   7    1.09    0.48
  -6  -4  -7   -0.47    0.68
  -6  -4  -7    1.90    0.56
  -6  -4  -7    1.85    0.55
   6   4   7    1.70    0.55
   6   4   7    2.19    0.65
  -7  -4  -7    5.03    0.99
  -7  -4  -7    4.24    0.73
  -7  -4  -7    4.71    0.71
   7   4   7    3.69    0.81
   7   4   7    5.12    0.76
   7   4   7    4.46    0.85
   7   4   7    6.07    0.89
  -8  -4  -7    2.65    1.14
  -8  -4  -7    1.52    0.60
  -8  -4  -7    2.26    0.69
   8   4   7   -0.37    0.74
   8   4   7    1.38    0.85
   8   4   7    1.61    0.63
  -9  -4  -7   -0.41    0.72
  -9  -4  -7    0.64    0.74
   9   4   7    1.12    0.74
   9   4   7   -0.83    0.93
   6  -5  -7    5.10    1.07
  -6   5   7    3.14    0.72
  -6   5   7    3.55    1.37
   5  -5  -7    0.40    0.71
   5  -5  -7    0.69    0.78
  -5   5   7    1.71    0.56
  -5   5   7    0.67    0.90
   4  -5  -7    4.40    0.75
   4  -5  -7    4.67    0.65
   4  -5  -7    4.64    0.80
  -4   5   7    3.77    0.60
  -4   5   7    4.39    0.91
   3  -5  -7    0.40    0.21
   3  -5  -7   -0.58    0.40
   3  -5  -7   -0.09    0.38
   3  -5  -7   -0.33    0.39
  -3   5   7    0.71    0.51
  -3   5   7    0.82    0.61
  -3   5   7   -0.38    0.38
  -3   5   7    0.31    0.22
   2  -5  -7    0.75    0.32
   2  -5  -7    0.43    0.35
   2  -5  -7   -0.02    0.35
  -2   5   7    0.31    0.21
   1  -5  -7   10.97    0.66
   1  -5  -7   12.78    0.81
   1  -5  -7   12.73    0.83
   1  -5  -7   12.13    0.79
   1  -5  -7   11.89    0.90
  -1   5   7   11.91    1.11
  -1   5   7   12.03    1.07
  -1   5   7   12.03    0.82
  -1   5   7   12.74    1.03
  -1   5   7   10.79    0.96
   0  -5  -7    0.34    0.18
   0  -5  -7    0.19    0.09
   0  -5  -7   -0.23    0.26
   0  -5  -7    0.51    0.29
   0   5   7    0.09    0.35
   0   5   7    0.36    0.33
   0   5   7    0.22    0.26
  -1  -5  -7   14.42    1.04
  -1  -5  -7   15.08    0.79
  -1  -5  -7   15.90    0.82
  -1  -5  -7   15.89    1.09
  -1  -5  -7   15.96    1.27
   1   5   7   15.04    1.14
   1   5   7   16.05    0.83
   1   5   7   16.52    1.03
   1   5   7   15.80    1.07
   1   5   7   15.46    1.16
  -2  -5  -7   21.36    1.41
  -2  -5  -7   21.15    1.56
  -2  -5  -7   24.08    1.17
  -2  -5  -7   20.34    1.05
  -2  -5  -7   21.75    1.16
  -2  -5  -7   21.80    1.34
   2   5   7   23.15    1.47
   2   5   7   20.88    1.38
   2   5   7   22.26    1.18
   2   5   7   23.83    1.44
  -3  -5  -7   16.26    1.00
  -3  -5  -7   16.52    1.22
  -3  -5  -7   15.96    0.93
  -3  -5  -7   15.72    1.36
  -3  -5  -7   16.84    1.14
   3   5   7   14.90    0.92
   3   5   7   18.14    1.30
   3   5   7   17.48    1.24
   3   5   7   15.65    1.01
   3   5   7   16.69    1.24
  -4  -5  -7    0.36    0.35
  -4  -5  -7    1.22    0.62
  -4  -5  -7    0.40    0.28
  -4  -5  -7   -0.03    0.18
   4   5   7    0.40    0.37
   4   5   7    0.48    0.44
   4   5   7    0.13    0.51
   4   5   7   -0.31    0.49
   4   5   7   -0.04    0.34
  -5  -5  -7    5.54    0.73
  -5  -5  -7    7.92    0.82
  -5  -5  -7    5.78    0.62
  -5  -5  -7    6.25    0.78
   5   5   7    7.02    0.81
   5   5   7    5.98    0.76
   5   5   7    5.18    0.79
  -6  -5  -7    2.74    0.60
  -6  -5  -7    2.37    0.49
  -6  -5  -7    2.97    0.64
  -6  -5  -7    2.75    0.57
  -6  -5  -7    4.34    0.88
   6   5   7    1.13    0.52
   6   5   7    2.98    0.71
   6   5   7    3.33    0.63
  -7  -5  -7    0.89    0.89
  -7  -5  -7    0.84    0.51
  -7  -5  -7    0.79    0.46
  -7  -5  -7    1.68    0.54
   7   5   7    0.12    0.59
   7   5   7    1.01    0.67
   7   5   7    0.89    0.73
   7   5   7    0.36    0.58
  -8  -5  -7    0.66    0.67
  -8  -5  -7   -0.03    0.55
  -8  -5  -7    1.12    0.62
   8   5   7   -0.10    0.81
   8   5   7    2.51    0.85
   8   5   7    0.85    0.69
  -9  -5  -7    0.39    0.66
  -9  -5  -7    1.16    0.72
  -9  -5  -7    0.27    0.85
   9   5   7   -0.73    0.91
   9   5   7    0.16    0.76
   5  -6  -7    6.30    1.13
   5  -6  -7    9.54    1.16
  -5   6   7    7.20    0.94
  -5   6   7    9.19    1.49
   4  -6  -7    2.01    0.71
   4  -6  -7    1.62    0.64
   4  -6  -7   -0.34    0.56
  -4   6   7   -0.40    0.50
  -4   6   7   -0.76    0.83
   3  -6  -7   -0.36    0.45
   3  -6  -7    0.28    0.20
   3  -6  -7    0.62    0.47
   3  -6  -7   -0.85    0.47
  -3   6   7   -0.67    0.66
  -3   6   7    0.34    0.48
  -3   6   7    0.25    0.73
   2  -6  -7   -0.35    0.41
   2  -6  -7    0.25    0.37
   2  -6  -7    0.41    0.37
  -2   6   7   -0.20    0.28
  -2   6   7    0.63    0.56
  -2   6   7   -0.11    0.41
  -2   6   7   -0.08    0.60
   1  -6  -7    0.71    0.21
   1  -6  -7    1.51    0.40
   1  -6  -7    1.41    0.36
   1  -6  -7    1.44    0.31
   1  -6  -7    1.01    0.29
  -1   6   7    1.10    0.54
  -1   6   7    1.61    0.31
  -1   6   7    0.96    0.52
  -1   6   7   -0.38    0.50
   0  -6  -7   -0.13    0.31
   0  -6  -7    0.42    0.37
   0  -6  -7   -0.01    0.11
   0  -6  -7    0.10    0.22
   0   6   7   -0.32    0.42
   0   6   7   -0.21    0.36
   0   6   7   -0.15    0.49
   0   6   7    0.35    0.44
   0   6   7    0.29    0.41
  -1  -6  -7   14.35    0.77
  -1  -6  -7   12.25    0.69
  -1  -6  -7   12.95    1.32
  -1  -6  -7   13.26    0.98
  -1  -6  -7   14.05    1.04
   1   6   7   13.61    0.97
   1   6   7   12.99    1.06
   1   6   7   13.13    1.01
   1   6   7   13.88    1.14
  -2  -6  -7    0.49    0.41
  -2  -6  -7    0.24    0.15
  -2  -6  -7    0.34    0.14
  -2  -6  -7    1.10    0.38
  -2  -6  -7    0.19    0.15
  -2  -6  -7    0.45    0.65
   2   6   7    0.08    0.28
   2   6   7    0.37    0.39
   2   6   7   -0.43    0.46
   2   6   7    0.61    0.24
   2   6   7    0.36    0.42
  -3  -6  -7    4.19    0.39
  -3  -6  -7    4.19    0.67
  -3  -6  -7    5.60    0.69
  -3  -6  -7    3.96    0.78
  -3  -6  -7    5.13    0.48
   3   6   7    4.49    0.48
   3   6   7    4.30    0.71
   3   6   7    4.90    0.56
   3   6   7    3.84    0.67
  -4  -6  -7    0.23    0.27
  -4  -6  -7    1.24    0.43
  -4  -6  -7   -0.50    0.65
  -4  -6  -7    0.27    0.21
   4   6   7    0.16    0.38
   4   6   7    0.61    0.48
   4   6   7    0.03    0.33
   4   6   7    0.21    0.61
  -5  -6  -7    0.40    0.36
  -5  -6  -7    1.22    0.78
   5   6   7    0.34    0.41
   5   6   7    0.14    0.53
   5   6   7    0.42    0.42
  -6  -6  -7   -0.16    0.42
  -6  -6  -7    0.20    0.32
  -6  -6  -7    0.11    0.80
   6   6   7    0.37    0.53
   6   6   7    0.02    0.59
   6   6   7    0.14    0.50
  -7  -6  -7    1.04    0.48
  -7  -6  -7    2.52    1.07
  -7  -6  -7    2.15    0.62
  -7  -6  -7    1.55    0.56
   7   6   7    1.28    0.72
   7   6   7    0.74    0.63
   7   6   7    0.81    0.56
   7   6   7    0.55    0.63
  -8  -6  -7    0.88    0.71
  -8  -6  -7    1.40    0.62
  -8  -6  -7    1.27    0.63
   8   6   7    0.18    0.88
   8   6   7    1.45    0.78
   8   6   7    1.20    0.78
  -9  -6  -7   -0.87    0.81
  -9  -6  -7    0.20    0.68
  -9  -6  -7   -0.36    0.72
   9   6   7    1.37    0.83
   9   6   7   -0.53    0.93
   4  -7  -7    5.97    1.01
   4  -7  -7    5.78    0.96
  -4   7   7    4.02    1.18
  -4   7   7    6.62    0.94
   3  -7  -7    0.50    0.51
   3  -7  -7   -0.78    0.55
   3  -7  -7   -0.86    0.56
  -3   7   7    0.87    0.58
  -3   7   7    0.58    0.84
   2  -7  -7    0.37    0.31
   2  -7  -7   -0.11    0.42
   2  -7  -7    1.08    0.47
   2  -7  -7   -0.10    0.51
  -2   7   7    0.24    0.63
  -2   7   7    0.38    0.56
  -2   7   7    0.50    0.79
  -2   7   7    0.25    0.38
   1  -7  -7    3.20    0.48
   1  -7  -7    3.44    0.63
   1  -7  -7    2.80    0.56
   1  -7  -7    2.64    0.35
  -1   7   7    3.45    0.83
  -1   7   7    2.46    0.57
  -1   7   7    3.90    0.77
  -1   7   7    3.43    0.49
   0  -7  -7   -0.10    0.28
   0  -7  -7    0.19    0.14
   0  -7  -7    0.53    0.39
   0  -7  -7   -0.24    0.40
   0   7   7    0.10    0.50
   0   7   7    0.87    0.50
   0   7   7    0.62    0.37
   0   7   7    0.14    0.49
   0   7   7    0.57    0.58
  -1  -7  -7    3.40    0.56
  -1  -7  -7    2.67    0.27
  -1  -7  -7    2.72    0.54
  -1  -7  -7    3.24    0.41
   1   7   7    3.07    0.50
   1   7   7    3.71    0.67
   1   7   7    2.79    0.59
  -2  -7  -7    3.77    0.68
  -2  -7  -7    1.89    0.49
  -2  -7  -7    3.93    0.34
  -2  -7  -7    3.92    0.85
  -2  -7  -7    3.84    0.36
   2   7   7    2.44    0.68
   2   7   7    3.66    0.48
   2   7   7    3.80    0.71
  -3  -7  -7   10.12    0.62
  -3  -7  -7    9.98    1.26
  -3  -7  -7   12.09    0.73
  -3  -7  -7    9.71    0.99
   3   7   7   10.30    1.05
   3   7   7   10.52    1.18
   3   7   7   10.75    0.76
   3   7   7   10.97    0.76
  -4  -7  -7    1.51    0.29
  -4  -7  -7    1.27    0.32
   4   7   7    1.71    0.42
   4   7   7    1.53    0.19
   4   7   7    1.02    0.60
   4   7   7    1.49    0.41
  -5  -7  -7    0.07    0.34
  -5  -7  -7   -0.25    0.22
  -5  -7  -7    0.11    0.44
  -5  -7  -7   -0.32    0.82
   5   7   7    0.56    0.44
   5   7   7   -0.13    0.57
   5   7   7   -0.38    0.45
  -6  -7  -7    0.18    0.46
  -6  -7  -7    0.54    0.41
  -6  -7  -7   -0.13    0.31
  -6  -7  -7    1.66    0.94
   6   7   7   -0.18    0.54
   6   7   7    0.84    0.50
   6   7   7   -0.34    0.64
  -7  -7  -7   -0.23    0.53
  -7  -7  -7    0.49    0.42
  -7  -7  -7   -0.02    0.54
  -7  -7  -7   -0.65    1.07
   7   7   7   -0.19    0.61
   7   7   7   -0.51    0.73
   7   7   7    0.40    0.73
  -8  -7  -7   -0.11    0.69
  -8  -7  -7   -0.33    0.47
  -8  -7  -7    0.34    0.60
   8   7   7   -0.50    0.77
   8   7   7    0.97    0.77
   8   7   7   -0.24    0.95
  -9  -7  -7   -1.17    0.85
  -9  -7  -7   -0.12    0.69
  -9  -7  -7   -0.01    0.79
   9   7   7   -1.70    0.90
   9   7   7    1.69    1.09
   4  -8  -7    0.39    0.89
   4  -8  -7    1.71    0.95
  -4   8   7    1.28    0.83
  -4   8   7    3.02    1.36
   3  -8  -7   -0.40    0.67
   3  -8  -7    1.42    0.79
   3  -8  -7    0.27    0.70
  -3   8   7    0.88    1.03
  -3   8   7    1.49    0.71
   2  -8  -7    1.77    0.56
   2  -8  -7    3.40    0.72
   2  -8  -7    2.55    0.62
  -2   8   7    3.63    0.82
  -2   8   7    2.93    0.88
   1  -8  -7    0.97    0.58
   1  -8  -7    0.32    0.43
   1  -8  -7    0.34    0.29
   1  -8  -7    0.91    0.45
  -1   8   7   -0.10    0.50
  -1   8   7    0.48    0.69
  -1   8   7    0.23    0.58
  -1   8   7    0.62    0.86
   0  -8  -7    1.65    0.27
   0  -8  -7    1.13    0.40
   0  -8  -7    1.49    0.54
   0  -8  -7    1.45    0.56
   0   8   7    1.49    0.64
   0   8   7    1.56    0.88
   0   8   7    1.15    0.64
   0   8   7    1.06    0.50
  -1  -8  -7    1.75    0.24
  -1  -8  -7    1.03    0.57
  -1  -8  -7    2.28    0.38
  -1  -8  -7    2.06    0.59
   1   8   7    2.56    0.65
   1   8   7    2.80    0.59
   1   8   7    2.54    0.80
   1   8   7    1.99    0.54
   1   8   7    1.64    0.58
  -2  -8  -7   -0.26    0.45
  -2  -8  -7   -0.05    0.15
  -2  -8  -7    0.03    0.23
   2   8   7   -0.37    0.52
   2   8   7    0.21    0.41
   2   8   7   -0.15    0.45
  -3  -8  -7    0.64    0.20
  -3  -8  -7    0.58    0.22
  -3  -8  -7    0.96    0.54
  -3  -8  -7    1.14    0.25
   3   8   7    0.28    0.47
   3   8   7    1.23    0.63
  -4  -8  -7    0.37    0.47
  -4  -8  -7   -0.02    0.19
  -4  -8  -7    0.33    0.28
   4   8   7    0.45    0.43
   4   8   7   -0.10    0.22
   4   8   7    0.08    0.35
   4   8   7   -0.58    0.55
  -5  -8  -7   -0.02    0.33
  -5  -8  -7    1.18    1.07
  -5  -8  -7   -0.07    0.49
  -5  -8  -7    0.51    0.26
   5   8   7   -0.15    0.41
   5   8   7    0.71    0.70
   5   8   7   -0.33    0.46
  -6  -8  -7    0.35    0.31
  -6  -8  -7    0.45    0.43
  -6  -8  -7    0.45    0.55
  -6  -8  -7    0.67    1.16
   6   8   7   -0.59    0.68
   6   8   7    0.81    0.74
  -7  -8  -7    0.16    0.42
  -7  -8  -7    0.59    0.62
  -7  -8  -7    0.46    0.59
   7   8   7   -1.18    0.83
   7   8   7    0.76    0.81
   7   8   7    0.97    0.70
  -8  -8  -7    0.26    0.71
  -8  -8  -7    0.93    0.53
  -8  -8  -7    1.29    0.68
   8   8   7    0.30    1.03
   8   8   7    2.38    0.85
   8   8   7    1.17    0.95
   3  -9  -7   -1.08    0.91
   3  -9  -7    0.90    0.81
  -3   9   7    0.96    1.25
   2  -9  -7    1.98    0.75
   2  -9  -7    0.23    0.64
  -2   9   7    0.28    0.74
  -2   9   7    0.46    1.00
   1  -9  -7    0.24    0.46
   1  -9  -7    1.25    0.57
   1  -9  -7    0.73    0.40
  -1   9   7    1.63    0.89
  -1   9   7    0.86    0.73
   0  -9  -7    0.05    0.26
   0  -9  -7    1.08    0.68
   0  -9  -7    1.49    0.49
   0  -9  -7    0.44    0.59
   0   9   7    0.90    0.68
   0   9   7    0.11    0.71
   0   9   7   -0.69    0.61
  -1  -9  -7    1.66    0.65
  -1  -9  -7    0.96    0.38
  -1  -9  -7    1.03    0.25
   1   9   7    1.57    0.69
   1   9   7    0.88    0.68
  -2  -9  -7    0.27    0.29
  -2  -9  -7    0.95    0.54
  -2  -9  -7    0.22    0.18
   2   9   7   -1.11    0.59
   2   9   7    0.77    0.60
   2   9   7   -0.94    0.49
  -3  -9  -7    2.30    0.34
  -3  -9  -7    2.24    0.33
  -3  -9  -7    2.80    0.64
   3   9   7    2.94    0.81
   3   9   7    2.71    0.48
   3   9   7    2.22    0.59
  -4  -9  -7    0.86    0.25
  -4  -9  -7    1.40    0.28
  -4  -9  -7    1.57    0.60
  -4  -9  -7    1.09    0.31
   4   9   7    0.55    0.72
   4   9   7    2.47    0.58
   4   9   7    1.89    0.56
  -5  -9  -7    0.24    0.33
  -5  -9  -7   -1.24    0.51
  -5  -9  -7   -0.51    0.25
   5   9   7   -0.35    0.44
   5   9   7   -0.40    0.47
   5   9   7   -0.18    0.72
  -6  -9  -7    0.31    0.43
  -6  -9  -7    1.95    0.66
  -6  -9  -7    0.92    0.35
   6   9   7   -0.22    0.55
   6   9   7   -0.09    0.48
   6   9   7   -0.38    0.83
   6   9   7   -0.26    0.78
  -7  -9  -7   -0.19    0.52
  -7  -9  -7    0.72    0.70
  -7  -9  -7    0.25    0.41
   7   9   7    1.41    0.72
   7   9   7    0.84    0.96
   7   9   7   -1.29    0.90
  -8  -9  -7    7.09    1.00
  -8  -9  -7    6.08    1.01
  -8  -9  -7    6.96    0.95
   8   9   7    4.46    1.01
   8   9   7    7.73    1.31
   1 -10  -7    2.39    0.72
   1 -10  -7    0.25    0.86
   1 -10  -7    2.35    0.56
   1 -10  -7    1.93    0.79
  -1  10   7    2.65    0.94
  -1  10   7    2.93    1.18
   0 -10  -7    0.87    0.86
   0 -10  -7    1.10    0.60
   0 -10  -7    1.56    0.42
   0  10   7    0.40    0.80
   0  10   7    1.93    0.94
  -1 -10  -7    0.77    0.50
  -1 -10  -7    0.17    0.72
  -1 -10  -7    0.80    0.30
   1  10   7   -1.40    0.73
   1  10   7    0.72    0.78
  -2 -10  -7   -0.19    0.22
  -2 -10  -7   -0.38    0.37
  -2 -10  -7    0.09    0.65
   2  10   7    0.61    0.71
   2  10   7    0.34    0.74
  -3 -10  -7    0.17    0.23
  -3 -10  -7    0.24    0.32
  -3 -10  -7    0.43    0.62
   3  10   7    0.78    0.80
   3  10   7   -0.04    0.63
  -4 -10  -7    0.38    0.67
  -4 -10  -7    0.05    0.29
  -4 -10  -7    0.04    0.29
   4  10   7   -0.25    0.82
   4  10   7    0.35    0.61
   4  10   7    0.26    0.78
  -5 -10  -7    0.26    0.37
  -5 -10  -7   -0.11    0.29
  -5 -10  -7    0.81    0.65
  -5 -10  -7    0.10    0.27
   5  10   7    0.05    0.92
   5  10   7   -0.36    0.87
  -6 -10  -7    1.54    0.47
  -6 -10  -7    0.82    0.37
  -6 -10  -7    2.08    0.76
   6  10   7    1.91    1.07
   6  10   7    0.81    0.95
  -7 -10  -7    0.81    0.83
  -7 -10  -7    0.66    0.53
  -7 -10  -7    0.29    0.42
   7  10   7    1.54    1.01
   7  10   7    2.23    1.12
   7  10   7    0.38    0.73
  -1 -11  -7    7.24    1.10
  -1 -11  -7    6.50    0.86
  -1 -11  -7    6.02    0.74
   1  11   7    5.24    1.19
   1  11   7    6.53    1.23
  -2 -11  -7    0.86    0.53
  -2 -11  -7    0.38    0.31
  -2 -11  -7    1.61    0.83
   2  11   7   -1.14    0.90
   2  11   7    1.61    0.94
  -3 -11  -7   -0.21    0.78
  -3 -11  -7   -0.07    0.28
   3  11   7   -0.82    0.83
   3  11   7    1.49    1.06
   3  11   7   -1.52    0.94
  -4 -11  -7    6.91    0.71
  -4 -11  -7    6.54    1.02
   4  11   7    6.72    1.29
   4  11   7    7.96    1.18
  -5 -11  -7    0.12    0.34
  -5 -11  -7    0.84    0.39
  -5 -11  -7    1.02    0.79
   5  11   7    0.99    1.21
   5  11   7   -1.79    1.02
  -6 -11  -7    1.06    0.87
  -6 -11  -7   -0.14    0.36
  -6 -11  -7   -0.95    0.44
  -6 -11  -7    0.26    0.34
   6  11   7    0.42    1.16
   6  11   7   -0.05    1.19
   4   8  -8   -0.24    1.06
  -4  -8   8    1.06    0.78
  -4  -8   8    0.63    0.52
  -4  -8   8    0.35    0.80
   3   8  -8   -1.08    0.94
  -3  -8   8    0.72    0.75
  -3  -8   8    1.55    0.55
  -3  -8   8    1.03    0.85
   2   8  -8    0.02    0.92
  -2  -8   8    1.69    0.69
  -2  -8   8   -0.93    0.57
  -2  -8   8    0.70    0.85
   1   8  -8    1.73    0.98
  -1  -8   8    2.03    0.64
  -1  -8   8    0.46    0.72
  -1  -8   8    2.79    0.96
   0   8  -8    0.07    1.03
   0  -8   8   -0.26    0.73
   0  -8   8    0.02    0.98
  -1   8  -8    0.32    1.08
  -1   8  -8   -0.85    1.12
   1  -8   8   -0.64    0.78
   1  -8   8    0.70    1.14
   5   7  -8    1.06    0.98
  -5  -7   8    0.41    0.60
  -5  -7   8    0.36    0.69
  -5  -7   8   -0.46    0.38
   4   7  -8    0.65    0.92
  -4  -7   8    0.56    0.68
  -4  -7   8    0.69    0.61
   3   7  -8   -0.59    0.86
  -3  -7   8    0.93    0.70
  -3  -7   8   -0.14    0.59
   2   7  -8   -0.56    0.76
  -2  -7   8   -0.53    0.51
  -2  -7   8   -0.95    0.69
  -2  -7   8   -0.44    0.45
   1   7  -8    1.49    0.85
   1   7  -8    0.24    0.74
  -1  -7   8   -0.43    0.69
  -1  -7   8    0.90    0.52
  -1  -7   8   -0.37    0.56
   0   7  -8    1.53    0.97
   0   7  -8    0.06    0.76
   0  -7   8    0.73    0.79
   0  -7   8    0.85    0.62
  -1   7  -8    1.71    1.00
  -1   7  -8    2.10    1.04
   1  -7   8    1.32    0.94
   1  -7   8    3.00    0.70
  -2   7  -8   -1.35    0.95
  -2   7  -8    0.70    1.07
   2  -7   8    2.60    1.05
   2  -7   8   -1.02    0.67
  -3   7  -8   -0.97    1.11
  -3   7  -8    1.16    1.26
   3  -7   8    0.86    0.78
   3  -7   8    2.20    1.15
   6   6  -8    1.62    0.97
  -6  -6   8    0.67    0.71
  -6  -6   8    1.64    0.97
   5   6  -8    2.02    0.91
  -5  -6   8    2.15    0.36
  -5  -6   8    1.56    0.65
  -5  -6   8    2.34    0.49
   4   6  -8    0.10    0.79
   4   6  -8    0.29    0.52
  -4  -6   8    0.38    0.33
  -4  -6   8    0.17    0.58
  -4  -6   8    0.63    0.56
   3   6  -8    1.88    0.75
   3   6  -8    2.59    0.74
   3   6  -8    2.47    0.49
  -3  -6   8    3.43    0.67
  -3  -6   8    2.83    0.65
  -3  -6   8    3.14    0.45
   2   6  -8   -0.18    0.32
   2   6  -8   -0.63    0.57
   2   6  -8    0.33    0.54
   2   6  -8    0.15    0.69
  -2  -6   8    0.89    0.50
  -2  -6   8   -0.03    0.36
  -2  -6   8   -0.50    0.57
   1   6  -8    0.27    0.59
   1   6  -8   -0.27    0.27
   1   6  -8    0.00    0.75
  -1  -6   8   -0.03    0.40
  -1  -6   8    1.20    0.63
  -1  -6   8   -0.05    0.72
  -1  -6   8   -0.04    0.47
   0   6  -8    2.21    0.70
   0   6  -8    2.54    0.31
   0   6  -8    3.29    0.81
   0  -6   8    4.03    0.80
   0  -6   8    2.00    0.58
   0  -6   8    2.49    0.90
  -1   6  -8    1.15    0.71
  -1   6  -8   -0.07    0.79
  -1   6  -8    0.13    0.20
   1  -6   8   -0.05    0.32
   1  -6   8   -0.18    0.70
   1  -6   8    0.18    0.91
   1  -6   8    0.38    0.55
  -2   6  -8    0.54    0.82
   2  -6   8   -0.97    0.55
   2  -6   8    0.87    0.80
   2  -6   8    0.58    0.44
  -3   6  -8    0.87    0.96
  -3   6  -8    3.24    0.99
   3  -6   8    0.44    0.69
   3  -6   8    0.64    0.98
  -4   6  -8    0.52    1.07
  -4   6  -8    1.78    1.04
   4  -6   8    0.48    0.87
   4  -6   8   -0.16    1.14
   6   5  -8    1.30    0.82
  -6  -5   8   -1.52    0.83
  -6  -5   8    0.18    0.62
   5   5  -8   -0.02    0.76
  -5  -5   8    0.18    0.31
  -5  -5   8    0.68    0.54
  -5  -5   8    0.16    0.24
   4   5  -8    3.08    0.87
   4   5  -8    3.89    0.62
  -4  -5   8    3.97    0.49
  -4  -5   8    3.92    0.61
  -4  -5   8    5.75    0.76
   3   5  -8    1.09    0.68
   3   5  -8    1.18    0.52
   3   5  -8    0.64    0.37
  -3  -5   8    0.54    0.44
  -3  -5   8    0.70    0.30
  -3  -5   8    0.81    0.52
  -3  -5   8    1.55    0.48
  -3  -5   8    1.30    0.36
   2   5  -8   -0.18    0.41
   2   5  -8   -0.64    0.48
   2   5  -8    0.20    0.56
   2   5  -8    0.34    0.31
  -2  -5   8    1.01    0.50
  -2  -5   8    0.05    0.29
  -2  -5   8    0.17    0.23
  -2  -5   8    0.08    0.41
  -2  -5   8    0.72    0.49
   1   5  -8   -0.12    0.48
   1   5  -8   -0.24    0.51
   1   5  -8    0.25    0.25
   1   5  -8    0.24    0.33
  -1  -5   8    0.11    0.41
  -1  -5   8   -0.02    0.32
  -1  -5   8   -0.41    0.51
   0   5  -8    1.60    0.63
   0   5  -8    1.10    0.30
   0   5  -8    1.47    0.25
   0   5  -8    1.68    0.56
   0  -5   8    0.95    0.69
   0  -5   8    1.48    0.51
   0  -5   8    0.15    0.53
  -1   5  -8    0.10    0.17
  -1   5  -8   -0.86    0.62
   1  -5   8   -0.31    0.62
   1  -5   8   -0.55    0.72
   1  -5   8   -0.12    0.47
  -2   5  -8   -0.26    0.22
  -2   5  -8   -0.25    0.60
  -2   5  -8    0.33    0.64
   2  -5   8    0.15    0.69
   2  -5   8   -1.83    0.90
   2  -5   8   -0.08    0.30
   2  -5   8    0.45    0.48
   2  -5   8   -0.56    0.74
  -3   5  -8    6.01    1.09
  -3   5  -8    5.61    0.73
  -3   5  -8    5.65    1.02
   3  -5   8    6.19    0.72
   3  -5   8    8.06    1.02
   3  -5   8    6.14    1.13
  -4   5  -8    2.79    0.64
  -4   5  -8    3.08    0.89
  -4   5  -8    2.47    0.93
   4  -5   8    1.95    0.59
   4  -5   8    3.83    1.13
   4  -5   8    1.00    0.72
  -5   5  -8    1.43    0.84
  -5   5  -8    0.33    1.08
  -5   5  -8    0.06    0.72
  -5   5  -8    2.69    1.05
   5  -5   8    0.70    1.16
   5  -5   8    1.86    0.93
  -7  -4   8    0.65    0.66
  -7  -4   8   -0.77    1.02
   6   4  -8    0.68    0.71
  -6  -4   8   -0.61    0.54
  -6  -4   8    0.04    0.80
   5   4  -8    0.89    0.67
   5   4  -8    0.89    0.54
  -5  -4   8   -0.30    0.45
  -5  -4   8    0.18    0.20
   4   4  -8    2.69    0.53
   4   4  -8    3.07    0.69
   4   4  -8    2.65    0.34
   4   4  -8    2.59    0.36
  -4  -4   8    3.01    0.56
  -4  -4   8    2.53    0.46
  -4  -4   8    3.28    0.39
  -4  -4   8    2.04    0.46
  -4  -4   8    2.21    0.42
   3   4  -8    9.58    0.85
   3   4  -8   11.13    1.17
   3   4  -8    9.96    0.83
  -3  -4   8   10.44    0.98
  -3  -4   8    9.44    0.95
  -3  -4   8   11.88    1.32
  -3  -4   8   11.32    0.86
  -3  -4   8    9.99    0.68
  -3  -4   8    9.63    0.69
   2   4  -8    0.97    0.40
   2   4  -8    1.98    0.36
   2   4  -8    1.72    0.34
   2   4  -8    0.96    0.50
  -2  -4   8    1.49    0.46
  -2  -4   8    1.30    0.29
  -2  -4   8    0.63    0.75
  -2  -4   8    0.37    0.44
  -2  -4   8    1.03    0.15
   1   4  -8    0.37    0.42
   1   4  -8    0.31    0.22
   1   4  -8    0.33    0.25
   1   4  -8    0.07    0.50
  -1  -4   8    0.08    0.46
  -1  -4   8    0.39    0.38
  -1  -4   8    0.28    0.67
  -1  -4   8    0.04    0.51
   0   4  -8    1.19    0.22
   0   4  -8    1.25    0.25
   0   4  -8    0.82    0.47
   0   4  -8    0.89    0.59
   0  -4   8    1.06    0.44
   0  -4   8    1.36    0.59
   0  -4   8    1.69    0.58
  -1   4  -8    2.13    0.55
  -1   4  -8    2.13    0.25
  -1   4  -8    2.47    0.34
  -1   4  -8    2.22    0.65
   1  -4   8    2.73    0.64
   1  -4   8    2.69    0.55
   1  -4   8    2.47    0.67
   1  -4   8    2.63    0.68
  -2   4  -8    0.12    0.21
  -2   4  -8   -0.65    0.57
  -2   4  -8    0.01    0.20
  -2   4  -8   -0.10    0.51
   2  -4   8   -0.37    0.38
   2  -4   8   -0.15    0.55
   2  -4   8   -0.30    0.71
   2  -4   8    0.96    0.61
  -3   4  -8    3.02    0.75
  -3   4  -8    3.24    0.46
  -3   4  -8    3.11    0.73
   3  -4   8    2.49    0.82
   3  -4   8    4.44    0.71
   3  -4   8    3.15    0.41
   3  -4   8    4.73    0.77
  -4   4  -8   17.37    1.52
  -4   4  -8   15.69    1.53
  -4   4  -8   15.43    1.22
   4  -4   8   13.23    1.69
   4  -4   8   16.09    1.41
   4  -4   8   15.99    1.09
  -5   4  -8    0.09    0.70
  -5   4  -8    0.96    0.86
  -5   4  -8    0.20    0.88
   5  -4   8    1.70    0.76
   5  -4   8    3.17    1.08
   5  -4   8   -0.32    0.56
  -6   4  -8   -0.38    0.78
  -6   4  -8    0.77    0.85
  -6   4  -8    2.11    1.05
  -6   4  -8    0.60    1.18
   6  -4   8    1.04    0.93
   6  -4   8    1.76    1.31
  -7  -3   8    9.04    1.35
  -7  -3   8    8.15    0.97
   6   3  -8    0.40    0.68
  -6  -3   8    0.02    0.52
  -6  -3   8    0.35    0.81
   5   3  -8   -0.26    0.68
   5   3  -8    0.13    0.48
  -5  -3   8    0.32    0.49
  -5  -3   8    0.36    0.16
  -5  -3   8   -0.15    0.39
  -5  -3   8    0.00    0.47
   4   3  -8    0.66    0.42
   4   3  -8    0.20    0.22
   4   3  -8    0.37    0.59
   4   3  -8    0.07    0.23
  -4  -3   8    0.29    0.18
  -4  -3   8    0.31    0.35
  -4  -3   8    0.54    0.34
  -4  -3   8    0.34    0.19
  -4  -3   8    0.18    0.32
   3   3  -8    7.24    0.65
   3   3  -8    7.98    1.03
   3   3  -8    6.57    0.68
   3   3  -8    7.31    0.71
  -3  -3   8    6.84    0.53
  -3  -3   8    7.29    0.52
  -3  -3   8    8.53    0.85
  -3  -3   8    8.78    0.81
  -3  -3   8    6.45    0.70
  -3  -3   8    9.10    0.99
   2   3  -8    5.05    0.60
   2   3  -8    3.53    0.47
   2   3  -8    4.43    0.49
  -2  -3   8    3.81    0.44
  -2  -3   8    4.02    0.60
  -2  -3   8    5.38    0.67
  -2  -3   8    5.22    0.79
  -2  -3   8    4.49    0.66
   1   3  -8    2.29    0.59
   1   3  -8    0.81    0.41
   1   3  -8    1.22    0.23
  -1  -3   8    1.29    0.47
  -1  -3   8    1.00    0.54
  -1  -3   8    1.59    0.47
  -1  -3   8    0.95    0.41
   0   3  -8    0.13    0.40
   0   3  -8    0.53    0.17
   0   3  -8    1.03    0.49
   0   3  -8    0.53    0.16
   0  -3   8    0.74    0.52
   0  -3   8    0.46    0.59
   0  -3   8    0.98    0.47
   0  -3   8    0.64    0.37
  -1   3  -8    0.36    0.43
  -1   3  -8    1.32    0.17
  -1   3  -8    1.23    0.19
  -1   3  -8    1.54    0.51
   1  -3   8    0.85    0.49
   1  -3   8    0.60    0.51
   1  -3   8    0.69    0.41
   1  -3   8    2.00    0.56
  -2   3  -8   -1.14    0.43
  -2   3  -8    0.20    0.17
  -2   3  -8    0.04    0.19
  -2   3  -8   -0.19    0.44
   2  -3   8    0.53    0.61
   2  -3   8   -0.14    0.46
  -3   3  -8    0.26    0.53
  -3   3  -8    0.60    0.25
  -3   3  -8    0.33    0.30
  -3   3  -8    0.40    0.56
   3  -3   8    0.00    0.48
   3  -3   8   -0.68    0.70
   3  -3   8    0.54    0.63
   3  -3   8   -0.08    0.40
  -4   3  -8    0.38    0.61
  -4   3  -8    0.52    0.39
  -4   3  -8   -0.24    0.69
   4  -3   8    0.85    0.53
   4  -3   8    0.74    0.51
   4  -3   8   -0.92    0.64
  -5   3  -8    0.42    0.69
  -5   3  -8    0.98    0.72
  -5   3  -8    1.70    0.57
   5  -3   8    0.38    0.85
   5  -3   8    1.63    0.66
  -6   3  -8    1.43    0.91
  -6   3  -8    1.42    0.81
  -6   3  -8    0.96    0.69
  -6   3  -8    0.96    0.86
   6  -3   8    0.41    0.84
   6  -3   8    1.21    1.09
  -7   3  -8   -0.10    0.90
  -7   3  -8    0.00    0.89
  -7   3  -8    2.12    1.11
  -7   3  -8   -0.84    1.16
   7  -3   8    0.27    1.01
   7  -3   8    1.12    1.13
   7  -3   8   -1.98    1.37
  -7  -2   8    2.38    0.69
  -7  -2   8    2.24    1.03
   6   2  -8    0.41    0.65
  -6  -2   8   -0.73    0.72
  -6  -2   8    0.61    0.61
  -6  -2   8   -0.39    0.49
   5   2  -8    1.93    0.61
  -5  -2   8    1.79    0.47
  -5  -2   8    1.41    0.26
  -5  -2   8    1.22    0.51
  -5  -2   8    1.42    0.43
   4   2  -8    0.87    0.24
   4   2  -8    1.42    0.55
   4   2  -8    1.40    0.23
   4   2  -8    1.29    0.44
  -4  -2   8    1.08    0.31
  -4  -2   8    1.13    0.22
  -4  -2   8    1.48    0.39
  -4  -2   8    1.70    0.59
  -4  -2   8    0.82    0.33
  -4  -2   8    1.22    0.31
   3   2  -8   10.92    0.84
   3   2  -8   10.68    1.09
   3   2  -8   10.96    1.12
   3   2  -8   10.96    0.72
   3   2  -8   10.40    0.79
  -3  -2   8   11.38    0.90
  -3  -2   8   10.23    0.66
  -3  -2   8   10.49    0.87
  -3  -2   8   10.00    0.95
   2   2  -8    3.40    0.43
   2   2  -8    2.98    0.56
   2   2  -8    3.19    0.62
   2   2  -8    3.08    0.47
   2   2  -8    2.98    0.42
  -2  -2   8    3.41    0.52
  -2  -2   8    2.25    0.43
  -2  -2   8    2.83    0.39
  -2  -2   8    3.18    0.52
   1   2  -8    0.26    0.34
   1   2  -8    1.18    0.44
   1   2  -8    0.43    0.19
   1   2  -8    0.61    0.40
   1   2  -8    0.23    0.40
   1   2  -8    0.32    0.16
  -1  -2   8    0.45    0.48
  -1  -2   8    0.80    0.35
  -1  -2   8   -0.37    0.37
  -1  -2   8    0.16    0.37
  -1  -2   8   -0.19    0.44
  -1  -2   8    0.60    0.23
   0   2  -8    2.57    0.32
   0   2  -8    3.50    0.59
   0   2  -8    3.65    0.28
   0   2  -8    3.84    0.54
   0   2  -8    4.09    0.62
   0   2  -8    4.01    0.59
   0  -2   8    3.55    0.60
   0  -2   8    4.36    0.58
   0  -2   8    3.97    0.62
   0  -2   8    3.53    0.49
   0  -2   8    3.28    0.59
   0  -2   8    3.46    0.59
  -1   2  -8    7.65    0.46
  -1   2  -8    8.15    0.83
  -1   2  -8    7.65    0.90
  -1   2  -8    9.17    0.48
   1  -2   8    8.53    0.83
   1  -2   8    8.23    0.82
   1  -2   8    7.93    0.90
   1  -2   8    7.29    0.94
   1  -2   8    8.18    0.74
   1  -2   8    7.14    1.02
  -2   2  -8   -0.12    0.42
  -2   2  -8    0.17    0.15
  -2   2  -8    0.21    0.43
  -2   2  -8    0.01    0.16
   2  -2   8    0.14    0.39
   2  -2   8    1.50    0.57
   2  -2   8   -0.08    0.39
   2  -2   8   -0.41    0.38
   2  -2   8    0.21    0.54
  -3   2  -8    0.04    0.24
  -3   2  -8    0.31    0.23
  -3   2  -8    0.54    0.46
  -3   2  -8   -0.19    0.45
   3  -2   8    0.57    0.55
   3  -2   8    0.43    0.43
   3  -2   8    0.48    0.39
  -4   2  -8   -0.82    0.51
  -4   2  -8   -0.92    0.47
  -4   2  -8   -0.03    0.34
   4  -2   8    0.50    0.39
   4  -2   8    0.16    0.46
  -5   2  -8    0.66    0.49
  -5   2  -8    0.14    0.60
  -5   2  -8    0.82    0.62
   5  -2   8    0.72    0.45
   5  -2   8    0.87    0.78
   5  -2   8    0.79    0.57
  -6   2  -8   -0.72    0.68
  -6   2  -8   -1.15    0.73
  -6   2  -8   -0.14    0.59
  -6   2  -8   -0.81    0.59
   6  -2   8    1.50    0.75
   6  -2   8    0.60    0.96
  -7   2  -8   -0.86    0.73
  -7   2  -8    0.30    0.90
  -7   2  -8   -1.94    0.73
  -7   2  -8    0.48    0.90
   7  -2   8   -0.53    0.87
   7  -2   8    1.58    1.32
   7  -2   8    1.11    0.92
  -7  -1   8    6.14    1.12
  -7  -1   8    7.63    1.30
   6   1  -8    1.00    0.70
  -6  -1   8    0.45    0.44
  -6  -1   8   -0.50    0.67
  -6  -1   8    0.11    0.80
   5   1  -8    0.06    0.53
  -5  -1   8    0.57    0.68
  -5  -1   8    0.55    0.19
  -5  -1   8    0.30    0.23
  -5  -1   8    0.88    0.66
  -5  -1   8    0.85    0.18
  -5  -1   8    1.28    0.41
   4   1  -8    1.56    0.47
   4   1  -8    1.18    0.23
   4   1  -8    0.59    0.27
  -4  -1   8    1.46    0.57
  -4  -1   8    1.02    0.31
  -4  -1   8    0.65    0.30
  -4  -1   8    1.00    0.22
  -4  -1   8    0.91    0.37
   3   1  -8    2.17    0.42
   3   1  -8    2.80    0.57
   3   1  -8    2.07    0.33
   3   1  -8    2.71    0.41
  -3  -1   8    1.94    0.43
  -3  -1   8    2.07    0.45
  -3  -1   8    1.76    0.29
  -3  -1   8    1.74    0.38
  -3  -1   8    1.96    0.42
   2   1  -8    9.63    0.72
   2   1  -8    8.64    0.69
   2   1  -8    9.32    0.83
   2   1  -8    9.85    0.98
   2   1  -8    9.34    0.88
  -2  -1   8    9.49    0.80
  -2  -1   8    9.70    0.65
  -2  -1   8   10.72    0.86
  -2  -1   8    9.95    0.84
   1   1  -8    0.80    0.20
   1   1  -8    1.03    0.41
   1   1  -8    1.41    0.45
   1   1  -8    1.17    0.14
   1   1  -8    1.17    0.39
   1   1  -8    1.00    0.38
  -1  -1   8    1.52    0.50
  -1  -1   8    1.14    0.41
  -1  -1   8    0.44    0.36
  -1  -1   8    1.40    0.29
  -1  -1   8    0.18    0.38
  -1  -1   8    1.35    0.36
   0   1  -8    9.09    0.55
   0   1  -8   10.99    0.83
   0   1  -8   10.49    0.91
   0   1  -8    8.59    0.89
   0   1  -8    9.21    0.79
   0   1  -8    8.23    0.49
   0  -1   8   10.31    0.74
   0  -1   8    9.85    1.02
   0  -1   8   10.28    0.82
   0  -1   8    8.82    0.89
   0  -1   8    9.66    0.98
   0  -1   8    9.11    0.86
   0  -1   8   10.94    0.90
  -1   1  -8   15.77    0.72
  -1   1  -8   12.63    1.06
  -1   1  -8   14.20    1.06
  -1   1  -8   12.88    0.72
   1  -1   8   13.03    1.09
   1  -1   8   13.71    1.11
   1  -1   8   13.80    0.98
   1  -1   8   13.39    1.08
   1  -1   8   13.00    1.03
  -2   1  -8    0.84    0.38
  -2   1  -8    0.05    0.50
  -2   1  -8    0.54    0.16
  -2   1  -8    0.43    0.38
  -2   1  -8    0.40    0.17
   2  -1   8    0.21    0.47
   2  -1   8    0.69    0.39
   2  -1   8    0.14    0.51
   2  -1   8    0.85    0.41
  -3   1  -8    3.36    0.61
  -3   1  -8    2.76    0.56
  -3   1  -8    3.96    0.61
  -3   1  -8    3.15    0.42
  -3   1  -8    4.20    0.45
  -3   1  -8    1.92    0.69
   3  -1   8    3.57    0.72
   3  -1   8    2.59    0.59
   3  -1   8    2.81    0.56
   3  -1   8    3.79    0.74
  -4   1  -8   -0.71    0.31
  -4   1  -8   -0.03    0.29
  -4   1  -8   -0.02    0.47
  -4   1  -8    0.45    0.46
   4  -1   8    0.48    0.36
   4  -1   8    0.87    0.71
   4  -1   8   -0.66    0.56
   4  -1   8   -0.37    0.64
  -5   1  -8    0.01    0.47
  -5   1  -8    0.10    0.54
  -5   1  -8   -0.08    0.39
   5  -1   8   -0.33    0.37
   5  -1   8   -0.15    0.55
  -6   1  -8   -0.58    0.60
  -6   1  -8    1.38    0.69
  -6   1  -8   -0.58    0.53
   6  -1   8   -0.25    0.86
   6  -1   8    0.14    0.66
  -7   1  -8    1.07    0.85
  -7   1  -8   -0.47    0.67
  -7   1  -8    0.56    0.71
  -7   1  -8    0.76    0.70
   7  -1   8    0.83    0.86
   7  -1   8   -1.12    1.00
   7  -1   8   -0.21    0.78
  -8   1  -8   -0.09    0.93
  -8   1  -8    0.47    0.92
  -8   1  -8   -0.02    0.92
  -8   1  -8    0.30    0.95
   8  -1   8    0.98    1.10
   8  -1   8   -0.53    1.43
  -7   0   8    2.12    1.15
  -7   0   8   -0.15    0.95
   6   0  -8   -0.63    0.65
   6   0  -8    0.56    0.74
  -6   0   8    0.62    0.85
  -6   0   8   -0.26    0.42
   5   0  -8    1.80    0.57
   5   0  -8    1.72    0.56
  -5   0   8    3.06    0.82
  -5   0   8    1.82    0.34
  -5   0   8    1.47    0.63
  -5   0   8    0.56    0.43
  -5   0   8    2.08    0.32
  -5   0   8    1.91    0.29
   4   0  -8    0.56    0.39
   4   0  -8   -0.89    0.31
   4   0  -8   -0.08    0.23
   4   0  -8   -0.48    0.39
  -4   0   8    0.10    0.20
  -4   0   8    0.69    0.45
  -4   0   8    0.00    0.27
  -4   0   8   -0.20    0.32
  -4   0   8   -0.17    0.30
   3   0  -8    0.05    0.38
   3   0  -8    0.07    0.31
   3   0  -8    0.01    0.30
   3   0  -8    0.32    0.38
  -3   0   8    0.27    0.29
  -3   0   8   -0.05    0.31
  -3   0   8    0.08    0.34
  -3   0   8    0.12    0.29
  -3   0   8    0.70    0.21
   2   0  -8    0.66    0.28
   2   0  -8   -0.01    0.41
   2   0  -8    0.02    0.41
   2   0  -8    0.34    0.33
   2   0  -8    0.43    0.25
  -2   0   8    0.36    0.33
  -2   0   8    0.08    0.33
  -2   0   8   -0.04    0.55
  -2   0   8    0.20    0.22
  -2   0   8    0.12    0.29
   1   0  -8    3.25    0.54
   1   0  -8    3.48    0.50
   1   0  -8    3.65    0.38
   1   0  -8    4.06    0.58
   1   0  -8    3.61    0.49
  -1   0   8    3.94    0.55
  -1   0   8    3.02    0.53
  -1   0   8    3.30    0.45
  -1   0   8    4.17    0.69
  -1   0   8    3.35    0.54
   0   0  -8    0.81    0.31
   0   0  -8    0.45    0.41
   0   0  -8    0.05    0.06
   0   0  -8    0.65    0.33
   0   0  -8    0.16    0.13
   0   0  -8    0.35    0.32
   0   0   8    0.41    0.35
   0   0   8    0.24    0.36
   0   0   8    0.14    0.42
   0   0   8    0.04    0.29
  -1   0  -8    0.39    0.32
  -1   0  -8    0.10    0.29
  -1   0  -8    0.11    0.08
  -1   0  -8    0.05    0.32
  -1   0  -8    0.15    0.10
   1   0   8   -0.16    0.28
   1   0   8   -0.17    0.37
   1   0   8   -0.14    0.39
  -2   0  -8    4.05    0.65
  -2   0  -8    4.37    0.61
  -2   0  -8    4.08    0.57
  -2   0  -8    3.60    0.36
  -2   0  -8    4.63    0.38
   2   0   8    4.63    0.74
   2   0   8    5.07    0.70
   2   0   8    3.35    0.63
  -3   0  -8    0.33    0.24
  -3   0  -8    0.93    0.36
  -3   0  -8   -0.11    0.40
  -3   0  -8    0.49    0.61
  -3   0  -8    0.38    0.22
   3   0   8   -0.18    0.32
   3   0   8    0.16    0.49
   3   0   8    0.98    0.53
  -4   0  -8    1.66    0.68
  -4   0  -8    0.47    0.43
  -4   0  -8    1.34    0.42
  -4   0  -8    0.63    0.33
  -4   0  -8    0.41    0.30
   4   0   8    1.61    0.63
   4   0   8    0.22    0.49
   4   0   8    1.68    0.61
  -5   0  -8    5.92    0.82
  -5   0  -8    4.05    0.92
  -5   0  -8    4.76    0.49
  -5   0  -8    5.35    0.71
   5   0   8    3.46    0.89
   5   0   8    6.62    0.93
  -6   0  -8    2.95    0.44
  -6   0  -8    2.71    0.69
  -6   0  -8    2.88    0.59
  -6   0  -8    1.32    0.56
   6   0   8    1.68    0.65
   6   0   8    2.08    0.70
   6   0   8    3.32    0.94
  -7   0  -8    0.44    0.60
  -7   0  -8    0.27    0.64
  -7   0  -8    1.71    0.81
   7   0   8    0.35    0.46
   7   0   8   -0.60    0.96
   7   0   8   -0.34    0.83
   7   0   8    0.44    0.75
  -8   0  -8    0.10    0.77
  -8   0  -8    0.91    0.83
  -8   0  -8   -0.48    0.88
   8   0   8   -0.11    1.01
   8   0   8    0.59    1.20
   7  -1  -8    1.90    1.03
  -7   1   8    2.20    1.26
   6  -1  -8   -0.42    0.71
   6  -1  -8    0.12    0.69
  -6   1   8    0.70    0.25
  -6   1   8    0.13    0.87
   5  -1  -8    4.24    0.43
   5  -1  -8    4.71    0.76
   5  -1  -8    4.14    0.74
  -5   1   8    3.95    0.66
  -5   1   8    3.56    0.80
  -5   1   8    3.74    0.44
  -5   1   8    3.29    0.53
   4  -1  -8    1.54    0.42
   4  -1  -8    1.48    0.29
   4  -1  -8    1.72    0.45
   4  -1  -8    2.31    0.51
   4  -1  -8    1.49    0.51
  -4   1   8    1.94    0.39
  -4   1   8    1.67    0.41
  -4   1   8    1.11    0.63
  -4   1   8    1.54    0.28
  -4   1   8    1.89    0.42
  -4   1   8    2.34    0.50
   3  -1  -8    4.16    0.59
   3  -1  -8    4.88    0.62
   3  -1  -8    3.85    0.52
   3  -1  -8    4.02    0.46
  -3   1   8    6.05    0.63
  -3   1   8    4.73    0.61
  -3   1   8    4.98    0.64
  -3   1   8    3.41    0.51
  -3   1   8    4.50    0.44
   2  -1  -8   16.24    0.94
   2  -1  -8   17.05    1.14
   2  -1  -8   14.95    0.96
   2  -1  -8   16.38    0.98
   2  -1  -8   16.05    1.05
  -2   1   8   13.38    1.24
  -2   1   8   15.43    1.06
  -2   1   8   17.54    1.08
  -2   1   8   15.29    0.91
  -2   1   8   16.10    0.91
  -2   1   8   13.73    1.06
   1  -1  -8    9.17    0.91
   1  -1  -8    7.78    0.78
   1  -1  -8   10.10    0.64
   1  -1  -8   10.38    0.90
   1  -1  -8    9.61    0.77
   1  -1  -8    9.44    0.60
  -1   1   8   10.32    0.88
  -1   1   8    8.38    0.96
  -1   1   8    9.36    0.81
  -1   1   8   11.88    0.85
   0  -1  -8    4.61    0.64
   0  -1  -8    4.11    0.37
   0  -1  -8    6.60    0.82
   0  -1  -8    5.62    0.59
   0  -1  -8    6.10    0.61
   0   1   8    4.37    0.62
   0   1   8    4.71    0.60
   0   1   8    4.43    0.54
   0   1   8    4.19    0.59
   0   1   8    5.08    0.67
  -1  -1  -8    2.65    0.43
  -1  -1  -8    2.96    0.29
  -1  -1  -8    2.62    0.21
  -1  -1  -8    2.42    0.44
  -1  -1  -8    2.93    0.25
  -1  -1  -8    2.39    0.46
  -1  -1  -8    2.01    0.56
   1   1   8    1.91    0.43
   1   1   8    3.26    0.53
   1   1   8    3.22    0.54
   1   1   8    1.94    0.49
   1   1   8    2.65    0.44
  -2  -1  -8    1.32    0.42
  -2  -1  -8    1.10    0.19
  -2  -1  -8    0.81    0.32
  -2  -1  -8    1.23    0.23
  -2  -1  -8    1.15    0.37
  -2  -1  -8    1.92    0.57
   2   1   8    1.55    0.50
   2   1   8    1.67    0.46
   2   1   8    0.86    0.36
   2   1   8    1.47    0.40
   2   1   8    0.91    0.45
  -3  -1  -8    0.25    0.29
  -3  -1  -8    0.01    0.52
  -3  -1  -8   -0.11    0.12
  -3  -1  -8   -0.09    0.23
  -3  -1  -8   -0.17    0.19
  -3  -1  -8    0.03    0.37
   3   1   8    0.12    0.39
   3   1   8    0.45    0.47
   3   1   8    0.23    0.42
   3   1   8   -0.16    0.42
   3   1   8   -0.57    0.45
  -4  -1  -8    4.59    0.69
  -4  -1  -8    6.90    0.63
  -4  -1  -8    5.80    0.49
  -4  -1  -8    6.37    0.91
  -4  -1  -8    5.89    0.79
  -4  -1  -8    7.83    0.69
   4   1   8    6.35    0.90
   4   1   8    6.00    0.82
   4   1   8    6.43    0.83
   4   1   8    5.30    0.83
  -5  -1  -8    6.75    0.85
  -5  -1  -8    4.04    0.90
  -5  -1  -8    3.80    0.46
  -5  -1  -8    4.69    0.59
  -5  -1  -8    4.05    0.57
   5   1   8    2.58    0.77
   5   1   8    3.33    0.82
  -6  -1  -8    0.61    0.42
  -6  -1  -8   -0.02    0.43
  -6  -1  -8    0.18    0.44
  -6  -1  -8    0.44    0.51
  -6  -1  -8    0.94    0.87
   6   1   8   -0.29    0.60
   6   1   8    0.13    0.55
   6   1   8    1.13    0.76
  -7  -1  -8    1.84    0.68
  -7  -1  -8    2.34    0.66
  -7  -1  -8    1.90    0.57
  -7  -1  -8    1.93    0.66
   7   1   8    1.55    0.91
   7   1   8    2.29    0.83
  -8  -1  -8    0.66    0.81
  -8  -1  -8   -0.37    0.75
   8   1   8    0.31    1.10
   8   1   8    0.65    0.86
   6  -2  -8    2.76    0.80
   6  -2  -8    2.74    0.85
  -6   2   8    3.56    1.07
  -6   2   8    2.36    0.44
   5  -2  -8    2.31    0.64
  -5   2   8    2.75    0.82
  -5   2   8    2.10    0.45
  -5   2   8    1.91    0.40
   4  -2  -8    0.89    0.37
   4  -2  -8   -0.23    0.46
   4  -2  -8    0.25    0.29
   4  -2  -8    0.78    0.45
  -4   2   8    0.94    0.37
  -4   2   8    0.41    0.34
  -4   2   8    0.48    0.27
  -4   2   8    0.49    0.44
  -4   2   8    1.18    0.39
  -4   2   8    0.13    0.62
   3  -2  -8    3.42    0.54
   3  -2  -8    3.68    0.53
   3  -2  -8    2.91    0.46
   3  -2  -8    3.64    0.45
  -3   2   8    3.13    0.50
  -3   2   8    3.19    0.39
  -3   2   8    2.87    0.52
  -3   2   8    2.88    0.48
  -3   2   8    3.32    0.42
   2  -2  -8    2.53    0.54
   2  -2  -8    1.67    0.35
   2  -2  -8    1.65    0.35
   2  -2  -8    1.74    0.37
   2  -2  -8    2.47    0.40
  -2   2   8    1.90    0.44
  -2   2   8    2.11    0.44
  -2   2   8    2.02    0.44
  -2   2   8    1.74    0.29
   1  -2  -8   -0.26    0.27
   1  -2  -8    0.27    0.21
   1  -2  -8   -0.31    0.26
   1  -2  -8   -0.25    0.18
   1  -2  -8   -0.04    0.44
  -1   2   8   -0.26    0.44
  -1   2   8   -0.16    0.23
  -1   2   8   -0.44    0.30
  -1   2   8    0.15    0.33
  -1   2   8   -0.24    0.37
   0  -2  -8    4.99    0.57
   0  -2  -8    4.51    0.58
   0  -2  -8    3.93    0.35
   0  -2  -8    4.74    0.38
   0   2   8    4.25    0.57
   0   2   8    4.09    0.59
   0   2   8    4.11    0.60
   0   2   8    4.02    0.54
   0   2   8    3.72    0.59
  -1  -2  -8   -0.05    0.09
  -1  -2  -8    0.16    0.31
  -1  -2  -8    0.00    0.27
  -1  -2  -8    0.06    0.10
  -1  -2  -8    0.21    0.45
  -1  -2  -8   -0.12    0.12
  -1  -2  -8   -0.14    0.14
  -1  -2  -8    0.08    0.29
   1   2   8    0.07    0.32
   1   2   8   -0.45    0.37
   1   2   8    0.21    0.31
   1   2   8   -0.03    0.33
   1   2   8   -0.22    0.35
  -2  -2  -8    4.74    0.60
  -2  -2  -8    4.49    0.73
  -2  -2  -8    3.82    0.55
  -2  -2  -8    4.84    0.38
  -2  -2  -8    4.31    0.56
  -2  -2  -8    4.31    0.36
   2   2   8    4.47    0.67
   2   2   8    3.59    0.56
   2   2   8    4.86    0.63
   2   2   8    4.45    0.56
   2   2   8    4.14    0.63
   2   2   8    3.55    0.58
  -3  -2  -8    3.72    0.55
  -3  -2  -8    4.66    0.42
  -3  -2  -8    3.38    0.46
  -3  -2  -8    3.24    0.39
  -3  -2  -8    3.72    0.67
   3   2   8    5.23    0.71
   3   2   8    3.92    0.64
   3   2   8    3.74    0.67
   3   2   8    2.91    0.62
   3   2   8    3.32    0.58
  -4  -2  -8    1.23    0.32
  -4  -2  -8    0.39    0.43
  -4  -2  -8    1.29    0.30
  -4  -2  -8    1.79    0.65
  -4  -2  -8    1.22    0.32
   4   2   8    1.88    0.55
   4   2   8    1.30    0.56
   4   2   8    1.82    0.57
   4   2   8    1.06    0.48
   4   2   8    2.14    0.63
   4   2   8    1.67    0.51
  -5  -2  -8   -0.31    0.67
  -5  -2  -8    0.50    0.49
  -5  -2  -8    0.20    0.28
  -5  -2  -8    0.34    0.36
  -5  -2  -8   -0.22    0.34
   5   2   8   -0.43    0.42
   5   2   8   -0.30    0.75
   5   2   8    0.71    0.57
  -6  -2  -8    3.47    0.59
  -6  -2  -8    4.10    1.01
  -6  -2  -8    4.62    0.62
  -6  -2  -8    3.47    0.75
  -6  -2  -8    5.88    0.67
   6   2   8    4.83    0.81
   6   2   8    6.29    1.01
  -7  -2  -8    0.72    0.64
  -7  -2  -8    1.17    0.40
  -7  -2  -8    1.22    0.52
  -7  -2  -8    0.67    0.64
   7   2   8    0.90    0.78
   7   2   8    0.61    0.88
  -8  -2  -8    0.33    0.70
  -8  -2  -8    0.92    0.79
   8   2   8   -0.26    0.91
   8   2   8    0.09    0.60
  -9  -2  -8    3.07    0.99
  -9  -2  -8    0.88    0.95
   9   2   8    0.26    1.07
   6  -3  -8   -0.61    0.85
  -6   3   8    0.30    1.13
  -6   3   8   -0.18    0.48
   5  -3  -8    0.13    0.67
   5  -3  -8    0.81    0.65
  -5   3   8   -1.00    0.83
  -5   3   8   -0.54    0.40
   4  -3  -8    1.17    0.53
   4  -3  -8    0.54    0.45
   4  -3  -8    0.36    0.36
  -4   3   8    0.95    0.50
  -4   3   8    0.40    0.38
  -4   3   8    1.30    0.73
   3  -3  -8   -0.15    0.29
   3  -3  -8   -0.58    0.37
   3  -3  -8    0.03    0.34
  -3   3   8   -0.70    0.41
  -3   3   8   -0.27    0.50
  -3   3   8   -0.04    0.34
   2  -3  -8    3.22    0.49
   2  -3  -8    2.42    0.38
   2  -3  -8    2.24    0.40
   2  -3  -8    2.55    0.42
  -2   3   8    1.89    0.35
  -2   3   8    1.97    0.47
  -2   3   8    2.67    0.49
  -2   3   8    2.57    0.29
  -2   3   8    1.87    0.50
   1  -3  -8    3.25    0.40
   1  -3  -8    3.87    0.50
   1  -3  -8    3.44    0.43
   1  -3  -8    2.02    0.60
   1  -3  -8    2.96    0.38
  -1   3   8    3.34    0.42
  -1   3   8    2.86    0.57
  -1   3   8    4.00    0.55
  -1   3   8    3.18    0.54
  -1   3   8    3.12    0.53
   0  -3  -8    5.46    0.59
   0  -3  -8    4.16    0.41
   0  -3  -8    4.48    0.41
   0  -3  -8    5.16    0.59
   0   3   8    4.26    0.63
   0   3   8    6.29    0.77
   0   3   8    5.43    0.60
   0   3   8    4.06    0.60
   0   3   8    5.07    0.69
  -1  -3  -8    5.55    0.41
  -1  -3  -8    5.30    0.64
  -1  -3  -8    5.08    0.34
  -1  -3  -8    5.04    0.37
  -1  -3  -8    4.28    0.73
  -1  -3  -8    5.75    0.68
   1   3   8    6.23    0.74
   1   3   8    4.74    0.69
   1   3   8    4.90    0.67
   1   3   8    4.97    0.64
   1   3   8    5.76    0.68
  -2  -3  -8    9.40    0.83
  -2  -3  -8   10.20    0.59
  -2  -3  -8    8.63    0.63
  -2  -3  -8    9.19    0.84
  -2  -3  -8   10.31    1.05
   2   3   8   10.31    0.93
   2   3   8    8.03    0.90
   2   3   8    8.34    0.79
   2   3   8    8.79    0.91
   2   3   8   10.12    0.96
  -3  -3  -8    4.45    0.53
  -3  -3  -8    4.95    0.58
  -3  -3  -8    5.97    0.53
  -3  -3  -8    6.48    0.91
  -3  -3  -8    5.76    0.71
  -3  -3  -8    6.09    0.49
  -3  -3  -8    4.27    0.67
   3   3   8    6.23    0.81
   3   3   8    5.49    0.77
   3   3   8    6.27    0.70
   3   3   8    6.37    0.84
   3   3   8    5.07    0.75
   3   3   8    5.84    0.81
  -4  -3  -8    0.03    0.21
  -4  -3  -8    0.15    0.22
  -4  -3  -8   -0.97    0.60
  -4  -3  -8   -0.12    0.31
  -4  -3  -8   -0.53    0.38
   4   3   8   -0.18    0.45
   4   3   8   -0.33    0.51
   4   3   8   -0.24    0.53
   4   3   8    0.06    0.53
   4   3   8    0.39    0.39
   4   3   8   -0.34    0.41
  -5  -3  -8    0.35    0.43
  -5  -3  -8    0.16    0.70
  -5  -3  -8    0.54    0.32
  -5  -3  -8   -0.35    0.38
  -5  -3  -8    0.14    0.22
   5   3   8   -0.14    0.56
   5   3   8    0.65    0.60
   5   3   8    0.12    0.50
  -6  -3  -8    0.24    0.37
  -6  -3  -8   -0.02    0.48
  -6  -3  -8   -0.50    0.84
  -6  -3  -8    0.21    0.51
  -6  -3  -8    0.11    0.23
   6   3   8    0.24    0.64
   6   3   8    0.44    0.61
  -7  -3  -8   -0.07    0.20
  -7  -3  -8    0.43    0.68
  -7  -3  -8    0.59    0.50
  -7  -3  -8    0.02    0.55
  -7  -3  -8    1.79    1.10
   7   3   8   -0.50    0.65
   7   3   8    1.57    0.80
  -8  -3  -8    2.43    0.75
  -8  -3  -8    3.60    0.72
   8   3   8    3.48    0.95
   8   3   8    2.86    0.75
   8   3   8    1.91    1.05
  -9  -3  -8    0.14    0.87
  -9  -3  -8    2.07    0.88
   9   3   8   -1.11    1.15
   6  -4  -8    0.06    0.93
   6  -4  -8    1.66    1.03
  -6   4   8    0.51    1.24
  -6   4   8    0.93    0.60
   5  -4  -8    0.20    0.75
   5  -4  -8    2.98    0.80
  -5   4   8    1.96    0.54
  -5   4   8    1.78    0.98
   4  -4  -8    0.34    0.58
   4  -4  -8   -0.26    0.54
   4  -4  -8    0.74    0.44
  -4   4   8    0.55    0.72
  -4   4   8   -0.55    0.44
   3  -4  -8   -0.14    0.38
   3  -4  -8    0.83    0.31
   3  -4  -8    0.92    0.42
   3  -4  -8    0.82    0.44
  -3   4   8   -0.25    0.63
  -3   4   8   -0.24    0.55
  -3   4   8    1.00    0.43
   2  -4  -8   -0.49    0.28
   2  -4  -8   -0.33    0.33
   2  -4  -8    0.03    0.26
   2  -4  -8   -0.11    0.31
  -2   4   8    0.08    0.52
  -2   4   8    0.60    0.48
   1  -4  -8    3.27    0.45
   1  -4  -8    3.35    0.43
   1  -4  -8    4.05    0.47
   1  -4  -8    3.95    0.53
  -1   4   8    3.03    0.57
  -1   4   8    4.09    0.55
  -1   4   8    4.40    0.62
  -1   4   8    3.62    0.62
   0  -4  -8    1.57    0.37
   0  -4  -8    1.53    0.39
   0  -4  -8    1.61    0.29
   0  -4  -8    1.35    0.24
   0   4   8    2.27    0.52
   0   4   8    2.05    0.53
   0   4   8    1.44    0.27
   0   4   8    2.57    0.52
   0   4   8    1.88    0.39
   0   4   8    0.71    0.44
  -1  -4  -8   25.85    1.79
  -1  -4  -8   27.88    1.59
  -1  -4  -8   27.56    1.33
  -1  -4  -8   29.02    1.32
  -1  -4  -8   26.33    1.61
   1   4   8   27.56    1.76
   1   4   8   28.10    1.71
   1   4   8   28.93    1.63
   1   4   8   26.49    1.39
   1   4   8   28.45    1.63
  -2  -4  -8    2.04    0.28
  -2  -4  -8    1.37    0.38
  -2  -4  -8    1.61    0.40
  -2  -4  -8    2.34    0.64
  -2  -4  -8    1.63    0.24
   2   4   8    1.74    0.36
   2   4   8    1.47    0.48
   2   4   8    2.00    0.50
   2   4   8    1.42    0.37
   2   4   8    1.28    0.53
  -3  -4  -8    8.52    0.83
  -3  -4  -8    7.11    0.97
  -3  -4  -8    7.75    0.85
  -3  -4  -8    8.33    0.65
  -3  -4  -8    8.40    0.59
   3   4   8    7.81    0.95
   3   4   8    7.28    0.92
   3   4   8    6.80    0.87
   3   4   8    8.29    0.92
   3   4   8    6.83    0.66
   3   4   8    8.63    0.77
  -4  -4  -8    4.76    0.64
  -4  -4  -8    4.50    0.82
  -4  -4  -8    5.16    0.59
  -4  -4  -8    5.38    0.54
  -4  -4  -8    5.85    0.77
   4   4   8    5.17    0.80
   4   4   8    5.06    0.81
   4   4   8    4.73    0.66
   4   4   8    4.66    0.82
   4   4   8    3.82    0.65
  -5  -4  -8    1.55    0.46
  -5  -4  -8    0.96    0.49
  -5  -4  -8    1.38    0.49
   5   4   8    0.67    0.57
   5   4   8    1.22    0.53
   5   4   8    1.68    0.62
  -6  -4  -8   -0.63    0.47
  -6  -4  -8   -0.47    0.38
  -6  -4  -8   -0.61    0.81
  -6  -4  -8   -1.03    0.55
   6   4   8    0.26    0.60
   6   4   8    0.78    0.70
   6   4   8   -0.44    0.61
  -7  -4  -8    8.35    1.42
  -7  -4  -8   11.80    1.14
  -7  -4  -8   11.55    1.19
   7   4   8   10.75    1.36
   7   4   8   10.06    1.29
  -8  -4  -8   -0.07    0.65
  -8  -4  -8    0.41    0.62
   8   4   8    0.29    1.02
   8   4   8   -0.23    0.85
   8   4   8   -0.25    0.71
  -9  -4  -8   -1.32    0.78
  -9  -4  -8   -1.27    0.80
   9   4   8   -0.94    1.00
   5  -5  -8    2.39    0.94
   5  -5  -8    2.84    0.98
  -5   5   8    3.18    0.69
  -5   5   8    1.23    1.16
   4  -5  -8    2.18    0.67
   4  -5  -8    0.33    0.60
  -4   5   8    1.96    0.89
   3  -5  -8    0.66    0.48
   3  -5  -8    0.66    0.48
   3  -5  -8    0.16    0.29
  -3   5   8    0.14    0.43
  -3   5   8   -0.35    0.68
   2  -5  -8    0.10    0.39
   2  -5  -8    0.59    0.37
   2  -5  -8   -0.24    0.27
   2  -5  -8    0.08    0.35
  -2   5   8    0.27    0.41
  -2   5   8    0.36    0.57
  -2   5   8   -0.98    0.54
   1  -5  -8    0.03    0.27
   1  -5  -8    0.26    0.37
   1  -5  -8    0.02    0.30
  -1   5   8    0.10    0.51
  -1   5   8   -0.33    0.40
   0  -5  -8    1.35    0.42
   0  -5  -8    2.21    0.44
   0  -5  -8    2.00    0.20
   0  -5  -8    1.51    0.29
   0   5   8    1.38    0.38
   0   5   8    1.01    0.49
   0   5   8    0.79    0.52
   0   5   8    1.54    0.52
  -1  -5  -8   -0.39    0.63
  -1  -5  -8    0.45    0.37
  -1  -5  -8   -0.27    0.17
  -1  -5  -8   -0.02    0.08
  -1  -5  -8   -0.05    0.35
   1   5   8    0.76    0.51
   1   5   8   -0.41    0.21
   1   5   8   -0.40    0.36
   1   5   8    0.21    0.40
   1   5   8   -0.19    0.43
  -2  -5  -8    5.44    0.73
  -2  -5  -8    4.75    0.86
  -2  -5  -8    6.43    0.45
  -2  -5  -8    5.79    0.44
  -2  -5  -8    6.08    0.76
  -2  -5  -8    5.46    0.43
   2   5   8    5.49    0.71
   2   5   8    5.93    0.66
   2   5   8    5.92    0.61
   2   5   8    6.22    0.85
   2   5   8    4.81    0.76
  -3  -5  -8   10.87    0.71
  -3  -5  -8   12.45    0.79
  -3  -5  -8   12.99    1.39
  -3  -5  -8   10.82    0.98
   3   5   8   10.50    0.87
   3   5   8   10.15    0.80
   3   5   8   10.80    1.17
   3   5   8   11.21    1.06
   3   5   8   12.79    1.04
   3   5   8   11.12    1.11
  -4  -5  -8    1.57    0.48
  -4  -5  -8    1.71    0.35
  -4  -5  -8    2.60    0.44
  -4  -5  -8    1.53    0.80
   4   5   8    2.47    0.49
   4   5   8    1.80    0.63
   4   5   8    2.45    0.53
   4   5   8    0.63    0.65
  -5  -5  -8    4.81    0.70
  -5  -5  -8    5.66    0.81
  -5  -5  -8    4.82    0.65
  -5  -5  -8    5.21    0.61
  -5  -5  -8    5.35    0.98
   5   5   8    5.66    0.79
   5   5   8    4.91    0.77
   5   5   8    5.42    0.86
  -6  -5  -8    0.35    0.38
  -6  -5  -8    0.58    0.52
  -6  -5  -8   -0.16    0.97
  -6  -5  -8    0.07    0.67
   6   5   8   -0.32    0.68
   6   5   8    0.50    0.65
  -7  -5  -8   -0.59    0.42
  -7  -5  -8   -0.11    0.55
  -7  -5  -8    0.62    1.09
  -7  -5  -8    0.92    0.58
   7   5   8    1.41    0.85
   7   5   8    0.46    0.65
  -8  -5  -8    1.15    0.62
  -8  -5  -8    0.30    0.79
  -8  -5  -8    1.01    0.72
   8   5   8   -0.23    0.91
   8   5   8   -0.50    0.99
   8   5   8    1.03    0.79
  -9  -5  -8   -0.68    0.89
  -9  -5  -8    0.23    0.89
  -9  -5  -8    0.51    0.82
   9   5   8    0.34    1.12
   9   5   8    1.97    0.95
   4  -6  -8    1.17    0.80
   4  -6  -8    3.66    0.82
  -4   6   8    1.41    0.67
  -4   6   8    3.20    1.09
   3  -6  -8    0.21    0.54
   3  -6  -8    0.20    0.54
   3  -6  -8    0.18    0.57
  -3   6   8    0.85    0.56
  -3   6   8   -0.45    0.75
   2  -6  -8    0.42    0.32
   2  -6  -8    0.05    0.47
   2  -6  -8    0.74    0.45
  -2   6   8    1.50    0.73
  -2   6   8    0.93    0.53
  -2   6   8    0.34    0.67
   1  -6  -8    0.55    0.37
   1  -6  -8    0.80    0.34
   1  -6  -8    0.62    0.34
   1  -6  -8    0.11    0.41
  -1   6   8   -0.28    0.59
  -1   6   8    0.95    0.50
  -1   6   8    1.10    0.62
   0  -6  -8    2.58    0.53
   0  -6  -8    2.00    0.25
   0  -6  -8    2.92    0.48
   0   6   8    2.00    0.53
   0   6   8    1.35    0.66
   0   6   8    1.44    0.57
  -1  -6  -8    0.83    0.13
  -1  -6  -8    0.58    0.44
  -1  -6  -8    0.69    0.25
  -1  -6  -8    1.14    0.43
   1   6   8   -0.17    0.60
   1   6   8    1.93    0.47
  -2  -6  -8    0.82    0.17
  -2  -6  -8    1.25    0.23
  -2  -6  -8    1.63    0.51
  -2  -6  -8    0.79    0.45
   2   6   8    1.18    0.38
   2   6   8    1.60    0.62
   2   6   8    0.92    0.29
   2   6   8    1.57    0.60
  -3  -6  -8   -0.09    0.92
  -3  -6  -8   -0.14    0.20
  -3  -6  -8    0.14    0.41
   3   6   8   -0.28    0.31
   3   6   8   -0.23    0.67
   3   6   8    0.04    0.31
   3   6   8    0.40    0.53
  -4  -6  -8    2.44    0.41
  -4  -6  -8    2.16    0.58
  -4  -6  -8    1.74    0.89
  -4  -6  -8    1.69    0.33
   4   6   8    2.12    0.66
   4   6   8    3.79    0.65
   4   6   8    2.95    0.53
  -5  -6  -8    4.47    0.56
  -5  -6  -8    5.24    0.71
  -5  -6  -8    3.77    1.12
  -5  -6  -8    5.57    0.78
   5   6   8    5.14    0.76
   5   6   8    5.09    0.88
   5   6   8    4.48    0.72
  -6  -6  -8    0.80    0.37
  -6  -6  -8    0.95    0.52
  -6  -6  -8    0.33    0.47
  -6  -6  -8    0.49    1.02
   6   6   8    2.37    0.68
   6   6   8    0.08    0.71
  -7  -6  -8   -0.35    0.60
  -7  -6  -8   -2.13    1.32
  -7  -6  -8   -0.46    0.42
  -7  -6  -8    0.35    0.60
   7   6   8   -1.18    0.83
   7   6   8    1.19    0.72
   7   6   8    0.77    0.84
  -8  -6  -8    1.45    0.73
  -8  -6  -8    0.36    0.58
  -8  -6  -8   -0.21    0.75
   8   6   8    0.29    0.84
   8   6   8    0.51    0.90
   8   6   8    1.12    1.03
  -9  -6  -8   -0.38    0.80
  -9  -6  -8    1.69    0.88
  -9  -6  -8   -2.20    0.88
   9   6   8    1.04    1.08
   9   6   8   -2.19    1.04
   4  -7  -8   11.53    1.51
   4  -7  -8   11.40    1.30
  -4   7   8   10.35    1.56
  -4   7   8   10.63    1.41
   3  -7  -8   -0.16    0.59
   3  -7  -8    1.02    0.70
  -3   7   8   -0.14    1.00
  -3   7   8   -0.13    0.60
   2  -7  -8    1.57    0.63
   2  -7  -8    0.16    0.49
   2  -7  -8    0.80    0.55
  -2   7   8    0.75    0.78
  -2   7   8    0.41    0.57
   1  -7  -8    0.20    0.44
   1  -7  -8    0.13    0.25
   1  -7  -8    1.01    0.52
   1  -7  -8    0.52    0.40
   1  -7  -8   -0.45    0.35
  -1   7   8    0.11    0.65
  -1   7   8    0.58    0.57
  -1   7   8    0.15    0.82
   0  -7  -8    0.28    0.18
   0  -7  -8   -0.16    0.48
   0  -7  -8   -0.44    0.31
   0  -7  -8   -0.46    0.45
   0   7   8   -0.46    0.71
   0   7   8   -0.11    0.56
   0   7   8   -0.35    0.55
  -1  -7  -8   -0.83    0.49
  -1  -7  -8    0.10    0.48
  -1  -7  -8    0.22    0.13
   1   7   8   -0.82    0.48
   1   7   8   -0.57    0.51
   1   7   8    1.04    0.74
   1   7   8   -0.40    0.53
  -2  -7  -8    0.38    0.23
  -2  -7  -8    0.50    0.17
  -2  -7  -8    0.78    0.49
   2   7   8    0.23    0.22
   2   7   8    0.36    0.53
   2   7   8    0.50    0.39
   2   7   8    0.11    0.76
  -3  -7  -8    1.68    0.26
  -3  -7  -8    1.36    0.26
  -3  -7  -8    1.67    0.56
  -3  -7  -8    1.68    0.27
   3   7   8    1.87    0.39
  -4  -7  -8    0.45    0.23
  -4  -7  -8   -0.07    0.47
  -4  -7  -8   -0.08    0.28
   4   7   8    0.40    0.42
   4   7   8   -0.45    0.52
   4   7   8   -0.21    0.59
   4   7   8   -0.31    0.23
  -5  -7  -8    3.81    0.50
  -5  -7  -8    4.34    0.59
  -5  -7  -8    3.79    0.70
   5   7   8    2.46    0.79
   5   7   8    5.02    0.73
   5   7   8    4.26    0.74
  -6  -7  -8    0.15    0.46
  -6  -7  -8   -0.59    0.29
  -6  -7  -8    0.26    0.53
   6   7   8   -0.47    0.76
   6   7   8    0.33    0.62
   6   7   8   -0.18    0.67
  -7  -7  -8    1.55    0.68
  -7  -7  -8    2.31    0.53
  -7  -7  -8    3.63    0.74
   7   7   8    3.04    0.81
   7   7   8    2.40    0.94
   7   7   8    2.52    0.89
  -8  -7  -8   -0.37    0.55
  -8  -7  -8    0.88    0.71
  -8  -7  -8   -0.06    0.75
   8   7   8    3.06    0.98
   8   7   8    0.10    1.12
   8   7   8    2.93    0.91
   3  -8  -8    7.61    1.08
   3  -8  -8    5.86    1.00
  -3   8   8    4.18    0.96
  -3   8   8    4.55    1.31
   2  -8  -8    0.10    0.74
   2  -8  -8    0.55    0.60
   2  -8  -8   -0.01    0.63
  -2   8   8   -0.36    0.94
  -2   8   8   -0.66    0.68
   1  -8  -8   -0.24    0.41
   1  -8  -8   -0.02    0.33
   1  -8  -8    0.76    0.51
   1  -8  -8    0.62    0.63
  -1   8   8    1.49    1.13
  -1   8   8   -0.62    0.74
  -1   8   8    0.05    0.63
   0  -8  -8    0.26    0.56
   0  -8  -8   -0.27    0.54
   0  -8  -8    0.06    0.23
   0  -8  -8   -0.01    0.38
   0   8   8    0.01    0.60
   0   8   8   -0.26    0.65
  -1  -8  -8    2.16    0.44
  -1  -8  -8    1.76    0.24
  -1  -8  -8    1.74    0.59
   1   8   8    1.59    0.70
   1   8   8    1.66    0.62
   1   8   8    2.42    0.69
  -2  -8  -8    0.79    0.19
  -2  -8  -8    0.64    0.53
  -2  -8  -8    1.05    0.29
   2   8   8    1.51    0.61
   2   8   8    0.95    0.61
   2   8   8    1.51    0.53
  -3  -8  -8    0.77    0.23
  -3  -8  -8    0.37    0.54
   3   8   8    0.39    0.32
   3   8   8    0.34    0.44
   3   8   8    0.57    0.63
  -4  -8  -8   -0.09    0.23
  -4  -8  -8   -0.01    0.20
  -4  -8  -8   -1.19    0.49
  -4  -8  -8    0.27    0.28
   4   8   8   -0.48    0.39
   4   8   8    0.36    0.27
   4   8   8   -0.74    0.62
   4   8   8   -0.24    0.58
  -5  -8  -8    0.41    0.29
  -5  -8  -8    0.25    0.56
  -5  -8  -8   -0.11    0.35
   5   8   8    0.85    0.65
   5   8   8    0.38    0.74
   5   8   8    0.65    0.51
  -6  -8  -8    0.91    0.65
  -6  -8  -8   -0.15    0.45
  -6  -8  -8    0.02    0.35
   6   8   8   -0.66    0.84
   6   8   8    1.39    0.66
  -7  -8  -8   -0.68    0.61
  -7  -8  -8   -0.02    0.38
  -7  -8  -8    0.48    0.69
   7   8   8   -0.66    0.93
   7   8   8    1.35    0.78
  -8  -8  -8    3.44    0.89
  -8  -8  -8    0.07    0.58
  -8  -8  -8    1.48    0.82
   8   8   8    2.43    0.97
   8   8   8    1.84    1.10
   2  -9  -8    0.19    0.81
   2  -9  -8    0.49    0.68
  -2   9   8    0.52    1.15
  -2   9   8    0.72    0.87
   1  -9  -8    1.46    0.69
   1  -9  -8    2.52    0.51
   1  -9  -8    2.61    0.87
   1  -9  -8    2.39    0.65
  -1   9   8    1.92    0.91
  -1   9   8    1.74    1.03
   0  -9  -8    0.23    0.50
   0  -9  -8    1.29    0.70
   0  -9  -8   -0.08    0.31
   0   9   8   -0.64    0.71
   0   9   8   -1.04    0.77
  -1  -9  -8   10.71    0.70
  -1  -9  -8    9.32    0.90
  -1  -9  -8   10.68    1.24
   1   9   8   10.99    1.32
   1   9   8    9.57    1.37
  -2  -9  -8    3.63    0.78
  -2  -9  -8    3.17    0.39
  -2  -9  -8    2.77    0.44
   2   9   8    2.07    0.80
  -3  -9  -8    5.76    0.57
  -3  -9  -8    3.95    0.77
   3   9   8    5.27    0.92
   3   9   8    3.59    0.82
  -4  -9  -8    0.14    0.25
  -4  -9  -8    0.05    0.25
  -4  -9  -8   -0.50    0.59
  -4  -9  -8   -0.24    0.27
   4   9   8   -0.25    0.59
   4   9   8    0.57    0.76
  -5  -9  -8    0.01    0.68
  -5  -9  -8    0.25    0.29
  -5  -9  -8    0.93    0.40
   5   9   8    0.34    0.62
   5   9   8   -0.35    0.87
   5   9   8    0.83    0.50
  -6  -9  -8    0.92    0.46
  -6  -9  -8   -0.38    0.34
  -6  -9  -8    0.97    0.70
   6   9   8   -0.30    0.63
   6   9   8   -1.43    0.91
   6   9   8    0.17    0.89
  -7  -9  -8    0.55    0.56
  -7  -9  -8    0.44    0.77
  -7  -9  -8    0.25    0.45
   7   9   8    0.27    1.05
   7   9   8   -1.17    0.79
   7   9   8    1.11    1.06
   0 -10  -8    0.71    0.90
   0 -10  -8    1.88    0.71
   0 -10  -8    0.53    0.44
   0  10   8   -0.32    1.03
   0  10   8    3.01    1.01
  -1 -10  -8    1.66    0.81
  -1 -10  -8    2.02    0.59
  -1 -10  -8    1.71    0.37
   1  10   8    2.85    0.95
   1  10   8    1.32    0.94
  -2 -10  -8    0.58    0.27
  -2 -10  -8   -0.64    0.41
  -2 -10  -8    0.33    0.71
   2  10   8    1.67    0.88
   2  10   8    1.06    0.89
  -3 -10  -8    1.30    0.78
  -3 -10  -8    1.64    0.41
  -3 -10  -8    1.98    0.33
   3  10   8    1.67    0.96
   3  10   8    1.96    0.85
  -4 -10  -8    0.57    0.32
  -4 -10  -8    1.37    0.81
  -4 -10  -8    0.73    0.36
   4  10   8    0.43    0.92
   4  10   8    0.99    0.73
  -5 -10  -8    0.64    0.38
  -5 -10  -8    2.48    0.81
  -5 -10  -8    0.32    0.33
  -5 -10  -8    0.89    0.34
   5  10   8    0.07    1.00
   5  10   8    0.65    0.98
  -6 -10  -8    2.60    0.57
  -6 -10  -8    1.87    0.89
  -6 -10  -8    2.64    0.48
   6  10   8    2.71    1.23
   6  10   8    2.52    1.13
   6  10   8    2.32    0.70
  -2 -11  -8    0.91    0.99
  -2 -11  -8    3.83    0.71
  -2 -11  -8    2.63    0.47
   2  11   8    3.58    1.08
   2  11   8    3.40    1.14
  -3 -11  -8    0.54    0.32
  -3 -11  -8    0.29    0.90
  -3 -11  -8    0.43    0.49
   3  11   8    0.88    1.10
  -4 -11  -8    0.07    0.35
  -4 -11  -8    1.69    0.94
  -4 -11  -8    0.54    0.44
   4  11   8    1.21    1.21
   4  11   8    0.75    1.15
   3   7  -9   -0.14    1.01
  -3  -7   9    0.00    0.86
  -3  -7   9    0.27    0.76
  -3  -7   9    0.72    0.59
   2   7  -9    0.59    0.98
  -2  -7   9    0.92    0.76
  -2  -7   9    0.00    0.88
  -2  -7   9    0.45    0.60
   1   7  -9    0.73    0.98
  -1  -7   9   -1.19    0.74
  -1  -7   9    0.59    0.92
   0   7  -9    2.93    1.08
   0  -7   9    0.97    0.82
   0  -7   9   -1.26    0.95
  -1   7  -9    2.66    1.12
  -1   7  -9    1.29    1.12
   1  -7   9    0.32    0.79
   1  -7   9    0.34    1.06
   4   6  -9    0.06    0.94
   4   6  -9    0.64    0.69
  -4  -6   9    0.00    0.66
  -4  -6   9   -1.10    0.63
   3   6  -9    0.65    0.55
   3   6  -9    2.43    0.95
  -3  -6   9    0.85    0.66
  -3  -6   9    2.10    0.51
  -3  -6   9    2.35    0.78
   2   6  -9   -0.09    0.44
   2   6  -9   -0.31    0.79
  -2  -6   9    0.78    0.71
  -2  -6   9   -0.24    0.64
  -2  -6   9    0.32    0.49
   1   6  -9   -0.69    0.85
   1   6  -9    0.59    0.38
  -1  -6   9    0.73    0.80
  -1  -6   9   -0.29    0.59
   0   6  -9    3.73    0.44
   0   6  -9    3.27    0.98
   0  -6   9    2.24    0.74
   0  -6   9    5.03    1.06
  -1   6  -9    1.26    0.95
  -1   6  -9   -0.09    0.88
  -1   6  -9    0.58    0.28
   1  -6   9   -0.42    0.86
   1  -6   9    0.20    0.65
  -2   6  -9    2.10    1.10
  -2   6  -9    0.46    0.28
  -2   6  -9    0.70    0.97
   2  -6   9   -0.07    1.01
   2  -6   9    0.30    0.66
  -3   6  -9    2.20    1.07
  -3   6  -9   -1.40    1.06
   3  -6   9    2.01    1.19
   3  -6   9    1.95    0.92
   5   5  -9    0.26    0.72
   5   5  -9   -1.17    0.91
  -5  -5   9    0.40    0.71
   4   5  -9    0.42    0.86
  -4  -5   9    0.34    0.57
  -4  -5   9    0.00    0.60
   3   5  -9    1.81    0.51
   3   5  -9    1.60    0.80
  -3  -5   9    1.60    0.44
  -3  -5   9    1.97    0.60
  -3  -5   9    1.84    0.66
   2   5  -9    4.30    0.83
   2   5  -9    4.76    0.56
  -2  -5   9    3.51    0.53
  -2  -5   9    3.53    0.80
  -2  -5   9    4.56    0.78
   1   5  -9    1.12    0.68
   1   5  -9   -0.13    0.43
   1   5  -9   -0.18    0.60
   1   5  -9   -0.25    0.31
  -1  -5   9   -0.43    0.60
  -1  -5   9   -1.10    0.51
   0   5  -9    1.51    0.39
   0   5  -9    1.94    0.33
   0   5  -9    1.44    0.82
   0   5  -9    2.06    0.68
   0  -5   9    1.85    0.74
   0  -5   9    1.91    0.66
  -1   5  -9    0.67    0.24
  -1   5  -9   -0.63    0.66
  -1   5  -9    0.58    0.80
   1  -5   9    0.72    1.01
   1  -5   9   -0.37    0.74
   1  -5   9   -0.19    0.56
  -2   5  -9   -0.08    0.82
  -2   5  -9    0.23    0.79
   2  -5   9   -1.51    0.79
   2  -5   9    0.79    0.61
  -3   5  -9    0.04    0.84
  -3   5  -9   -0.25    0.89
   3  -5   9   -0.04    0.99
   3  -5   9   -0.46    0.72
  -4   5  -9    0.52    1.07
  -4   5  -9   -1.43    1.02
   4  -5   9   -0.65    0.83
   4  -5   9    1.12    1.21
   6   4  -9    0.24    0.85
  -6  -4   9   -0.80    0.71
  -6  -4   9    0.19    1.06
   5   4  -9   -1.88    0.84
   5   4  -9    0.26    0.67
  -5  -4   9    0.94    0.64
   4   4  -9    3.71    0.67
   4   4  -9    3.56    0.89
  -4  -4   9    2.93    0.59
  -4  -4   9    2.23    0.66
   3   4  -9   13.68    1.06
   3   4  -9   13.51    1.36
  -3  -4   9   13.94    1.21
  -3  -4   9   12.64    1.22
   2   4  -9    3.73    0.84
   2   4  -9    5.32    0.71
   2   4  -9    3.96    0.51
  -2  -4   9    4.20    0.73
  -2  -4   9    4.15    0.68
  -2  -4   9    3.80    0.72
   1   4  -9    4.02    0.47
   1   4  -9    2.21    0.69
   1   4  -9    4.01    0.46
   1   4  -9    2.11    0.60
  -1  -4   9    2.83    0.72
  -1  -4   9    1.88    0.67
  -1  -4   9    3.60    0.71
   0   4  -9    0.03    0.26
   0   4  -9   -0.31    0.58
   0   4  -9    0.52    0.24
   0   4  -9    0.37    0.53
   0  -4   9    0.47    0.49
   0  -4   9    0.11    0.69
   0  -4   9    0.71    0.61
  -1   4  -9   -0.05    0.24
  -1   4  -9   -0.55    0.57
  -1   4  -9   -0.20    0.56
  -1   4  -9    0.75    0.23
   1  -4   9    0.17    0.80
   1  -4   9    0.11    0.48
   1  -4   9    0.50    0.64
  -2   4  -9   -0.20    0.64
  -2   4  -9    0.11    0.64
  -2   4  -9    0.12    0.16
   2  -4   9    0.93    0.56
   2  -4   9    0.68    0.70
   2  -4   9    0.25    0.94
  -3   4  -9   -0.14    0.77
  -3   4  -9    0.93    0.82
  -3   4  -9   -0.10    0.33
   3  -4   9   -0.30    0.80
   3  -4   9    0.91    0.64
   3  -4   9    1.78    0.88
  -4   4  -9   -0.03    0.83
  -4   4  -9    0.70    0.49
  -4   4  -9    1.12    0.84
   4  -4   9    1.01    0.93
   4  -4   9   -1.01    0.75
  -5   4  -9    0.20    1.03
  -5   4  -9    1.59    0.69
  -5   4  -9   -1.10    1.05
   5  -4   9    1.48    1.21
   5  -4   9    0.19    0.90
   6   3  -9   -0.72    0.78
  -6  -3   9   -0.83    0.68
  -6  -3   9   -2.41    0.96
   5   3  -9   -0.76    0.77
   5   3  -9    1.30    0.68
  -5  -3   9   -0.27    0.55
   4   3  -9    0.00    0.64
   4   3  -9    0.17    0.47
  -4  -3   9    0.43    0.49
   3   3  -9    1.68    0.64
   3   3  -9    2.03    0.43
  -3  -3   9    2.32    0.59
  -3  -3   9    2.42    0.50
  -3  -3   9    1.33    0.50
   2   3  -9    3.90    0.75
   2   3  -9    4.12    0.53
   2   3  -9    3.87    0.44
   2   3  -9    4.13    0.59
  -2  -3   9    4.82    0.67
  -2  -3   9    3.82    0.65
  -2  -3   9    3.71    0.69
   1   3  -9    3.15    0.41
   1   3  -9    2.80    0.58
   1   3  -9    2.80    0.38
   1   3  -9    2.88    0.66
  -1  -3   9    3.04    0.62
  -1  -3   9    2.08    0.64
  -1  -3   9    2.31    0.56
   0   3  -9    1.22    0.48
   0   3  -9    0.17    0.52
   0   3  -9    0.83    0.21
   0   3  -9    0.74    0.23
   0  -3   9    0.53    0.58
   0  -3   9   -0.72    0.58
   0  -3   9    0.54    0.44
  -1   3  -9    1.51    0.25
  -1   3  -9    1.83    0.59
  -1   3  -9    2.11    0.64
  -1   3  -9    1.76    0.23
   1  -3   9    0.56    0.66
   1  -3   9    2.42    0.69
   1  -3   9    1.92    0.52
  -2   3  -9   -0.27    0.16
  -2   3  -9   -0.09    0.19
  -2   3  -9   -0.49    0.52
  -2   3  -9   -0.45    0.56
   2  -3   9   -0.01    0.64
   2  -3   9   -0.39    0.76
   2  -3   9    0.37    0.70
   2  -3   9   -0.02    0.47
  -3   3  -9    0.89    0.64
  -3   3  -9    0.12    0.29
  -3   3  -9    0.16    0.63
   3  -3   9   -0.01    0.67
   3  -3   9   -0.20    0.64
   3  -3   9   -0.29    0.54
  -4   3  -9    0.06    0.39
  -4   3  -9    0.57    0.71
  -4   3  -9    1.11    0.69
   4  -3   9   -0.20    0.81
   4  -3   9    0.25    0.68
  -5   3  -9   -0.08    0.79
  -5   3  -9   -0.33    0.82
  -5   3  -9    0.60    0.60
   5  -3   9   -0.19    0.81
   5  -3   9   -1.25    1.06
  -6   3  -9    0.13    1.05
  -6   3  -9   -0.76    0.73
  -6   3  -9   -0.24    1.07
   6  -3   9    1.38    1.34
   6  -3   9   -0.52    1.02
   6   2  -9    5.85    1.05
  -6  -2   9    4.40    1.17
  -6  -2   9    5.69    0.82
   5   2  -9   -0.08    0.59
  -5  -2   9    0.05    0.57
  -5  -2   9    0.59    0.53
   4   2  -9    0.95    0.33
   4   2  -9    1.34    0.50
   4   2  -9    1.81    0.73
  -4  -2   9    1.25    0.44
  -4  -2   9    1.70    0.52
  -4  -2   9    1.78    0.43
  -4  -2   9    1.65    0.45
   3   2  -9    1.33    0.46
   3   2  -9    1.50    0.37
   3   2  -9    2.07    0.62
  -3  -2   9    1.78    0.62
  -3  -2   9    1.41    0.32
  -3  -2   9    1.67    0.45
   2   2  -9    8.91    0.98
   2   2  -9    7.80    0.79
   2   2  -9    8.68    0.74
  -2  -2   9    7.91    0.64
  -2  -2   9    7.94    0.88
   1   2  -9   -0.02    0.20
   1   2  -9   -0.07    0.23
   1   2  -9    0.54    0.48
   1   2  -9    0.58    0.43
  -1  -2   9   -0.05    0.48
  -1  -2   9    0.49    0.29
  -1  -2   9   -0.60    0.48
   0   2  -9    1.87    0.47
   0   2  -9    1.41    0.26
   0  -2   9    1.47    0.37
   0  -2   9    1.51    0.58
   0  -2   9    1.49    0.44
   0  -2   9    2.43    0.60
  -1   2  -9    1.12    0.18
  -1   2  -9    1.02    0.22
  -1   2  -9    1.29    0.18
  -1   2  -9    1.64    0.55
  -1   2  -9    0.93    0.50
   1  -2   9    0.83    0.55
   1  -2   9    1.91    0.50
   1  -2   9    1.03    0.60
   1  -2   9    1.14    0.43
  -2   2  -9    0.76    0.51
  -2   2  -9    0.74    0.19
  -2   2  -9    0.94    0.19
  -2   2  -9    0.66    0.56
   2  -2   9   -0.35    0.43
   2  -2   9   -0.32    0.70
   2  -2   9    1.51    0.55
   2  -2   9    0.86    0.51
   2  -2   9    0.45    0.61
  -3   2  -9   -0.33    0.53
  -3   2  -9    0.58    0.57
  -3   2  -9    0.20    0.26
  -3   2  -9    0.07    0.23
   3  -2   9   -0.19    0.54
   3  -2   9   -0.09    0.67
   3  -2   9    0.29    0.46
  -4   2  -9    0.50    0.36
  -4   2  -9    0.71    0.66
   4  -2   9   -0.65    0.53
   4  -2   9    0.49    0.63
   4  -2   9    0.71    0.83
  -5   2  -9   -1.08    0.69
  -5   2  -9    0.34    0.72
   5  -2   9    0.03    0.70
   5  -2   9   -2.54    0.91
  -6   2  -9    0.76    0.81
  -6   2  -9    0.30    0.63
  -6   2  -9    0.94    0.94
   6  -2   9   -1.34    1.14
   6  -2   9    0.45    0.91
  -7   2  -9    0.80    0.84
  -7   2  -9    1.41    1.10
  -7   2  -9    0.93    1.09
   7  -2   9   -0.78    1.06
   7  -2   9    2.64    1.53
   7  -2   9    0.64    1.29
   6   1  -9    2.05    0.87
  -6  -1   9    0.30    0.62
  -6  -1   9    5.25    1.11
  -6  -1   9    2.38    0.90
   5   1  -9    2.09    0.66
  -5  -1   9    2.57    0.62
  -5  -1   9    3.07    0.96
  -5  -1   9    2.95    0.34
  -5  -1   9    3.03    0.33
   4   1  -9    1.73    0.37
   4   1  -9    1.23    0.54
  -4  -1   9    1.26    0.43
  -4  -1   9    1.30    0.43
  -4  -1   9    1.81    0.71
  -4  -1   9    1.86    0.36
  -4  -1   9    1.11    0.46
   3   1  -9   -0.02    0.34
   3   1  -9    0.21    0.30
   3   1  -9   -0.51    0.50
  -3  -1   9    0.30    0.49
  -3  -1   9   -0.02    0.42
  -3  -1   9    0.08    0.31
  -3  -1   9    0.37    0.39
  -3  -1   9    0.08    0.37
   2   1  -9    2.44    0.63
   2   1  -9    2.59    0.43
   2   1  -9    2.47    0.41
  -2  -1   9    1.30    0.50
  -2  -1   9    2.94    0.53
  -2  -1   9    2.08    0.51
   1   1  -9    1.40    0.31
   1   1  -9    0.44    0.48
   1   1  -9    1.44    0.45
  -1  -1   9    1.35    0.49
  -1  -1   9    1.51    0.35
  -1  -1   9    2.06    0.48
  -1  -1   9    0.99    0.50
   0   1  -9    1.95    0.21
   0   1  -9    1.09    0.48
   0   1  -9    1.47    0.47
   0   1  -9    1.65    0.26
   0  -1   9    2.65    0.52
   0  -1   9    1.36    0.42
   0  -1   9    1.34    0.63
  -1   1  -9    0.02    0.16
  -1   1  -9   -0.53    0.42
  -1   1  -9   -0.38    0.41
  -1   1  -9    0.08    0.10
   1  -1   9    0.23    0.42
   1  -1   9   -0.33    0.42
   1  -1   9    0.79    0.53
  -2   1  -9    0.68    0.17
  -2   1  -9    0.56    0.17
  -2   1  -9    1.52    0.48
  -2   1  -9    0.03    0.47
   2  -1   9    1.60    0.52
   2  -1   9    1.22    0.51
   2  -1   9    2.50    0.68
   2  -1   9    1.70    0.58
   2  -1   9    0.01    0.47
  -3   1  -9    0.74    0.49
  -3   1  -9    0.07    0.54
  -3   1  -9   -0.33    0.21
  -3   1  -9   -0.20    0.24
   3  -1   9    0.55    0.70
   3  -1   9   -0.54    0.62
   3  -1   9    0.43    0.67
   3  -1   9    0.20    0.49
   3  -1   9    0.58    0.48
  -4   1  -9    1.15    0.57
  -4   1  -9    0.57    0.35
   4  -1   9    2.34    0.55
   4  -1   9    0.01    0.76
   4  -1   9    2.49    0.79
   4  -1   9    2.01    0.57
  -5   1  -9    0.94    0.68
  -5   1  -9    2.53    0.71
   5  -1   9    1.46    0.69
   5  -1   9    1.24    0.86
   5  -1   9    1.57    0.57
  -6   1  -9    0.36    0.78
  -6   1  -9    0.43    0.57
  -6   1  -9   -0.47    0.74
   6  -1   9    0.67    0.76
   6  -1   9    0.56    1.05
  -7   1  -9    1.70    0.86
  -7   1  -9   -1.96    0.73
  -7   1  -9    0.20    0.98
   7  -1   9   -2.34    0.95
   7  -1   9   -1.34    0.93
   7  -1   9   -1.12    1.27
   6   0  -9    0.03    0.80
  -6   0   9   -1.22    1.02
   5   0  -9    1.01    0.68
  -5   0   9    1.71    0.35
  -5   0   9    0.55    0.51
  -5   0   9    1.55    0.89
   4   0  -9    0.04    0.48
  -4   0   9    0.56    0.44
  -4   0   9    1.05    0.64
  -4   0   9    0.37    0.44
  -4   0   9    0.27    0.31
   3   0  -9   -0.62    0.48
   3   0  -9    0.34    0.38
  -3   0   9   -0.03    0.41
  -3   0   9    0.32    0.30
  -3   0   9   -0.09    0.42
  -3   0   9    0.68    0.40
  -3   0   9    0.70    0.46
   2   0  -9    1.32    0.48
   2   0  -9    0.87    0.50
   2   0  -9    1.16    0.36
  -2   0   9    1.19    0.45
  -2   0   9    0.98    0.45
  -2   0   9    0.95    0.43
  -2   0   9    0.98    0.31
   1   0  -9    3.65    0.47
   1   0  -9    3.78    0.59
   1   0  -9    4.45    0.57
   1   0  -9    4.03    0.65
  -1   0   9    4.19    0.65
  -1   0   9    6.02    0.76
  -1   0   9    3.81    0.65
  -1   0   9    3.99    0.51
   0   0  -9    1.38    0.14
   0   0  -9    0.85    0.44
   0   0  -9    0.83    0.21
   0   0  -9    2.06    0.48
   0   0   9    2.02    0.51
   0   0   9    1.32    0.63
   0   0   9    1.28    0.46
   0   0   9    1.23    0.39
  -1   0  -9    0.20    0.11
  -1   0  -9    0.16    0.08
  -1   0  -9    0.12    0.17
  -1   0  -9    0.53    0.40
  -1   0  -9   -0.14    0.40
   1   0   9    0.01    0.40
   1   0   9   -0.04    0.48
   1   0   9   -0.78    0.45
   1   0   9    0.28    0.39
  -2   0  -9    0.85    0.18
  -2   0  -9   -0.02    0.42
  -2   0  -9    1.21    0.43
  -2   0  -9    0.75    0.19
   2   0   9    1.50    0.50
   2   0   9    1.46    0.60
   2   0   9    1.15    0.56
   2   0   9    0.87    0.47
  -3   0  -9    2.42    0.34
  -3   0  -9    3.32    0.57
  -3   0  -9    3.27    0.63
  -3   0  -9    2.42    0.35
   3   0   9    2.19    0.72
   3   0   9    3.92    0.72
   3   0   9    2.24    0.57
  -4   0  -9    0.35    0.31
  -4   0  -9    0.66    0.54
  -4   0  -9    0.74    0.37
  -4   0  -9   -0.03    0.42
   4   0   9   -0.32    0.53
   4   0   9    0.73    0.66
   4   0   9    0.16    0.76
  -5   0  -9    0.75    0.46
  -5   0  -9    0.06    0.58
  -5   0  -9    0.00    0.47
   5   0   9   -0.02    0.60
   5   0   9    0.28    0.80
  -6   0  -9    2.78    0.63
  -6   0  -9    0.80    0.75
  -6   0  -9    2.49    0.70
   6   0   9    1.31    0.75
   6   0   9    2.61    0.95
   6   0   9    3.53    0.88
  -7   0  -9   -0.91    0.84
  -7   0  -9   -0.21    0.76
  -7   0  -9    0.72    0.64
   7   0   9   -1.23    0.85
   7   0   9   -0.42    1.14
   7   0   9    0.63    0.94
   6  -1  -9   -0.22    0.80
   6  -1  -9   -0.50    0.86
  -6   1   9   -0.83    1.08
   5  -1  -9    0.48    0.66
   5  -1  -9   -0.59    0.65
  -5   1   9    0.42    0.37
  -5   1   9   -0.80    0.85
  -5   1   9    0.88    0.53
   4  -1  -9    0.05    0.47
   4  -1  -9   -0.39    0.51
   4  -1  -9    0.96    0.54
  -4   1   9    0.46    0.38
  -4   1   9    0.06    0.47
  -4   1   9    0.90    0.45
  -4   1   9    0.86    0.53
  -4   1   9   -0.08    0.35
   3  -1  -9    0.50    0.34
   3  -1  -9    0.54    0.38
   3  -1  -9    0.56    0.47
   3  -1  -9    1.27    0.44
  -3   1   9    1.54    0.49
  -3   1   9    0.19    0.31
  -3   1   9    0.63    0.43
  -3   1   9    0.82    0.42
   2  -1  -9    2.45    0.35
   2  -1  -9    2.16    0.43
   2  -1  -9    1.63    0.47
  -2   1   9    2.00    0.48
  -2   1   9    1.60    0.38
  -2   1   9    1.33    0.34
  -2   1   9    1.45    0.51
  -2   1   9    1.76    0.51
   1  -1  -9    0.05    0.33
   1  -1  -9   -0.18    0.39
   1  -1  -9   -0.51    0.22
   1  -1  -9   -0.47    0.41
  -1   1   9    0.25    0.41
  -1   1   9   -0.45    0.42
  -1   1   9    0.01    0.35
  -1   1   9    0.29    0.33
   0  -1  -9    0.93    0.38
   0  -1  -9    0.91    0.23
   0  -1  -9    0.74    0.41
   0  -1  -9    1.13    0.37
   0   1   9    1.74    0.61
   0   1   9    1.42    0.56
   0   1   9    1.43    0.42
   0   1   9    0.93    0.48
   0   1   9    1.29    0.46
  -1  -1  -9    1.23    0.46
  -1  -1  -9    1.06    0.42
  -1  -1  -9    1.10    0.12
  -1  -1  -9    1.11    0.17
  -1  -1  -9    1.16    0.22
   1   1   9    1.04    0.51
   1   1   9    0.93    0.41
   1   1   9    1.18    0.43
   1   1   9    1.09    0.54
   1   1   9    1.24    0.55
  -2  -1  -9    0.74    0.43
  -2  -1  -9    1.05    0.38
  -2  -1  -9    0.46    0.17
   2   1   9    0.50    0.48
   2   1   9    0.88    0.46
   2   1   9    0.37    0.49
   2   1   9   -0.21    0.52
  -3  -1  -9   -0.34    0.45
  -3  -1  -9   -0.06    0.20
  -3  -1  -9   -0.42    0.26
  -3  -1  -9   -0.45    0.34
   3   1   9   -0.25    0.56
   3   1   9   -0.18    0.56
  -4  -1  -9    1.17    0.18
  -4  -1  -9    1.53    0.56
  -4  -1  -9    0.48    0.40
  -4  -1  -9    1.29    0.41
  -4  -1  -9    0.34    0.31
   4   1   9    0.79    0.52
   4   1   9    1.23    0.75
   4   1   9    0.65    0.80
  -5  -1  -9    0.28    0.41
  -5  -1  -9    0.02    0.27
  -5  -1  -9    0.89    0.55
   5   1   9   -0.54    0.75
   5   1   9   -1.14    0.55
  -6  -1  -9   -0.37    0.44
  -6  -1  -9   -0.27    0.46
  -6  -1  -9   -0.28    0.60
   6   1   9   -0.35    0.69
   6   1   9   -0.04    0.70
   6   1   9    0.25    0.88
  -7  -1  -9    0.21    0.77
  -7  -1  -9   -0.26    0.58
  -7  -1  -9    0.79    0.64
   7   1   9    0.13    1.02
   7   1   9   -0.80    0.79
  -8  -1  -9    6.37    1.17
  -8  -1  -9    4.85    0.95
   8   1   9    6.58    1.59
   8   1   9    4.01    1.16
   6  -2  -9    1.27    0.93
   6  -2  -9   -0.26    0.89
  -6   2   9    0.87    0.45
  -6   2   9    0.59    1.18
   5  -2  -9    0.30    0.67
   5  -2  -9   -0.68    0.66
  -5   2   9   -0.18    0.94
  -5   2   9    0.68    0.43
   4  -2  -9    1.16    0.56
   4  -2  -9    1.34    0.55
  -4   2   9    2.21    0.56
  -4   2   9    1.93    0.44
  -4   2   9    1.41    0.83
   3  -2  -9    0.49    0.42
   3  -2  -9    0.84    0.35
   3  -2  -9    0.58    0.43
   3  -2  -9    0.91    0.43
  -3   2   9   -0.39    0.48
  -3   2   9   -0.19    0.42
  -3   2   9    0.49    0.41
  -3   2   9   -0.20    0.35
  -3   2   9    0.13    0.36
   2  -2  -9    0.13    0.37
   2  -2  -9    0.12    0.37
   2  -2  -9   -0.04    0.32
   2  -2  -9    0.47    0.36
  -2   2   9   -0.05    0.32
  -2   2   9    0.06    0.30
  -2   2   9   -0.21    0.41
  -2   2   9    1.35    0.52
   1  -2  -9   15.48    1.08
   1  -2  -9   14.08    1.02
   1  -2  -9   14.88    0.87
  -1   2   9   14.63    1.16
  -1   2   9   16.01    1.17
  -1   2   9   13.65    1.15
  -1   2   9   13.62    1.03
   0  -2  -9   -0.04    0.34
   0  -2  -9    0.53    0.40
   0  -2  -9    0.05    0.19
   0   2   9    0.44    0.43
   0   2   9    0.41    0.55
   0   2   9    0.84    0.37
   0   2   9   -0.37    0.51
   0   2   9    0.12    0.39
  -1  -2  -9    4.46    0.26
  -1  -2  -9    3.46    0.37
  -1  -2  -9    3.76    0.59
  -1  -2  -9    4.06    0.29
  -1  -2  -9    4.28    0.62
  -1  -2  -9    3.12    0.54
  -1  -2  -9    4.62    0.28
  -1  -2  -9    4.14    0.33
   1   2   9    4.64    0.68
   1   2   9    4.05    0.66
   1   2   9    4.00    0.65
   1   2   9    4.36    0.70
  -2  -2  -9    0.24    0.12
  -2  -2  -9   -0.05    0.14
  -2  -2  -9    0.47    0.34
  -2  -2  -9    0.25    0.09
  -2  -2  -9    0.38    0.20
  -2  -2  -9    0.74    0.43
  -2  -2  -9   -0.06    0.23
   2   2   9    0.45    0.57
   2   2   9    0.81    0.52
   2   2   9   -0.27    0.44
   2   2   9    0.17    0.42
   2   2   9   -0.02    0.44
  -3  -2  -9    2.12    0.42
  -3  -2  -9    1.55    0.48
  -3  -2  -9    1.92    0.24
  -3  -2  -9    1.50    0.27
   3   2   9    2.54    0.65
   3   2   9    1.83    0.67
   3   2   9    1.03    0.55
   3   2   9    2.21    0.66
  -4  -2  -9   -0.25    0.32
  -4  -2  -9    0.02    0.24
  -4  -2  -9    0.25    0.50
  -4  -2  -9    0.07    0.26
   4   2   9    1.10    0.69
   4   2   9    0.07    0.70
   4   2   9    1.21    0.58
   4   2   9    1.26    0.64
  -5  -2  -9    0.10    0.34
  -5  -2  -9   -0.20    0.35
  -5  -2  -9    0.48    0.52
   5   2   9    0.49    0.60
   5   2   9    0.72    0.62
  -6  -2  -9   -0.06    0.43
  -6  -2  -9    0.21    0.64
  -6  -2  -9   -1.28    0.49
  -6  -2  -9    0.31    0.39
   6   2   9    0.15    0.66
   6   2   9    0.25    0.82
  -7  -2  -9    7.08    1.08
  -7  -2  -9    6.96    0.84
  -7  -2  -9    6.49    0.88
   7   2   9    6.37    1.28
   7   2   9    6.28    1.12
  -8  -2  -9    7.31    1.06
  -8  -2  -9    5.50    1.15
   8   2   9    8.35    1.54
   8   2   9    9.76    1.44
   5  -3  -9    0.37    0.78
   5  -3  -9    0.07    0.77
  -5   3   9    0.77    1.01
  -5   3   9   -0.85    0.50
   4  -3  -9    0.27    0.58
   4  -3  -9    0.94    0.62
  -4   3   9    2.04    0.85
  -4   3   9    0.29    0.45
   3  -3  -9    2.23    0.54
   3  -3  -9    2.89    0.49
   3  -3  -9    2.28    0.53
  -3   3   9    2.65    0.57
  -3   3   9    2.57    0.54
  -3   3   9    2.73    0.75
  -3   3   9    3.92    0.72
   2  -3  -9   -0.25    0.33
   2  -3  -9    0.11    0.41
   2  -3  -9    0.00    0.36
   2  -3  -9    0.39    0.38
  -2   3   9    0.36    0.42
  -2   3   9    0.02    0.42
  -2   3   9   -0.01    0.23
  -2   3   9    0.20    0.36
  -2   3   9    0.13    0.56
   1  -3  -9    0.59    0.30
   1  -3  -9    0.12    0.27
   1  -3  -9    0.13    0.34
   1  -3  -9    0.50    0.38
  -1   3   9    0.45    0.37
  -1   3   9    0.02    0.41
  -1   3   9    0.72    0.43
   0  -3  -9    9.77    0.86
   0  -3  -9   10.31    0.66
   0  -3  -9    9.47    0.89
   0   3   9    9.62    0.90
   0   3   9   10.11    1.00
   0   3   9    9.43    1.06
   0   3   9   11.85    1.09
  -1  -3  -9    5.68    0.41
  -1  -3  -9    5.62    0.34
  -1  -3  -9    5.32    0.47
  -1  -3  -9    5.40    0.32
  -1  -3  -9    5.77    0.71
  -1  -3  -9    6.18    0.78
   1   3   9    4.97    0.67
   1   3   9    5.52    0.78
   1   3   9    7.71    0.87
   1   3   9    6.66    0.88
   1   3   9    5.74    0.76
  -2  -3  -9    1.62    0.25
  -2  -3  -9    1.62    0.46
  -2  -3  -9    2.18    0.30
  -2  -3  -9    1.77    0.27
   2   3   9    1.89    0.60
   2   3   9    1.58    0.45
   2   3   9    2.87    0.66
   2   3   9    2.13    0.57
   2   3   9    2.24    0.61
  -3  -3  -9    0.84    0.23
  -3  -3  -9    0.22    0.45
  -3  -3  -9    1.29    0.31
  -3  -3  -9    1.14    0.34
  -3  -3  -9    0.19    0.29
   3   3   9    1.53    0.64
   3   3   9    1.24    0.57
   3   3   9    1.26    0.46
   3   3   9   -0.18    0.47
   3   3   9    0.49    0.62
  -4  -3  -9    1.01    0.34
  -4  -3  -9    0.65    0.28
  -4  -3  -9    0.89    0.49
   4   3   9    1.25    0.51
   4   3   9    1.18    0.54
   4   3   9    0.56    0.61
  -5  -3  -9    0.64    0.30
  -5  -3  -9    0.70    0.43
  -5  -3  -9    0.43    0.54
  -5  -3  -9    0.20    0.34
  -6  -3  -9    0.20    0.43
  -6  -3  -9    0.21    0.59
  -6  -3  -9    0.20    0.30
  -6  -3  -9    0.24    0.56
   6   3   9    0.81    0.71
  -7  -3  -9    0.55    0.72
  -7  -3  -9    0.28    0.55
   7   3   9    0.90    0.99
   7   3   9   -0.06    0.87
  -8  -3  -9    0.92    0.83
  -8  -3  -9    1.83    0.76
   8   3   9    5.72    1.30
   8   3   9    0.33    0.82
   8   3   9    2.60    1.06
   5  -4  -9    5.42    1.03
   5  -4  -9    4.51    1.02
  -5   4   9    4.61    1.28
  -5   4   9    5.47    0.78
   4  -4  -9    0.90    0.62
   4  -4  -9    1.41    0.67
  -4   4   9    1.57    0.58
  -4   4   9    0.50    0.81
   3  -4  -9    4.02    0.66
   3  -4  -9    3.00    0.61
   3  -4  -9    3.25    0.61
  -3   4   9    3.53    0.88
  -3   4   9    3.65    0.63
   2  -4  -9   -0.11    0.34
   2  -4  -9    0.89    0.43
   2  -4  -9   -0.08    0.38
   2  -4  -9   -0.29    0.39
  -2   4   9    1.38    0.50
   1  -4  -9   -0.08    0.30
   1  -4  -9    0.38    0.35
   1  -4  -9    0.68    0.41
   1  -4  -9    0.07    0.28
  -1   4   9    0.01    0.43
  -1   4   9   -0.62    0.61
  -1   4   9    0.29    0.47
   0  -4  -9    6.14    0.75
   0  -4  -9    6.78    0.56
   0  -4  -9    6.11    0.56
   0  -4  -9    6.57    0.78
   0   4   9    6.42    0.86
   0   4   9    6.50    0.56
   0   4   9    9.23    0.89
   0   4   9    9.22    0.97
   0   4   9    7.34    0.95
   0   4   9    6.23    0.90
  -1  -4  -9    1.70    0.49
  -1  -4  -9    2.64    0.53
   1   4   9    2.19    0.51
   1   4   9    1.84    0.53
   1   4   9    2.27    0.38
   1   4   9    1.98    0.61
   1   4   9    3.32    0.72
  -2  -4  -9   10.35    0.89
  -2  -4  -9    8.16    0.56
  -2  -4  -9    7.79    0.55
   2   4   9    7.46    1.05
   2   4   9    8.20    1.00
   2   4   9    9.94    1.17
   2   4   9    9.64    1.05
   2   4   9    9.03    0.87
   2   4   9    8.34    0.78
  -3  -4  -9    7.50    0.66
  -3  -4  -9    7.29    0.57
  -3  -4  -9    7.20    0.85
   3   4   9    7.13    0.95
   3   4   9    8.24    1.02
   3   4   9    6.06    0.77
   3   4   9    6.66    0.82
  -4  -4  -9   12.55    1.08
  -4  -4  -9    8.66    0.86
  -4  -4  -9   10.02    0.88
   4   4   9   10.29    1.21
   4   4   9    8.77    1.01
  -5  -4  -9    1.37    0.61
  -5  -4  -9    1.80    0.39
  -5  -4  -9    1.45    0.48
  -5  -4  -9    1.80    0.55
   5   4   9    1.40    0.63
  -6  -4  -9    2.94    0.72
  -6  -4  -9    2.34    0.69
  -6  -4  -9    2.45    0.66
  -6  -4  -9    1.79    0.50
   6   4   9    1.81    0.73
  -7  -4  -9    1.98    0.60
  -7  -4  -9    1.05    0.70
   7   4   9    0.71    0.81
   7   4   9    0.40    0.99
  -8  -4  -9    0.73    0.78
  -8  -4  -9    0.49    0.67
   8   4   9    0.23    1.21
   8   4   9    1.12    0.90
   8   4   9   -1.16    0.98
   4  -5  -9    5.89    0.99
   4  -5  -9   10.56    1.33
  -4   5   9    7.85    0.93
  -4   5   9    9.38    1.41
   3  -5  -9    0.39    0.58
   3  -5  -9    1.65    0.62
  -3   5   9    0.54    0.83
  -3   5   9    0.27    0.54
   2  -5  -9    0.32    0.38
   2  -5  -9    0.34    0.51
   2  -5  -9    0.05    0.42
   2  -5  -9    0.42    0.45
  -2   5   9    0.71    0.54
  -2   5   9    0.56    0.73
  -2   5   9   -0.14    0.70
   1  -5  -9    0.13    0.34
   1  -5  -9   -0.55    0.35
   1  -5  -9   -0.38    0.32
   1  -5  -9   -0.39    0.46
  -1   5   9   -0.04    0.67
  -1   5   9   -0.70    0.47
   0  -5  -9    0.47    0.29
   0  -5  -9    0.04    0.25
   0  -5  -9    1.05    0.46
   0  -5  -9    0.56    0.43
   0   5   9    1.43    0.68
   0   5   9    0.57    0.62
   0   5   9    0.80    0.48
  -1  -5  -9   -0.21    0.42
  -1  -5  -9    0.01    0.08
  -1  -5  -9   -0.39    0.44
  -1  -5  -9    0.01    0.21
   1   5   9    0.18    0.49
   1   5   9    0.61    0.70
   1   5   9   -0.09    0.26
   1   5   9   -0.81    0.48
  -2  -5  -9    6.40    0.44
  -2  -5  -9    6.65    0.87
  -2  -5  -9    6.68    0.50
   2   5   9    6.79    0.85
   2   5   9    5.31    0.87
   2   5   9    5.79    0.68
   2   5   9    4.72    0.89
  -3  -5  -9    0.09    0.25
  -3  -5  -9   -0.65    0.44
   3   5   9    0.41    0.39
   3   5   9    0.03    0.38
  -4  -5  -9    4.42    0.55
  -4  -5  -9    4.23    0.50
   4   5   9    4.45    0.64
  -5  -5  -9    0.92    0.61
  -5  -5  -9   -0.22    0.50
  -5  -5  -9    0.10    0.31
  -5  -5  -9    1.10    0.47
   5   5   9    0.84    0.60
  -6  -5  -9    0.63    0.53
  -6  -5  -9   -0.09    0.63
  -6  -5  -9    0.00    0.39
  -6  -5  -9    0.49    0.70
   6   5   9    0.12    0.69
   6   5   9   -0.84    0.82
  -7  -5  -9    0.52    0.47
  -7  -5  -9    1.61    0.76
  -7  -5  -9    0.16    0.70
   7   5   9   -0.97    0.78
   7   5   9    1.08    1.03
  -8  -5  -9    0.11    0.75
  -8  -5  -9   -0.25    0.83
  -8  -5  -9    0.64    0.65
   8   5   9    1.54    0.91
   8   5   9    0.64    0.96
   8   5   9   -0.18    1.19
   4  -6  -9    3.15    0.92
   4  -6  -9    1.66    0.91
  -4   6   9    3.01    0.81
  -4   6   9    0.95    1.19
   3  -6  -9    9.50    1.24
   3  -6  -9   10.11    1.27
  -3   6   9   10.50    1.29
  -3   6   9    9.21    1.47
   2  -6  -9    1.76    0.56
   2  -6  -9    0.62    0.49
   2  -6  -9    0.24    0.64
  -2   6   9   -0.98    0.75
  -2   6   9   -0.15    0.59
   1  -6  -9   -0.06    0.40
   1  -6  -9    0.54    0.55
   1  -6  -9    0.13    0.45
   1  -6  -9    0.75    0.44
  -1   6   9    0.22    0.65
  -1   6   9    1.35    0.62
  -1   6   9    1.24    0.86
   0  -6  -9    2.92    0.59
   0  -6  -9    2.49    0.32
   0  -6  -9    2.73    0.41
   0  -6  -9    2.83    0.43
   0  -6  -9    2.31    0.62
   0   6   9    3.28    0.82
   0   6   9    2.49    0.68
  -1  -6  -9    0.26    0.27
  -1  -6  -9   -0.11    0.10
   1   6   9   -0.20    0.14
   1   6   9    0.51    0.56
   1   6   9   -0.27    0.74
   1   6   9    0.17    0.55
  -2  -6  -9    1.79    0.28
  -2  -6  -9    1.90    0.58
  -2  -6  -9    2.20    0.28
   2   6   9    2.20    0.53
   2   6   9    2.65    0.38
   2   6   9    2.09    0.91
   2   6   9    2.31    0.67
  -3  -6  -9    1.63    0.27
  -3  -6  -9    0.97    0.25
  -3  -6  -9    1.00    0.28
  -3  -6  -9   -0.15    0.50
   3   6   9    0.97    0.41
   3   6   9    1.54    0.44
   3   6   9    2.59    0.71
  -4  -6  -9    4.00    0.73
  -4  -6  -9    4.85    0.53
  -4  -6  -9    5.08    0.64
   4   6   9    4.65    0.71
   4   6   9    5.00    0.92
  -5  -6  -9    0.59    0.58
  -5  -6  -9    1.11    0.73
  -5  -6  -9    0.88    0.47
  -5  -6  -9    0.86    0.32
   5   6   9    0.88    0.60
   5   6   9    0.12    0.72
  -6  -6  -9    0.05    0.52
  -6  -6  -9    1.28    0.65
  -6  -6  -9   -0.23    0.32
   6   6   9   -0.91    0.65
   6   6   9   -0.74    0.80
  -7  -6  -9   -1.14    0.65
  -7  -6  -9    0.35    0.70
  -7  -6  -9    0.25    0.45
   7   6   9    0.26    0.86
   7   6   9   -0.34    0.95
  -8  -6  -9   -1.19    0.51
  -8  -6  -9   -0.60    0.79
  -8  -6  -9    0.30    0.84
   8   6   9    0.28    1.18
   8   6   9    0.30    0.92
   8   6   9    0.43    0.99
   3  -7  -9    2.92    0.87
   3  -7  -9    1.34    0.84
  -3   7   9    1.65    1.18
  -3   7   9    2.92    0.80
   2  -7  -9   -0.98    0.67
   2  -7  -9   -0.01    0.57
   2  -7  -9    1.07    0.64
  -2   7   9    1.23    0.67
  -2   7   9    0.80    0.92
   1  -7  -9    5.23    0.71
   1  -7  -9    3.67    0.64
   1  -7  -9    4.12    0.76
  -1   7   9    4.04    0.84
  -1   7   9    4.23    0.98
   0  -7  -9    0.07    0.54
   0  -7  -9    0.16    0.21
   0  -7  -9   -0.08    0.38
   0   7   9   -2.19    0.91
   0   7   9   -0.14    0.61
   0   7   9    0.63    0.71
  -1  -7  -9   -0.17    0.13
  -1  -7  -9    0.37    0.32
  -1  -7  -9    0.32    0.54
   1   7   9    0.06    0.64
   1   7   9   -0.10    0.60
  -2  -7  -9    3.30    0.32
  -2  -7  -9    4.91    0.83
  -2  -7  -9    2.57    0.37
   2   7   9    3.19    0.78
   2   7   9    3.30    0.35
   2   7   9    1.92    0.60
  -3  -7  -9    1.11    0.59
  -3  -7  -9    1.19    0.24
  -3  -7  -9    0.96    0.25
  -3  -7  -9    0.86    0.27
   3   7   9    1.59    0.73
   3   7   9    0.94    0.50
   3   7   9    1.87    0.41
  -4  -7  -9    1.41    0.32
  -4  -7  -9    2.15    0.39
  -4  -7  -9    1.30    0.59
   4   7   9    1.36    0.50
   4   7   9    1.56    0.73
  -5  -7  -9   -0.05    0.26
  -5  -7  -9   -0.95    0.55
   5   7   9   -0.47    0.79
   5   7   9    0.23    0.57
  -6  -7  -9    0.70    0.40
  -6  -7  -9    0.97    0.57
  -6  -7  -9    0.38    0.66
   6   7   9    1.46    0.89
   6   7   9    0.21    0.67
  -7  -7  -9    0.19    0.69
  -7  -7  -9   -0.06    0.47
  -7  -7  -9   -0.02    0.73
   7   7   9    1.74    0.86
   7   7   9   -0.05    1.02
  -8  -7  -9    1.78    0.84
  -8  -7  -9    1.80    0.62
  -8  -7  -9    1.49    0.87
   8   7   9   -0.42    1.11
   8   7   9    1.10    1.32
   8   7   9    2.26    1.00
   2  -8  -9    0.71    0.76
   2  -8  -9    2.66    0.75
  -2   8   9    1.44    0.92
  -2   8   9   -0.20    1.16
   1  -8  -9    2.03    0.60
   1  -8  -9    2.29    0.79
   1  -8  -9    1.53    0.61
  -1   8   9    0.58    0.98
  -1   8   9    0.97    0.77
   0  -8  -9    1.32    0.50
   0  -8  -9    0.96    0.31
   0   8   9    0.90    0.74
   0   8   9    1.62    0.84
  -1  -8  -9    0.53    0.21
  -1  -8  -9    0.29    0.39
  -1  -8  -9    0.69    0.66
   1   8   9   -0.40    0.71
   1   8   9    0.59    0.71
  -2  -8  -9    2.22    0.69
  -2  -8  -9    1.92    0.37
  -2  -8  -9    1.74    0.23
   2   8   9    2.28    0.72
   2   8   9    3.04    0.85
  -3  -8  -9   -0.02    0.61
  -3  -8  -9    0.13    0.28
  -3  -8  -9    0.10    0.22
   3   8   9    0.01    0.32
   3   8   9    0.56    0.75
  -4  -8  -9    1.82    0.33
  -4  -8  -9    1.69    0.37
  -4  -8  -9    1.56    0.34
  -4  -8  -9    2.43    0.72
   4   8   9    3.38    0.92
   4   8   9    1.79    0.50
  -5  -8  -9    1.23    0.35
  -5  -8  -9    2.40    0.46
  -5  -8  -9    2.51    0.78
   5   8   9    2.68    0.96
   5   8   9    1.36    0.64
  -6  -8  -9    0.96    0.70
  -6  -8  -9    0.04    0.52
  -6  -8  -9    0.76    0.36
   6   8   9   -0.54    1.00
   6   8   9    0.74    0.77
  -7  -8  -9   -0.88    0.76
  -7  -8  -9    0.23    0.64
  -7  -8  -9   -0.66    0.41
   7   8   9    0.61    1.02
   7   8   9   -0.38    0.90
   7   8   9    0.26    1.13
   1  -9  -9    1.15    0.66
   1  -9  -9    0.51    0.80
   1  -9  -9   -0.19    0.89
  -1   9   9    0.69    1.03
  -1   9   9   -0.46    1.10
   0  -9  -9    2.63    0.95
   0  -9  -9    3.28    0.73
   0   9   9    3.43    1.04
   0   9   9    3.92    1.01
  -1  -9  -9    0.21    0.71
  -1  -9  -9    0.88    0.50
  -1  -9  -9    0.72    0.29
   1   9   9    2.21    0.84
   1   9   9    0.67    0.93
  -2  -9  -9    1.22    0.77
  -2  -9  -9    0.63    0.42
  -2  -9  -9    0.89    0.25
   2   9   9    2.06    0.89
   2   9   9    0.04    0.80
  -3  -9  -9   -0.12    0.35
  -3  -9  -9   -1.49    0.69
   3   9   9    0.54    0.89
   3   9   9   -0.17    0.73
  -4  -9  -9    0.25    0.32
  -4  -9  -9    0.06    0.30
  -4  -9  -9    0.86    0.34
  -4  -9  -9    0.29    0.76
   4   9   9    0.20    0.87
  -5  -9  -9    0.43    0.42
  -5  -9  -9    2.16    0.78
   5   9   9    1.30    0.62
   5   9   9    3.00    1.08
  -6  -9  -9    0.80    0.83
  -6  -9  -9    1.06    0.54
   6   9   9    0.73    1.07
   6   9   9    1.32    0.74
  -1 -10  -9   -1.28    0.88
  -1 -10  -9    0.66    0.65
   1  10   9    0.09    1.00
   1  10   9   -1.76    1.06
  -2 -10  -9    4.21    1.01
  -2 -10  -9    4.91    0.59
  -2 -10  -9    5.74    0.73
   2  10   9    4.53    1.15
   2  10   9    5.90    1.15
  -3 -10  -9    0.07    0.44
  -3 -10  -9    0.93    0.90
  -3 -10  -9    0.04    0.27
   3  10   9    2.77    1.09
   3  10   9    0.49    0.96
  -4 -10  -9   -1.30    0.82
  -4 -10  -9    0.33    0.33
  -4 -10  -9    0.77    0.43
   4  10   9   -0.55    1.10
   4  10   9    0.74    0.89
  -5 -10  -9    6.76    1.15
  -5 -10  -9    7.09    0.74
  -5 -10  -9    6.11    0.79
  -5 -10  -9    6.23    0.75
   5  10   9    7.45    1.37
   2   6 -10    0.64    1.02
  -2  -6  10   -0.65    0.79
  -2  -6  10    0.09    0.90
   1   6 -10   -0.29    1.08
  -1  -6  10    0.94    0.81
  -1  -6  10    2.99    1.04
   0   6 -10    1.36    1.09
   0  -6  10    2.18    1.05
   0  -6  10    0.85    0.81
  -1   6 -10   -0.81    1.16
   1  -6  10    2.31    1.23
   1  -6  10    0.69    0.85
   4   5 -10   -0.58    0.75
   4   5 -10    0.25    1.10
  -4  -5  10    0.54    0.72
  -4  -5  10    0.44    0.71
   3   5 -10    2.12    1.03
   3   5 -10    1.14    0.63
  -3  -5  10    1.23    0.78
  -3  -5  10    2.90    0.82
   2   5 -10    6.45    1.24
  -2  -5  10    8.18    1.14
   1   5 -10    0.74    0.46
   1   5 -10   -0.24    0.91
  -1  -5  10    1.28    0.91
  -1  -5  10    1.36    0.75
   0   5 -10    0.28    0.38
   0   5 -10   -0.47    0.86
   0   5 -10   -0.38    0.88
   0  -5  10    0.52    0.88
   0  -5  10    0.56    0.64
  -1   5 -10    0.38    0.96
  -1   5 -10    0.24    0.91
   1  -5  10   -0.55    0.91
   1  -5  10    0.67    0.69
  -2   5 -10   -0.48    0.95
  -2   5 -10    0.64    0.31
  -2   5 -10   -0.16    0.92
   2  -5  10   -0.82    1.02
   2  -5  10    1.91    0.81
  -3   5 -10    1.45    1.11
  -3   5 -10   -0.58    1.17
   3  -5  10   -0.80    1.17
   3  -5  10    0.29    0.90
   4   4 -10    0.70    0.93
   4   4 -10    1.60    0.69
  -4  -4  10    2.01    0.63
  -4  -4  10   -0.08    0.72
   3   4 -10    0.43    0.88
   3   4 -10   -0.01    0.53
  -3  -4  10   -0.68    0.65
  -3  -4  10    0.01    0.67
   2   4 -10    4.73    0.63
   2   4 -10    2.81    0.98
  -2  -4  10    3.26    0.81
  -2  -4  10    3.90    0.83
   1   4 -10    1.14    0.78
   1   4 -10    1.81    0.70
  -1  -4  10    1.07    0.77
  -1  -4  10    0.73    0.65
   0   4 -10    0.28    0.70
   0   4 -10    1.39    0.84
   0  -4  10    2.20    0.85
   0  -4  10    0.90    0.65
  -1   4 -10    1.36    0.80
  -1   4 -10    2.17    0.78
  -1   4 -10    0.78    0.30
   1  -4  10    0.52    0.88
   1  -4  10    0.14    0.58
  -2   4 -10   -0.08    0.83
  -2   4 -10    0.39    0.28
  -2   4 -10   -0.16    0.80
   2  -4  10    2.07    0.99
   2  -4  10   -0.98    0.68
  -3   4 -10   -0.98    0.91
  -3   4 -10   -1.33    0.93
   3  -4  10   -0.67    1.00
   3  -4  10    0.79    0.77
  -4   4 -10    0.84    1.07
  -4   4 -10    2.08    1.17
   4  -4  10    0.90    0.93
   4  -4  10   -1.00    1.23
   5   3 -10   -0.62    0.78
  -5  -3  10   -1.54    0.69
   4   3 -10    1.46    0.64
   4   3 -10    1.05    0.89
  -4  -3  10    1.74    0.53
  -4  -3  10    0.52    0.66
   3   3 -10   -0.22    0.48
   3   3 -10    0.27    0.79
  -3  -3  10    0.79    0.60
  -3  -3  10    0.66    0.57
   2   3 -10    4.94    0.92
   2   3 -10    3.15    0.54
  -2  -3  10    3.64    0.70
  -2  -3  10    3.22    0.73
   1   3 -10    3.43    0.70
   1   3 -10    3.56    0.51
   1   3 -10    2.02    0.75
  -1  -3  10    2.54    0.66
  -1  -3  10    3.50    0.77
   0   3 -10    0.44    0.62
   0   3 -10    0.66    0.60
   0  -3  10    0.76    0.72
   0  -3  10    0.73    0.56
   0  -3  10    0.00    0.81
  -1   3 -10    2.53    0.82
  -1   3 -10    2.09    0.70
  -1   3 -10    3.58    0.45
  -1   3 -10    2.52    0.36
   1  -3  10    4.24    0.78
   1  -3  10    1.22    0.81
   1  -3  10    3.41    1.00
  -2   3 -10    3.70    0.33
  -2   3 -10    3.03    0.81
  -2   3 -10    3.69    0.88
  -2   3 -10    3.87    0.41
   2  -3  10    2.70    0.95
   2  -3  10    5.05    0.88
   2  -3  10    2.95    1.06
  -3   3 -10    0.24    0.77
  -3   3 -10   -0.39    0.79
  -3   3 -10    0.33    0.27
   3  -3  10    0.71    0.97
   3  -3  10   -0.44    0.66
  -4   3 -10    0.33    0.43
  -4   3 -10    0.65    0.93
  -4   3 -10    0.35    0.93
   4  -3  10    1.29    1.06
   4  -3  10    0.22    0.76
  -5   3 -10   -0.27    1.08
  -5   3 -10    0.10    0.57
  -5   3 -10    0.51    1.10
   5  -3  10   -2.02    1.27
   5  -3  10   -0.74    0.95
   5   2 -10    0.05    0.79
  -5  -2  10    0.67    0.67
   4   2 -10    0.46    0.60
   4   2 -10   -0.19    0.84
  -4  -2  10   -0.11    0.55
  -4  -2  10    0.58    0.47
   3   2 -10    1.49    0.52
   3   2 -10    1.19    0.74
  -3  -2  10    0.88    0.54
  -3  -2  10    1.74    0.57
   2   2 -10    0.57    0.42
   2   2 -10    1.60    0.53
   2   2 -10    0.53    0.60
  -2  -2  10    1.35    0.60
  -2  -2  10    1.30    0.50
   1   2 -10    7.55    0.68
   1   2 -10    6.85    0.83
   1   2 -10    7.82    1.05
   1   2 -10    6.51    0.51
  -1  -2  10    7.08    0.94
  -1  -2  10    7.81    0.96
  -1  -2  10    6.75    0.95
  -1  -2  10    6.86    0.73
   0   2 -10   -0.10    0.56
   0   2 -10   -0.11    0.52
   0   2 -10    0.50    0.27
   0  -2  10    1.47    0.76
   0  -2  10   -0.68    0.57
   0  -2  10    0.10    0.42
   0  -2  10    0.70    0.50
  -1   2 -10    2.62    0.66
  -1   2 -10    5.33    0.79
  -1   2 -10    2.59    0.35
   1  -2  10    3.94    0.75
   1  -2  10    3.80    0.81
   1  -2  10    4.02    0.94
  -2   2 -10    5.28    0.42
  -2   2 -10    3.88    0.36
  -2   2 -10    5.68    0.86
  -2   2 -10    6.95    0.96
   2  -2  10    4.32    0.93
   2  -2  10    3.96    0.75
   2  -2  10    6.80    1.13
  -3   2 -10    0.63    0.25
  -3   2 -10    1.21    0.66
   3  -2  10    0.69    0.63
   3  -2  10   -0.13    0.78
  -4   2 -10   -0.13    0.78
  -4   2 -10    1.53    0.41
  -4   2 -10    2.01    0.77
   4  -2  10   -0.65    0.92
   4  -2  10    1.43    0.81
  -5   2 -10   -0.23    0.52
  -5   2 -10   -0.46    0.91
  -5   2 -10    2.35    0.91
   5  -2  10   -0.16    1.11
   5  -2  10   -0.39    0.89
  -6   2 -10    1.15    1.12
  -6   2 -10    1.01    0.69
  -6   2 -10    0.44    1.07
   6  -2  10    0.85    1.40
   5   1 -10   -0.58    0.75
  -5  -1  10    0.37    1.08
  -5  -1  10    0.78    0.69
   4   1 -10    1.48    0.63
  -4  -1  10    1.13    0.46
  -4  -1  10    1.27    0.58
   3   1 -10   -1.17    0.64
   3   1 -10    0.05    0.44
  -3  -1  10    0.57    0.49
  -3  -1  10    1.06    0.51
  -3  -1  10    0.48    0.73
   2   1 -10    0.55    0.63
   2   1 -10    0.35    0.37
   2   1 -10    0.12    0.48
  -2  -1  10    1.03    0.43
  -2  -1  10    0.89    0.62
  -2  -1  10    1.38    0.50
  -2  -1  10    1.39    0.57
   1   1 -10    0.94    0.32
   1   1 -10    0.02    0.51
   1   1 -10    0.18    0.48
  -1  -1  10    1.06    0.55
  -1  -1  10    0.66    0.59
  -1  -1  10   -0.33    0.50
   0   1 -10    1.69    0.21
   0   1 -10    1.37    0.30
   0   1 -10    2.33    0.63
   0   1 -10    1.27    0.54
   0  -1  10    1.06    0.62
   0  -1  10    2.13    0.69
   0  -1  10    2.06    0.50
   0  -1  10    1.64    0.54
  -1   1 -10   -0.04    0.21
  -1   1 -10    0.97    0.54
  -1   1 -10    1.11    0.54
  -1   1 -10    0.34    0.15
   1  -1  10    1.08    0.69
   1  -1  10    0.78    0.56
   1  -1  10    0.17    0.52
   1  -1  10   -0.43    0.73
  -2   1 -10   -0.18    0.16
  -2   1 -10    0.12    0.53
  -2   1 -10   -0.21    0.15
   2  -1  10    0.46    0.63
   2  -1  10   -0.55    0.79
   2  -1  10   -0.94    0.66
   2  -1  10    1.07    0.54
  -3   1 -10    1.19    0.29
  -3   1 -10    1.27    0.28
  -3   1 -10    2.85    0.72
   3  -1  10    2.69    0.85
   3  -1  10    1.50    0.64
   3  -1  10    1.38    0.75
  -4   1 -10    0.06    0.33
  -4   1 -10   -1.09    0.68
   4  -1  10    1.48    0.74
   4  -1  10   -1.46    1.00
   4  -1  10   -0.35    0.82
  -5   1 -10   -0.01    0.48
  -5   1 -10   -2.04    0.77
  -5   1 -10    1.56    0.76
   5  -1  10   -0.12    0.83
   5  -1  10    3.06    1.10
  -6   1 -10    0.33    0.93
  -6   1 -10    2.05    0.87
  -6   1 -10    2.12    0.63
   6  -1  10    1.78    1.08
   6  -1  10    0.23    1.28
   5   0 -10    0.96    0.74
  -5   0  10    0.79    0.41
  -5   0  10    0.38    1.05
   4   0 -10    1.49    0.66
  -4   0  10    1.06    0.46
   3   0 -10    0.09    0.48
  -3   0  10    1.22    0.52
  -3   0  10    1.22    0.65
   2   0 -10    3.16    0.74
   2   0 -10    2.79    0.51
  -2   0  10    4.27    0.66
  -2   0  10    3.45    0.57
  -2   0  10    3.15    0.70
   1   0 -10   10.01    1.09
   1   0 -10    9.53    0.75
   1   0 -10    9.08    0.95
  -1   0  10    9.59    1.13
  -1   0  10    8.79    1.01
  -1   0  10    9.75    1.03
  -1   0  10    8.63    0.93
   0   0 -10    4.70    0.71
   0   0 -10    5.59    0.53
   0   0  10    5.20    0.66
   0   0  10    4.65    0.75
   0   0  10    5.72    0.88
   0   0  10    5.82    0.81
  -1   0 -10    0.59    0.50
  -1   0 -10    0.96    0.26
  -1   0 -10    0.46    0.11
  -1   0 -10    1.66    0.52
   1   0  10    0.05    0.47
   1   0  10    0.66    0.68
   1   0  10    0.03    0.53
   1   0  10   -0.73    0.56
  -2   0 -10    1.11    0.56
  -2   0 -10    0.68    0.17
  -2   0 -10    1.42    0.54
  -2   0 -10    1.11    0.19
   2   0  10    1.26    0.78
   2   0  10    1.03    0.53
   2   0  10    1.22    0.65
   2   0  10    0.43    0.64
  -3   0 -10    0.35    0.27
  -3   0 -10    0.17    0.22
  -3   0 -10    0.14    0.49
  -3   0 -10    0.72    0.58
   3   0  10   -0.39    0.65
   3   0  10    0.51    0.61
   3   0  10    1.16    0.86
   3   0  10    1.26    0.77
  -4   0 -10   -0.64    0.40
  -4   0 -10    0.03    0.63
  -4   0 -10   -0.39    0.53
  -4   0 -10   -0.08    0.30
   4   0  10    1.54    0.97
   4   0  10   -0.26    0.65
   4   0  10   -1.14    0.73
  -5   0 -10    2.66    0.68
  -5   0 -10    1.52    0.78
  -5   0 -10    1.61    0.46
   5   0  10    2.90    0.85
   5   0  10    1.02    0.92
  -6   0 -10    1.94    0.89
  -6   0 -10    0.49    0.72
  -6   0 -10    1.05    0.58
   6   0  10   -0.26    1.08
   6   0  10    1.19    0.89
   6   0  10   -0.49    0.86
  -7   0 -10   -0.22    0.72
  -7   0 -10    1.03    1.07
   7   0  10    0.31    1.11
   7   0  10    2.64    1.37
   7   0  10   -0.72    1.10
   5  -1 -10    1.19    0.83
  -5   1  10    1.65    1.10
  -5   1  10    1.38    0.48
   4  -1 -10    0.51    0.65
  -4   1  10    1.52    0.49
  -4   1  10    1.12    0.62
   3  -1 -10    0.92    0.53
  -3   1  10    1.50    0.56
  -3   1  10    1.25    0.49
  -3   1  10    1.21    0.53
   2  -1 -10    0.48    0.38
   2  -1 -10    1.05    0.51
  -2   1  10    0.70    0.48
  -2   1  10    0.78    0.50
  -2   1  10    1.33    0.47
  -2   1  10    1.43    0.63
  -2   1  10    0.65    0.50
   1  -1 -10    1.51    0.36
   1  -1 -10    2.12    0.49
   1  -1 -10    3.23    0.67
  -1   1  10    2.40    0.65
  -1   1  10    1.20    0.53
  -1   1  10    1.49    0.52
  -1   1  10    1.88    0.57
   0  -1 -10    0.31    0.44
   0  -1 -10    0.65    0.51
   0  -1 -10    1.00    0.28
   0   1  10    0.61    0.50
   0   1  10    0.87    0.54
   0   1  10   -0.07    0.61
  -1  -1 -10    3.16    0.61
  -1  -1 -10    2.41    0.33
  -1  -1 -10    2.38    0.18
  -1  -1 -10    2.77    0.64
   1   1  10    2.81    0.58
   1   1  10    3.04    0.77
   1   1  10    1.75    0.64
   1   1  10    3.51    0.64
  -2  -1 -10    0.37    0.46
  -2  -1 -10    0.60    0.18
  -2  -1 -10    0.62    0.52
  -2  -1 -10    0.56    0.20
   2   1  10    0.80    0.52
   2   1  10   -0.59    0.55
   2   1  10    1.02    0.61
   2   1  10    1.35    0.72
  -3  -1 -10    2.39    0.56
  -3  -1 -10    1.35    0.27
  -3  -1 -10    1.66    0.33
  -3  -1 -10    1.61    0.59
   3   1  10    0.91    0.80
   3   1  10   -0.04    0.84
   3   1  10    2.97    0.78
   3   1  10    1.30    0.58
  -4  -1 -10    3.25    0.47
  -4  -1 -10    3.79    0.56
  -4  -1 -10    4.71    0.67
  -4  -1 -10    2.13    0.74
   4   1  10    3.09    0.90
   4   1  10    3.81    0.78
  -5  -1 -10    0.20    0.40
  -5  -1 -10    1.52    0.76
  -5  -1 -10    0.14    0.53
   5   1  10    1.00    0.89
   5   1  10    1.10    0.71
  -6  -1 -10    0.62    0.54
  -6  -1 -10    0.31    0.58
  -6  -1 -10   -0.10    0.78
   6   1  10    2.33    1.08
   6   1  10    0.48    0.93
   6   1  10   -0.42    0.90
  -7  -1 -10    1.02    0.67
  -7  -1 -10    3.61    1.09
   7   1  10    0.96    1.33
   7   1  10    1.40    1.09
   5  -2 -10    1.43    0.89
   5  -2 -10    0.88    0.86
  -5   2  10    0.14    1.05
  -5   2  10   -0.04    0.51
   4  -2 -10   -0.51    0.60
   4  -2 -10   -0.14    0.64
  -4   2  10    0.90    0.96
  -4   2  10   -0.74    0.48
  -4   2  10    0.03    0.63
   3  -2 -10    1.20    0.54
   3  -2 -10    0.55    0.49
   3  -2 -10    0.87    0.63
  -3   2  10    1.44    0.51
  -3   2  10    1.19    0.63
   2  -2 -10    0.12    0.46
   2  -2 -10   -0.15    0.36
   2  -2 -10    0.18    0.39
  -2   2  10   -0.57    0.61
  -2   2  10    0.34    0.50
  -2   2  10    0.89    0.52
  -2   2  10    0.49    0.42
  -2   2  10   -0.18    0.48
   1  -2 -10    1.19    0.47
   1  -2 -10    0.79    0.30
   1  -2 -10    1.13    0.37
  -1   2  10    0.72    0.54
  -1   2  10    1.97    0.57
  -1   2  10    1.24    0.53
   0  -2 -10    3.15    0.59
   0  -2 -10    2.99    0.41
   0   2  10    3.69    0.76
   0   2  10    3.24    0.66
   0   2  10    2.33    0.67
   0   2  10    4.69    0.67
  -1  -2 -10    3.77    0.67
  -1  -2 -10    3.77    0.44
  -1  -2 -10    4.18    0.66
   1   2  10    5.09    0.76
   1   2  10    3.67    0.75
   1   2  10    4.46    0.83
   1   2  10    4.58    0.74
   1   2  10    3.38    0.75
  -2  -2 -10    4.51    0.43
  -2  -2 -10    5.70    0.57
  -2  -2 -10    7.13    0.85
  -2  -2 -10    5.70    0.46
  -2  -2 -10    7.55    0.88
  -2  -2 -10    6.21    0.45
   2   2  10    5.07    0.87
   2   2  10    6.60    0.91
   2   2  10    7.38    0.98
   2   2  10    5.78    0.88
  -3  -2 -10    6.38    0.91
  -3  -2 -10    6.36    0.56
  -3  -2 -10    6.49    0.76
  -3  -2 -10    7.30    0.65
   3   2  10    6.70    1.11
   3   2  10    5.98    1.01
   3   2  10    7.78    1.09
   3   2  10    6.56    0.98
  -4  -2 -10    5.20    0.65
  -4  -2 -10    4.48    0.64
  -4  -2 -10    5.45    0.38
   4   2  10    4.96    0.86
   4   2  10    3.12    0.84
  -5  -2 -10   -1.06    0.62
  -5  -2 -10    0.84    0.45
  -5  -2 -10    0.10    0.34
   5   2  10   -1.07    0.79
   5   2  10    0.65    0.71
   5   2  10   -0.34    0.66
  -6  -2 -10    1.45    0.77
  -6  -2 -10   -0.25    0.48
  -6  -2 -10    0.06    0.47
   6   2  10    0.52    0.85
   6   2  10    1.62    0.81
   6   2  10   -1.73    0.94
  -7  -2 -10    2.16    0.95
  -7  -2 -10    0.31    0.63
   7   2  10    1.49    1.05
   7   2  10    2.55    1.20
   4  -3 -10    2.86    0.76
  -4   3  10    2.92    1.08
  -4   3  10    2.48    0.62
   3  -3 -10   -0.35    0.55
   3  -3 -10    0.52    0.58
  -3   3  10   -0.05    0.81
  -3   3  10    0.53    0.54
  -3   3  10    0.99    0.61
   2  -3 -10   -0.01    0.52
   2  -3 -10   -1.24    0.47
   2  -3 -10    0.38    0.42
   2  -3 -10   -0.08    0.40
  -2   3  10    0.61    0.51
  -2   3  10   -0.36    0.53
   1  -3 -10   -0.08    0.32
   1  -3 -10    0.50    0.47
   1  -3 -10    0.19    0.36
  -1   3  10    0.11    0.28
  -1   3  10   -0.64    0.70
  -1   3  10    0.10    0.51
  -1   3  10   -0.27    0.50
   0  -3 -10    1.54    0.30
   0  -3 -10    0.68    0.47
   0  -3 -10    1.51    0.34
   0   3  10    1.17    0.53
   0   3  10    2.10    0.60
   0   3  10    0.42    0.68
   0   3  10    0.94    0.57
  -1  -3 -10    1.27    0.24
  -1  -3 -10    1.14    0.26
  -1  -3 -10    1.47    0.51
   1   3  10    0.97    0.55
   1   3  10    0.70    0.65
   1   3  10   -0.13    0.70
   1   3  10   -0.27    0.62
  -2  -3 -10   17.73    0.95
  -2  -3 -10   16.90    0.87
  -2  -3 -10   17.88    0.95
  -2  -3 -10   17.29    1.36
  -2  -3 -10   17.94    0.97
  -2  -3 -10   16.70    0.96
  -2  -3 -10   17.89    0.92
   2   3  10   17.09    1.43
   2   3  10   14.69    1.59
   2   3  10   17.82    1.41
   2   3  10   14.33    1.49
   2   3  10   17.83    1.49
  -3  -3 -10    1.69    0.33
  -3  -3 -10    1.76    0.63
  -3  -3 -10    1.00    0.38
  -3  -3 -10    1.16    0.26
   3   3  10    1.27    0.65
   3   3  10    1.75    0.56
   3   3  10    1.34    0.86
   3   3  10    1.19    0.58
  -4  -3 -10    4.10    0.58
  -4  -3 -10    4.03    0.50
  -4  -3 -10    4.93    0.50
  -4  -3 -10    4.28    0.63
  -4  -3 -10    5.50    0.84
   4   3  10    5.38    0.85
   4   3  10    3.87    0.89
   4   3  10    5.42    0.99
  -5  -3 -10    3.34    0.50
  -5  -3 -10    2.12    0.45
  -5  -3 -10    2.74    0.73
   5   3  10    3.51    0.79
   5   3  10    3.69    0.99
  -6  -3 -10   -0.04    0.39
  -6  -3 -10   -0.06    0.47
  -6  -3 -10   -0.40    0.70
   6   3  10   -0.33    0.94
   6   3  10    0.37    0.78
  -7  -3 -10    0.60    0.57
  -7  -3 -10   -1.25    0.79
   7   3  10    0.76    1.16
   7   3  10   -1.01    0.97
   4  -4 -10    3.80    0.89
   4  -4 -10    3.95    0.88
  -4   4  10    4.97    1.23
  -4   4  10    3.28    0.77
   3  -4 -10    0.95    0.62
   3  -4 -10    1.32    0.65
  -3   4  10    0.72    0.95
  -3   4  10   -0.08    0.59
   2  -4 -10   -1.46    0.51
   2  -4 -10   -0.73    0.45
   2  -4 -10   -0.21    0.47
   2  -4 -10   -0.08    0.54
  -2   4  10    0.07    0.57
   1  -4 -10   -0.10    0.37
   1  -4 -10    0.79    0.51
  -1   4  10    1.63    0.80
  -1   4  10    1.31    0.61
  -1   4  10   -0.68    0.54
   0  -4 -10   -0.71    0.46
   0  -4 -10   -0.11    0.27
   0  -4 -10    0.00    0.30
   0   4  10   -0.11    0.52
   0   4  10   -0.13    0.32
   0   4  10    0.93    0.57
   0   4  10   -0.20    0.73
  -1  -4 -10   -0.26    0.45
  -1  -4 -10   -0.09    0.22
  -1  -4 -10   -0.13    0.22
   1   4  10    0.67    0.39
   1   4  10   -0.15    0.71
   1   4  10    0.97    0.58
   1   4  10   -1.10    0.63
  -2  -4 -10    0.45    0.51
  -2  -4 -10    0.24    0.23
  -2  -4 -10    0.07    0.16
   2   4  10    0.96    0.59
   2   4  10    0.44    0.42
   2   4  10    0.43    0.79
   2   4  10   -0.10    0.59
   2   4  10    0.13    0.54
  -3  -4 -10    5.15    0.61
  -3  -4 -10    5.01    0.77
  -3  -4 -10    5.07    0.46
   3   4  10    5.08    0.73
   3   4  10    5.38    0.91
  -4  -4 -10    7.60    0.87
  -4  -4 -10    8.28    0.85
  -4  -4 -10    8.33    0.66
  -4  -4 -10    7.59    0.99
   4   4  10    6.16    1.01
   4   4  10    6.85    0.92
  -5  -4 -10    1.55    0.56
  -5  -4 -10    1.57    0.41
  -5  -4 -10    2.18    0.70
   5   4  10    1.19    0.84
   5   4  10    3.36    0.83
  -6  -4 -10    2.32    0.71
  -6  -4 -10    1.77    0.46
  -6  -4 -10    1.58    0.76
   6   4  10    2.12    0.95
   6   4  10    3.16    0.93
  -7  -4 -10    0.10    0.81
  -7  -4 -10   -0.41    0.52
  -7  -4 -10   -0.11    0.76
   7   4  10   -0.65    1.14
   7   4  10   -0.83    1.01
   3  -5 -10    2.65    0.77
   3  -5 -10    0.59    0.70
  -3   5  10    1.86    0.70
  -3   5  10    2.15    0.96
   2  -5 -10    0.69    0.60
   2  -5 -10    0.90    0.54
   2  -5 -10    0.11    0.55
  -2   5  10    0.44    0.67
  -2   5  10   -0.58    0.81
   1  -5 -10    0.82    0.58
   1  -5 -10    0.72    0.45
   1  -5 -10    0.52    0.43
  -1   5  10   -0.16    0.61
   0  -5 -10    0.41    0.33
   0  -5 -10    1.03    0.54
   0  -5 -10    0.26    0.33
   0   5  10    0.64    0.91
   0   5  10    0.75    0.62
  -1  -5 -10    2.01    0.35
  -1  -5 -10    2.31    0.61
  -1  -5 -10    1.81    0.33
  -1  -5 -10    1.85    0.15
   1   5  10    2.42    0.40
   1   5  10    0.58    0.68
   1   5  10    2.27    0.99
   1   5  10    2.54    0.68
  -2  -5 -10   -0.16    0.50
  -2  -5 -10    0.14    0.14
  -2  -5 -10    0.18    0.23
   2   5  10    0.82    0.89
   2   5  10   -0.37    0.65
   2   5  10   -0.07    0.42
   2   5  10    0.71    0.57
  -3  -5 -10    0.81    0.26
  -3  -5 -10    1.48    0.26
  -3  -5 -10    1.11    0.30
   3   5  10    0.69    0.53
   3   5  10    0.68    0.56
   3   5  10    1.91    0.72
  -4  -5 -10   -0.48    0.37
  -4  -5 -10   -0.19    0.57
  -4  -5 -10    0.10    0.25
  -4  -5 -10   -0.04    0.58
   4   5  10    0.68    0.59
   4   5  10    1.06    0.73
  -5  -5 -10    0.49    0.62
  -5  -5 -10   -0.07    0.49
  -5  -5 -10    0.51    0.33
   5   5  10    0.10    0.84
   5   5  10    0.05    0.69
  -6  -5 -10    2.86    0.68
  -6  -5 -10    3.40    0.56
  -6  -5 -10    4.17    0.84
   6   5  10    4.41    0.96
   6   5  10    0.79    1.07
  -7  -5 -10   -0.05    0.71
  -7  -5 -10    0.83    0.80
  -7  -5 -10    0.18    0.54
   7   5  10    0.49    1.16
   7   5  10    0.65    1.02
   3  -6 -10   10.75    1.22
   3  -6 -10   10.52    1.18
  -3   6  10    7.77    1.11
  -3   6  10    9.74    1.48
   2  -6 -10    0.83    0.62
   2  -6 -10   -0.14    0.58
  -2   6  10   -1.04    0.98
  -2   6  10    1.46    0.72
   1  -6 -10    1.03    0.53
   1  -6 -10    0.37    0.50
   1  -6 -10    0.80    0.68
  -1   6  10    1.42    0.82
  -1   6  10   -0.13    0.65
   0  -6 -10   -0.43    0.39
   0  -6 -10   -0.16    0.37
   0  -6 -10    0.07    0.61
   0   6  10   -0.90    1.00
   0   6  10    0.18    0.65
  -1  -6 -10   -0.07    0.59
  -1  -6 -10    0.24    0.32
  -1  -6 -10    0.04    0.13
   1   6  10   -0.81    0.65
   1   6  10    1.70    1.01
  -2  -6 -10    0.22    0.14
  -2  -6 -10    0.21    0.26
  -2  -6 -10   -1.53    0.52
   2   6  10   -0.19    0.37
   2   6  10   -0.86    0.64
   2   6  10   -0.32    0.65
  -3  -6 -10    0.79    0.65
  -3  -6 -10    0.90    0.29
  -3  -6 -10    0.48    0.24
  -3  -6 -10    0.50    0.23
   3   6  10    0.95    0.76
   3   6  10    0.37    0.48
  -4  -6 -10    0.12    0.26
  -4  -6 -10    0.47    0.36
  -4  -6 -10    0.33    0.65
   4   6  10    0.65    0.80
   4   6  10   -0.04    0.53
  -5  -6 -10   -0.21    0.65
  -5  -6 -10    0.00    0.29
   5   6  10   -1.47    0.83
  -6  -6 -10    0.86    0.43
  -6  -6 -10    1.83    0.66
  -6  -6 -10    0.40    0.75
   6   6  10    1.45    1.04
   6   6  10    1.91    0.85
  -7  -6 -10   -0.88    0.75
  -7  -6 -10    0.74    0.50
  -7  -6 -10    0.09    0.79
   7   6  10    0.47    1.22
   7   6  10   -0.09    1.04
   2  -7 -10    5.11    0.87
   2  -7 -10    5.24    0.85
  -2   7  10    4.43    0.93
  -2   7  10    5.37    1.31
   1  -7 -10   -0.99    0.76
   1  -7 -10    0.38    0.55
   1  -7 -10    1.11    0.59
  -1   7  10   -0.59    0.79
  -1   7  10    1.51    0.99
   0  -7 -10    0.03    0.50
   0  -7 -10    0.44    0.43
   0  -7 -10   -0.09    0.68
   0   7  10    0.69    0.75
   0   7  10    0.56    0.82
  -1  -7 -10   -0.76    0.37
   1   7  10   -1.82    0.66
  -2  -7 -10    0.77    0.37
  -2  -7 -10    1.77    0.66
  -2  -7 -10    1.07    0.19
   2   7  10    0.88    0.72
  -3  -7 -10    0.38    0.29
  -3  -7 -10    0.57    0.68
  -3  -7 -10    0.30    0.23
   3   7  10   -0.18    0.77
   3   7  10    0.35    0.45
  -4  -7 -10    0.39    0.29
  -4  -7 -10   -1.32    0.67
  -4  -7 -10   -0.42    0.32
  -4  -7 -10    0.40    0.29
   4   7  10    0.22    0.88
   4   7  10    0.76    0.56
  -5  -7 -10    0.01    0.72
  -5  -7 -10    0.06    0.45
  -5  -7 -10   -0.54    0.33
   5   7  10    0.09    0.96
   5   7  10   -0.10    0.68
  -6  -7 -10    1.13    0.81
  -6  -7 -10    0.97    0.60
  -6  -7 -10    1.04    0.42
   6   7  10    0.98    1.11
   6   7  10    0.01    0.82
  -7  -7 -10   -0.73    0.51
  -7  -7 -10    0.43    0.87
  -7  -7 -10   -0.72    0.76
   7   7  10   -1.46    0.98
   7   7  10   -0.47    1.31
   1  -8 -10    0.56    0.68
   1  -8 -10    2.80    0.80
  -1   8  10    0.18    0.90
  -1   8  10    1.35    1.23
   0  -8 -10    2.09    0.83
   0  -8 -10    1.11    0.55
   0  -8 -10    0.78    0.59
   0   8  10    1.41    0.90
   0   8  10    0.64    1.01
  -1  -8 -10   -0.45    0.70
  -1  -8 -10    0.34    0.47
   1   8  10    0.59    0.91
   1   8  10   -1.27    0.80
  -2  -8 -10    8.77    1.10
  -2  -8 -10    8.65    0.81
  -2  -8 -10    7.62    0.55
   2   8  10   12.10    1.53
   2   8  10    9.63    1.25
  -3  -8 -10    0.99    0.36
  -3  -8 -10   -0.12    0.74
  -3  -8 -10    1.38    0.27
   3   8  10    1.01    0.91
  -4  -8 -10    1.70    0.39
  -4  -8 -10    1.37    0.32
  -4  -8 -10    1.26    0.80
   4   8  10    2.15    0.58
   4   8  10    1.87    0.93
  -5  -8 -10   -0.31    0.82
  -5  -8 -10    0.91    0.35
  -5  -8 -10   -0.26    0.43
  -5  -8 -10    1.10    0.39
   5   8  10    1.45    0.72
   5   8  10   -0.66    1.03
  -6  -8 -10    0.39    0.58
  -6  -8 -10   -0.44    0.39
  -6  -8 -10   -0.96    0.80
   6   8  10    0.51    0.90
   6   8  10    1.56    1.21
  -1  -9 -10   -0.45    0.89
  -1  -9 -10    1.46    0.62
   1   9  10   -0.57    1.01
   1   9  10    1.42    1.10
  -2  -9 -10    0.75    0.50
  -2  -9 -10   -0.51    0.83
   2   9  10    0.51    1.00
   2   9  10   -1.04    0.94
  -3  -9 -10    0.22    0.44
  -3  -9 -10    0.97    0.86
   3   9  10   -0.23    0.99
   3   9  10    1.34    0.94
  -4  -9 -10    3.33    0.95
  -4  -9 -10    4.43    0.59
  -4  -9 -10    3.13    0.48
   4   9  10    2.83    1.02
   4   9  10    2.67    1.14
  -5  -9 -10    1.41    0.94
  -5  -9 -10    0.51    0.39
  -5  -9 -10    1.82    0.42
  -5  -9 -10    0.60    0.47
   5   9  10    0.56    1.14
   0   5 -11    1.20    0.57
   0   5 -11    0.36    1.20
   0  -5  11    0.02    0.95
   2   4 -11    3.48    0.67
   2   4 -11    0.11    1.00
  -2  -4  11    0.01    0.74
  -2  -4  11    1.08    0.90
   1   4 -11    0.53    0.51
   1   4 -11   -0.26    0.97
  -1  -4  11    1.10    0.76
  -1  -4  11    1.15    0.88
   0   4 -11    1.53    0.48
   0   4 -11    1.63    1.04
   0  -4  11    0.88    0.99
   0  -4  11    1.72    0.75
  -1   4 -11    1.03    0.96
  -1   4 -11    0.67    0.40
   1  -4  11    0.42    0.83
   1  -4  11   -1.06    1.01
  -2   4 -11   -0.58    1.06
  -2   4 -11   -0.74    1.03
  -2   4 -11    1.08    0.40
   2  -4  11    1.36    1.23
   2  -4  11    0.85    0.91
   3   3 -11    1.85    1.01
   3   3 -11    0.36    0.65
  -3  -3  11    1.69    0.78
  -3  -3  11    1.04    0.73
   2   3 -11    0.76    0.97
   2   3 -11   -0.11    0.53
  -2  -3  11   -0.36    0.69
  -2  -3  11    0.69    0.77
   1   3 -11    3.69    0.60
   1   3 -11    4.93    1.08
  -1  -3  11    3.55    0.97
  -1  -3  11    3.66    0.83
   0   3 -11   -0.10    0.38
   0   3 -11    0.18    0.87
   0  -3  11   -1.49    0.77
   0  -3  11    1.56    0.75
  -1   3 -11    0.00    0.33
  -1   3 -11    0.58    0.78
  -1   3 -11    0.20    0.80
   1  -3  11   -0.46    0.91
   1  -3  11    0.91    0.72
  -2   3 -11    0.05    0.32
  -2   3 -11   -0.02    0.88
   2  -3  11    0.12    0.98
   2  -3  11    0.28    0.77
  -3   3 -11    2.48    1.00
  -3   3 -11    0.09    1.02
   3  -3  11   -1.97    0.89
   3  -3  11   -0.25    1.15
  -4   3 -11    0.98    1.12
  -4   3 -11    1.49    1.15
   4  -3  11   -0.81    1.01
   4  -3  11    0.68    1.38
   4   2 -11    5.15    0.90
  -4  -2  11    3.10    0.68
  -4  -2  11    2.37    0.89
   3   2 -11    0.63    0.91
   3   2 -11    1.16    0.66
  -3  -2  11    2.24    0.71
  -3  -2  11    0.69    0.71
   2   2 -11   -1.66    0.78
   2   2 -11   -0.13    0.51
  -2  -2  11    1.04    0.64
  -2  -2  11   -0.08    0.73
   1   2 -11    1.89    0.49
   1   2 -11    0.31    0.82
  -1  -2  11    2.42    0.77
  -1  -2  11    1.22    0.70
   0   2 -11    0.51    0.73
   0   2 -11   -0.16    0.69
   0   2 -11    0.27    0.35
   0  -2  11    0.77    0.79
   0  -2  11   -0.22    0.68
  -1   2 -11    0.61    0.76
  -1   2 -11    1.09    0.78
  -1   2 -11    0.67    0.30
   1  -2  11    0.21    0.66
   1  -2  11    0.45    0.81
  -2   2 -11    0.20    0.17
  -2   2 -11    0.18    0.77
  -2   2 -11   -0.21    0.29
  -2   2 -11    1.42    0.78
   2  -2  11    1.18    0.71
   2  -2  11   -0.06    0.87
  -3   2 -11    0.38    0.87
  -3   2 -11   -1.24    0.76
  -3   2 -11    0.27    0.26
   3  -2  11   -0.31    0.79
   3  -2  11   -0.02    1.00
  -4   2 -11    0.83    0.93
  -4   2 -11    1.05    0.96
  -4   2 -11    1.12    0.39
   4  -2  11    1.75    1.20
   4  -2  11    0.95    0.93
   4   1 -11    0.44    0.74
  -4  -1  11    0.67    0.77
  -4  -1  11    2.09    0.60
   3   1 -11    0.17    0.58
  -3  -1  11    0.88    0.70
  -3  -1  11    0.04    0.62
   2   1 -11    0.32    0.73
  -2  -1  11    0.01    0.63
  -2  -1  11    0.60    0.66
   1   1 -11    1.32    0.62
   1   1 -11    1.10    0.74
   1   1 -11    0.39    0.43
  -1  -1  11    0.88    0.61
  -1  -1  11    1.02    0.70
   0   1 -11    1.65    0.40
   0   1 -11   -0.19    0.65
   0   1 -11    2.28    0.73
   0  -1  11    2.76    0.81
   0  -1  11    2.06    0.74
  -1   1 -11    0.38    0.64
  -1   1 -11    0.26    0.64
  -1   1 -11    0.38    0.27
   1  -1  11    1.27    0.77
   1  -1  11   -0.95    0.59
  -2   1 -11    0.76    0.30
  -2   1 -11   -0.07    0.17
  -2   1 -11   -0.65    0.65
  -2   1 -11   -0.40    0.69
   2  -1  11   -1.06    1.17
   2  -1  11   -1.21    0.76
   2  -1  11    0.52    0.68
  -3   1 -11   -0.78    0.69
  -3   1 -11    0.38    0.79
  -3   1 -11   -0.08    0.24
   3  -1  11    0.45    0.74
   3  -1  11   -0.72    0.89
  -4   1 -11    1.20    0.89
  -4   1 -11    0.33    0.80
   4  -1  11   -0.64    1.04
   4  -1  11    2.69    0.94
  -5   1 -11   -0.23    0.88
  -5   1 -11   -0.04    0.48
  -5   1 -11   -0.09    0.97
   5  -1  11    0.82    1.03
   5  -1  11    2.22    1.22
   4   0 -11    1.16    0.73
  -4   0  11    0.96    0.60
  -4   0  11   -1.07    0.75
   3   0 -11   -0.55    0.58
  -3   0  11   -0.57    0.66
  -3   0  11    0.32    0.58
   2   0 -11   -1.13    0.43
  -2   0  11    0.00    0.62
  -2   0  11    0.32    0.62
   1   0 -11    1.12    0.60
   1   0 -11    0.35    0.71
   1   0 -11    1.01    0.42
  -1   0  11    1.34    0.62
  -1   0  11    0.48    0.68
   0   0 -11   -0.42    0.57
   0   0 -11   -1.26    0.62
   0   0 -11   -0.01    0.33
   0   0  11   -1.04    0.67
   0   0  11    1.09    0.70
   0   0  11   -0.10    0.56
  -1   0 -11    2.02    0.70
  -1   0 -11    0.45    0.60
  -1   0 -11    1.13    0.30
   1   0  11    2.44    1.06
   1   0  11    1.12    0.77
   1   0  11    2.17    0.79
   1   0  11    0.63    0.63
  -2   0 -11   -0.25    0.26
  -2   0 -11   -0.39    0.68
  -2   0 -11    0.04    0.17
  -2   0 -11    1.36    0.63
   2   0  11    1.05    0.80
   2   0  11   -1.46    1.05
   2   0  11    0.31    0.65
   2   0  11    0.60    0.88
  -3   0 -11   -0.41    0.62
  -3   0 -11   -0.20    0.23
   3   0  11    0.02    1.06
   3   0  11   -0.36    0.72
   3   0  11   -0.50    0.79
  -4   0 -11    0.52    0.81
  -4   0 -11    0.56    0.69
   4   0  11    0.34    0.85
   4   0  11   -0.81    0.91
  -5   0 -11    0.41    0.95
  -5   0 -11   -0.38    0.42
  -5   0 -11    0.54    0.76
   5   0  11    1.40    1.03
   5   0  11   -1.82    1.15
  -6   0 -11    0.94    0.89
  -6   0 -11    1.33    0.64
  -6   0 -11    0.53    1.07
   6   0  11   -0.96    1.35
   6   0  11   -1.50    1.11
   6   0  11   -1.06    1.05
   4  -1 -11    1.78    0.81
  -4   1  11   -0.69    0.59
  -4   1  11   -1.48    0.77
   3  -1 -11    1.87    0.69
  -3   1  11    2.62    0.73
  -3   1  11    0.53    0.61
   2  -1 -11    0.10    0.51
  -2   1  11   -0.09    0.59
  -2   1  11    0.29    0.61
   1  -1 -11   -0.02    0.57
   1  -1 -11    0.18    0.38
  -1   1  11    0.22    0.57
  -1   1  11   -0.64    0.65
  -1   1  11    0.07    0.66
   0  -1 -11    7.05    0.95
   0  -1 -11    7.51    0.89
   0  -1 -11    6.71    0.70
   0   1  11    7.96    1.11
   0   1  11    8.57    1.12
   0   1  11    7.70    0.97
   0   1  11    7.61    1.01
  -1  -1 -11    0.60    0.56
  -1  -1 -11   -0.05    0.57
  -1  -1 -11    0.52    0.29
   1   1  11    0.02    0.88
   1   1  11    0.10    0.70
   1   1  11   -0.64    0.56
   1   1  11   -1.33    0.71
  -2  -1 -11    4.90    0.85
  -2  -1 -11    5.05    0.43
  -2  -1 -11    5.13    0.52
   2   1  11    4.76    0.87
   2   1  11    5.02    1.03
   2   1  11    4.47    1.09
   2   1  11    3.65    0.96
  -3  -1 -11    0.74    0.58
  -3  -1 -11    0.12    0.24
   3   1  11    0.13    0.70
   3   1  11   -0.05    0.75
  -4  -1 -11    1.27    0.78
  -4  -1 -11    0.95    0.67
  -4  -1 -11    1.49    0.35
   4   1  11    2.42    0.86
   4   1  11    0.81    0.93
  -5  -1 -11    0.37    0.80
  -5  -1 -11   -0.70    0.63
  -5  -1 -11    0.26    0.41
   5   1  11   -0.14    1.14
   5   1  11    0.19    0.85
   5   1  11   -0.78    0.96
  -6  -1 -11   -0.99    0.98
  -6  -1 -11    0.69    0.58
   6   1  11   -1.34    1.02
   6   1  11   -0.07    1.05
   6   1  11    0.35    1.22
   4  -2 -11    1.99    0.89
  -4   2  11    0.96    0.63
  -4   2  11    1.98    1.10
   3  -2 -11    0.64    0.60
  -3   2  11    0.95    0.62
  -3   2  11    0.23    0.74
   2  -2 -11    1.49    0.55
  -2   2  11    1.54    0.69
  -2   2  11    0.37    0.66
   1  -2 -11   -0.10    0.40
   1  -2 -11    0.47    0.56
  -1   2  11   -0.99    0.60
  -1   2  11    0.18    0.65
   0  -2 -11   -0.01    0.54
   0  -2 -11    0.00    0.32
   0   2  11    0.91    0.61
   0   2  11   -1.50    0.75
   0   2  11    1.09    0.89
   0   2  11   -0.88    0.56
  -1  -2 -11    5.81    0.84
  -1  -2 -11    6.17    0.88
  -1  -2 -11    6.68    0.60
   1   2  11    6.08    0.97
   1   2  11    6.67    1.02
   1   2  11    5.13    1.05
   1   2  11    4.71    0.90
  -2  -2 -11    1.13    0.24
  -2  -2 -11    2.14    0.72
  -2  -2 -11    1.33    0.60
  -2  -2 -11    1.60    0.31
  -2  -2 -11    1.33    0.29
   2   2  11    1.97    0.72
   2   2  11    1.15    1.03
   2   2  11    1.07    0.72
  -3  -2 -11    0.49    0.52
  -3  -2 -11    0.26    0.42
   3   2  11   -0.83    0.76
   3   2  11    1.19    0.76
  -4  -2 -11    0.41    0.55
  -4  -2 -11    0.61    0.31
  -4  -2 -11   -1.37    0.69
   4   2  11    0.74    0.77
   4   2  11    0.14    0.91
   4   2  11   -1.10    0.73
  -5  -2 -11   -0.71    0.80
  -5  -2 -11    1.03    0.56
  -5  -2 -11    0.07    0.36
   5   2  11    1.01    1.00
   5   2  11    0.59    0.92
   5   2  11    1.35    0.88
  -6  -2 -11    0.33    0.92
  -6  -2 -11    0.08    0.51
   6   2  11    0.25    1.20
   6   2  11    2.90    1.09
   6   2  11    0.93    1.11
   3  -3 -11    0.90    0.72
  -3   3  11    0.98    0.68
  -3   3  11    2.29    0.89
  -3   3  11   -0.25    1.01
   2  -3 -11    2.61    0.62
  -2   3  11    2.08    0.79
  -2   3  11    1.28    0.65
   1  -3 -11    1.10    0.49
   1  -3 -11    0.32    0.60
  -1   3  11    0.69    0.65
  -1   3  11   -0.21    0.61
   0  -3 -11    0.34    0.33
   0  -3 -11    0.05    0.58
   0   3  11    0.54    0.59
   0   3  11    1.74    0.69
  -1  -3 -11    3.21    0.46
  -1  -3 -11    1.87    0.61
   1   3  11    2.24    0.78
   1   3  11    1.65    0.71
   1   3  11    3.15    0.99
  -2  -3 -11    2.11    0.37
  -2  -3 -11    2.72    0.34
  -2  -3 -11    2.59    0.33
  -2  -3 -11    2.21    0.68
   2   3  11    3.46    0.80
   2   3  11    2.64    0.80
   2   3  11    2.98    1.07
  -3  -3 -11    3.13    0.42
  -3  -3 -11    3.60    0.47
  -3  -3 -11    3.92    0.45
   3   3  11    2.95    0.75
   3   3  11    3.20    0.89
  -4  -3 -11    3.24    0.82
  -4  -3 -11    1.89    0.55
  -4  -3 -11    1.39    0.33
   4   3  11    2.31    0.91
   4   3  11    2.58    0.89
   4   3  11    2.72    0.77
  -5  -3 -11    5.05    0.98
  -5  -3 -11    4.81    0.67
   5   3  11    4.99    1.03
   5   3  11    3.30    1.07
  -6  -3 -11    2.49    0.97
  -6  -3 -11    2.50    0.57
   6   3  11    2.21    1.07
   6   3  11    3.20    1.33
   3  -4 -11    6.59    1.02
  -3   4  11    6.11    0.93
  -3   4  11    4.06    1.25
   2  -4 -11   -0.40    0.55
   2  -4 -11    0.24    0.63
  -2   4  11   -0.43    0.69
   1  -4 -11    1.32    0.47
   1  -4 -11    0.35    0.50
   1  -4 -11    0.25    0.70
  -1   4  11    0.70    0.69
  -1   4  11   -0.13    0.71
   0  -4 -11    0.68    0.40
   0  -4 -11    0.62    0.37
   0  -4 -11    1.63    0.64
   0   4  11   -0.01    0.70
   0   4  11   -0.06    0.40
   0   4  11    0.26    0.71
  -1  -4 -11    1.24    0.61
  -1  -4 -11    0.78    0.32
  -1  -4 -11    0.58    0.33
   1   4  11    0.09    1.03
   1   4  11    1.04    0.73
   1   4  11    0.95    0.49
   1   4  11    0.14    0.71
  -2  -4 -11   -0.02    0.14
  -2  -4 -11    0.11    0.25
  -2  -4 -11    0.08    0.24
  -2  -4 -11    1.12    0.64
   2   4  11    0.99    0.75
   2   4  11   -0.25    0.52
   2   4  11    0.58    0.74
   2   4  11   -0.34    0.76
  -3  -4 -11    1.96    0.35
  -3  -4 -11    1.97    0.74
  -3  -4 -11    1.25    0.29
  -3  -4 -11    1.57    0.37
   3   4  11    0.12    0.78
   3   4  11    1.97    0.69
  -4  -4 -11    0.76    0.72
  -4  -4 -11    0.02    0.30
  -4  -4 -11    0.31    0.44
   4   4  11    1.07    0.95
  -5  -4 -11    3.80    0.89
  -5  -4 -11    3.10    0.48
   5   4  11    3.14    1.12
   5   4  11    2.56    0.97
  -6  -4 -11    0.77    0.76
  -6  -4 -11    1.49    0.91
  -6  -4 -11    1.29    0.49
   6   4  11   -1.10    1.11
   6   4  11   -0.61    1.03
   2  -5 -11   14.09    1.37
   2  -5 -11   13.93    1.30
  -2   5  11   11.22    1.63
  -2   5  11   12.58    1.47
   1  -5 -11    0.10    0.53
   1  -5 -11   -0.26    0.53
  -1   5  11   -0.03    0.75
   0  -5 -11    2.07    0.73
   0  -5 -11    1.76    0.49
   0  -5 -11    0.79    0.49
   0   5  11    0.83    0.75
  -1  -5 -11    2.01    0.73
  -1  -5 -11    1.81    0.43
  -1  -5 -11    1.05    0.37
   1   5  11    2.27    0.47
   1   5  11    2.61    0.83
   1   5  11    2.64    1.25
  -2  -5 -11    0.33    0.29
  -2  -5 -11   -0.16    0.28
   2   5  11   -0.08    0.48
   2   5  11   -0.73    0.80
  -3  -5 -11    0.31    0.27
  -3  -5 -11    0.82    0.72
  -3  -5 -11    0.83    0.27
  -3  -5 -11    0.90    0.34
   3   5  11    0.97    0.64
   3   5  11    1.57    0.89
  -4  -5 -11    0.87    0.73
  -4  -5 -11    0.10    0.43
  -4  -5 -11    0.50    0.31
   4   5  11   -1.31    0.74
   4   5  11    0.56    0.90
  -5  -5 -11    1.57    0.41
  -5  -5 -11    0.75    0.82
   5   5  11    3.34    0.92
   5   5  11   -0.70    1.01
  -6  -5 -11    0.67    0.69
  -6  -5 -11    1.40    0.90
  -6  -5 -11    0.44    0.41
   6   5  11   -1.12    1.10
   6   5  11   -0.12    1.00
   1  -6 -11    0.82    0.64
  -1   6  11    0.90    0.79
  -1   6  11    0.44    1.03
   0  -6 -11    3.81    0.63
   0  -6 -11    3.91    0.65
   0  -6 -11    5.90    0.95
   0   6  11    4.36    0.95
  -1  -6 -11    0.82    0.39
  -1  -6 -11   -0.07    0.38
   1   6  11    1.99    0.86
  -2  -6 -11    0.93    0.73
  -2  -6 -11    0.82    0.37
   2   6  11    0.65    0.84
  -3  -6 -11    1.96    0.40
  -3  -6 -11    3.78    0.87
  -3  -6 -11    2.48    0.39
  -3  -6 -11    2.87    0.33
   3   6  11    1.43    0.64
   3   6  11    4.88    0.99
  -4  -6 -11    2.64    0.39
  -4  -6 -11    1.10    0.40
  -4  -6 -11    1.55    0.40
  -4  -6 -11    0.19    0.75
   4   6  11    1.95    1.00
   4   6  11    1.25    0.68
  -5  -6 -11    0.46    0.36
  -5  -6 -11   -0.18    0.86
  -5  -6 -11    0.92    0.55
   5   6  11   -0.79    1.02
   5   6  11    0.65    0.78
  -6  -6 -11   -0.34    0.71
  -6  -6 -11    0.77    0.88
  -6  -6 -11    0.59    0.45
   6   6  11    0.24    1.17
   6   6  11    0.22    0.98
   0  -7 -11    0.96    0.58
   0  -7 -11   -0.06    0.58
   0  -7 -11    2.14    0.97
   0   7  11    1.47    0.95
   0   7  11    1.84    1.06
  -1  -7 -11    1.42    0.50
  -1  -7 -11    0.46    0.80
   1   7  11    0.42    0.91
  -2  -7 -11    0.28    0.77
  -2  -7 -11    0.75    0.43
   2   7  11    1.45    0.94
  -3  -7 -11    1.72    0.42
  -3  -7 -11    1.85    0.82
   3   7  11    1.96    1.07
  -4  -7 -11    0.02    0.35
  -4  -7 -11    0.25    0.30
  -4  -7 -11   -0.08    0.81
  -4  -7 -11    0.05    0.34
   4   7  11   -0.16    0.65
   4   7  11    0.04    1.03
  -5  -7 -11    1.25    0.41
  -5  -7 -11    2.29    0.97
  -5  -7 -11    0.45    0.51
   5   7  11    0.31    1.14
   5   7  11    0.56    0.83
  -1  -8 -11    1.17    0.98
  -1  -8 -11    2.45    0.63
  -1  -8 -11    2.09    0.62
   1   8  11    4.59    1.21
   1   8  11    1.42    1.10
  -2  -8 -11    0.42    0.48
  -2  -8 -11   -0.22    0.88
   2   8  11   -0.02    1.02
  -3  -8 -11    1.14    0.96
  -3  -8 -11    1.03    0.45
   3   8  11    0.43    1.08
  -4  -8 -11    0.43    0.39
  -4  -8 -11    0.02    0.89
   4   8  11    3.87    1.20
   0   3 -12    2.04    1.13
   0   3 -12    4.73    0.70
   0  -3  12    3.42    1.05
   0  -3  12    4.08    1.18
   2   2 -12   -2.21    1.05
   2   2 -12    0.44    0.68
  -2  -2  12    1.50    0.92
   1   2 -12    0.00    0.58
   1   2 -12    2.33    1.08
  -1  -2  12    1.87    0.87
  -1  -2  12   -0.33    0.97
   0   2 -12    0.59    0.97
   0   2 -12    1.83    0.51
   0  -2  12    1.72    0.87
   0  -2  12    0.06    0.91
  -1   2 -12    1.35    0.45
  -1   2 -12    1.51    0.92
   1  -2  12    0.73    1.10
   1  -2  12   -0.61    0.81
  -2   2 -12   -0.69    0.39
  -2   2 -12   -1.40    1.00
  -2   2 -12   -0.34    0.98
   2  -2  12    0.50    0.97
   2  -2  12   -1.16    1.09
   2   1 -12   -0.10    0.99
   2   1 -12    0.32    0.62
  -2  -1  12   -0.20    0.83
  -2  -1  12    0.55    0.85
   1   1 -12    3.11    0.98
   1   1 -12    2.36    0.62
  -1  -1  12    1.49    0.88
  -1  -1  12    3.00    0.85
   0   1 -12    4.20    0.59
   0   1 -12    6.25    1.11
   0  -1  12    4.51    1.03
   0  -1  12    3.55    1.04
  -1   1 -12    2.94    0.97
  -1   1 -12    1.35    0.43
  -1   1 -12    1.69    0.87
   1  -1  12    2.66    0.87
   1  -1  12    0.80    0.94
  -2   1 -12   -0.89    0.89
  -2   1 -12    0.79    0.39
   2  -1  12    0.07    0.85
   2  -1  12    0.86    1.01
  -3   1 -12   -0.22    0.90
  -3   1 -12   -0.96    0.98
  -3   1 -12    0.33    0.37
   3  -1  12    0.52    0.93
   3  -1  12   -0.76    1.08
   2   0 -12    2.97    0.68
  -2   0  12    1.73    0.82
  -2   0  12    2.14    0.88
   1   0 -12   -0.08    0.54
   1   0 -12    0.99    0.91
  -1   0  12    0.82    0.79
  -1   0  12    1.48    0.87
   0   0 -12    1.07    0.43
   0   0 -12    1.77    0.86
   0   0  12    1.23    0.80
   0   0  12    1.17    0.87
  -1   0 -12    1.98    0.44
  -1   0 -12    0.15    0.84
  -1   0 -12    3.22    0.91
   1   0  12    2.65    0.87
   1   0  12    1.18    0.91
  -2   0 -12    1.44    0.81
  -2   0 -12    1.21    0.37
   2   0  12    1.94    0.84
   2   0  12    0.43    0.96
  -3   0 -12    1.36    0.38
  -3   0 -12    3.36    0.89
  -3   0 -12   -0.08    0.92
   3   0  12    1.25    0.92
   3   0  12    1.05    1.10
  -4   0 -12   -0.06    0.35
  -4   0 -12    0.76    0.87
  -4   0 -12   -0.36    0.99
   4   0  12    0.22    1.24
   4   0  12   -0.17    1.07
   2  -1 -12    1.64    0.67
  -2   1  12    1.98    0.93
  -2   1  12    2.11    0.82
   1  -1 -12   -0.49    0.50
  -1   1  12   -0.20    0.81
  -1   1  12    0.59    0.76
   0  -1 -12    0.10    0.43
   0  -1 -12    1.22    0.82
   0   1  12    1.38    0.85
   0   1  12   -0.14    0.84
  -1  -1 -12    2.42    0.47
  -1  -1 -12    2.87    0.83
  -1  -1 -12    3.08    0.90
   1   1  12    2.85    0.88
   1   1  12    3.41    0.98
  -2  -1 -12    3.47    0.48
  -2  -1 -12    4.82    0.86
  -2  -1 -12    3.56    0.91
   2   1  12    2.25    0.99
   2   1  12    3.55    1.00
  -3  -1 -12    5.78    0.52
  -3  -1 -12    4.12    0.51
  -3  -1 -12    4.72    0.91
  -3  -1 -12    4.78    1.08
   3   1  12    3.19    1.07
   3   1  12    4.11    1.20
  -4  -1 -12    3.02    1.00
  -4  -1 -12    3.51    0.46
  -4  -1 -12    2.03    0.81
   4   1  12    2.62    1.04
   4   1  12    1.26    1.07
  -5  -1 -12    2.93    1.11
  -5  -1 -12    2.75    0.53
   5   1  12    2.21    1.32
   5   1  12    1.42    1.17
   5   1  12    4.69    1.27
   2  -2 -12    1.75    0.65
  -2   2  12    0.71    0.91
  -2   2  12    1.66    0.83
   1  -2 -12   -0.89    0.52
  -1   2  12    0.74    0.85
  -1   2  12   -0.56    0.80
   0  -2 -12   -0.06    0.43
   0   2  12   -1.05    0.77
   0   2  12   -1.25    0.76
  -1  -2 -12    1.19    0.41
  -1  -2 -12   -0.74    0.77
   1   2  12    1.11    0.90
   1   2  12   -0.13    0.89
  -2  -2 -12    0.67    0.35
  -2  -2 -12    0.50    0.83
  -2  -2 -12    0.10    0.68
   2   2  12    0.78    0.90
   2   2  12   -1.87    0.84
  -3  -2 -12    8.47    1.07
  -3  -2 -12    7.46    1.10
  -3  -2 -12    8.45    0.64
  -3  -2 -12    7.85    0.71
   3   2  12    7.67    1.35
   3   2  12    9.48    1.35
  -4  -2 -12    1.36    0.65
  -4  -2 -12    0.77    0.37
  -4  -2 -12    1.93    0.92
   4   2  12    2.41    1.06
   4   2  12    0.79    1.17
   4   2  12    1.50    1.01
  -5  -2 -12    2.68    0.53
  -5  -2 -12    0.73    1.11
   5   2  12    0.96    1.09
   5   2  12    1.93    1.22
   5   2  12    2.50    1.37
   2  -3 -12    1.62    0.70
  -2   3  12    2.18    0.96
  -2   3  12    1.94    0.83
   1  -3 -12    0.14    0.55
  -1   3  12   -1.39    0.80
  -1   3  12    0.74    0.92
   0  -3 -12    0.69    0.47
   0   3  12   -1.67    0.81
   0   3  12   -0.46    0.81
  -1  -3 -12    0.11    0.39
  -1  -3 -12    0.89    0.81
   1   3  12    0.53    0.80
   1   3  12   -0.67    0.78
  -2  -3 -12   -0.50    0.33
   2   3  12   -1.02    0.73
   2   3  12    1.64    0.92
   2   3  12    0.10    0.81
  -3  -3 -12    0.38    0.86
  -3  -3 -12    0.36    0.33
  -3  -3 -12    0.64    0.29
   3   3  12   -1.21    0.91
   3   3  12    0.32    0.93
   3   3  12    1.08    0.81
  -4  -3 -12    4.15    1.01
  -4  -3 -12    2.73    0.43
   4   3  12    3.90    1.02
   4   3  12    1.93    1.08
   4   3  12    2.96    1.16
  -5  -3 -12    3.58    1.11
  -5  -3 -12    3.28    0.81
  -5  -3 -12    2.51    0.49
   5   3  12    4.09    1.25
   5   3  12    5.33    1.23
   1  -4 -12    1.24    0.63
  -1   4  12    0.85    0.88
   0  -4 -12    1.06    0.50
   0   4  12    1.53    0.88
   0   4  12    2.26    0.94
  -1  -4 -12    0.28    0.40
  -1  -4 -12   -0.82    0.78
   1   4  12   -0.45    0.84
   1   4  12    0.22    0.88
  -2  -4 -12    0.92    0.36
  -2  -4 -12    0.35    0.80
   2   4  12    1.28    0.95
   2   4  12    1.72    0.71
   2   4  12    1.53    0.98
  -3  -4 -12   -0.14    0.26
  -3  -4 -12   -0.85    0.75
  -3  -4 -12    0.06    0.33
   3   4  12   -0.55    0.93
  -4  -4 -12    0.36    0.33
  -4  -4 -12    0.37    0.35
  -4  -4 -12   -2.06    0.83
   4   4  12   -0.27    0.89
   4   4  12    1.31    1.11
  -5  -4 -12   -0.95    0.97
  -5  -4 -12    0.08    0.38
  -5  -4 -12    0.18    0.71
   5   4  12   -0.02    1.17
   5   4  12   -0.66    1.17
   1  -5 -12    0.50    0.70
   0  -5 -12   -0.16    0.54
   0   5  12    0.65    0.91
   1   5  12    1.18    0.95
  -2  -5 -12   -1.89    0.78
  -2  -5 -12   -0.25    0.39
   2   5  12    1.17    1.03
  -3  -5 -12    2.08    0.89
  -3  -5 -12    1.26    0.41
   3   5  12    2.46    1.15
   3   5  12   -0.06    0.78
  -4  -5 -12    0.23    0.89
  -4  -5 -12    0.61    0.39
  -4  -5 -12    0.09    0.34
   4   5  12    1.20    0.93
   4   5  12    0.64    1.08
  -5  -5 -12    0.14    0.39
  -5  -5 -12    0.16    0.94
   5   5  12   -0.24    1.14
   5   5  12    1.01    1.07
  -1  -6 -12   -0.48    0.54
  -1  -6 -12    0.26    0.92
   1   6  12   -0.43    1.02
  -2  -6 -12   -0.71    0.42
  -2  -6 -12    0.81    0.94
   2   6  12   -0.79    1.09
  -3  -6 -12    0.98    0.42
  -3  -6 -12    0.35    0.93
   3   6  12    0.02    1.10
  -4  -6 -12    2.53    0.95
  -4  -6 -12   -0.42    0.35
  -4  -6 -12    0.34    0.41
   4   6  12    0.69    1.22
  -1  -1 -13   -0.72    0.98
  -1  -1 -13   -0.95    0.50
   1   1  13    1.20    1.12
  -1  -2 -13   -0.59    0.49
   1   2  13    0.34    1.05
   1   2  13    0.51    1.12
  -2  -2 -13   -2.24    1.01
  -2  -2 -13    0.95    0.46
   2   2  13    1.56    1.08
   2   2  13   -0.56    1.18
  -1  -3 -13    0.06    0.53
  -2  -3 -13   -0.56    1.00
  -2  -3 -13    0.49    0.50
   2   3  13    1.15    1.10
   0   0   0    0.00    0.00
;
_shelx_hkl_checksum              74575
loop_
_space_group_symop_operation_xyz
'x, y, z'
'-x, -y, -z'
loop_
_atom_site_label
_atom_site_type_symbol
_atom_site_fract_x
_atom_site_fract_y
_atom_site_fract_z
_atom_site_U_iso_or_equiv
_atom_site_adp_type
_atom_site_occupancy
_atom_site_site_symmetry_order
_atom_site_calc_flag
_atom_site_refinement_flags_posn
_atom_site_refinement_flags_adp
O1 O 1.09936(15) -0.07102(12) 0.65178(12) 0.0208(3) Uani 1 1 d . .
N5 N 0.29922(19) 0.27549(16) 1.24143(14) 0.0188(3) Uani 1 1 d . .
O3 O 0.74325(15) -0.00154(12) 0.83682(12) 0.0209(3) Uani 1 1 d . .
C12 C 0.7271(2) 0.20476(16) 0.97936(15) 0.0141(3) Uani 1 1 d . .
C13 C 0.5619(2) 0.20394(17) 1.05514(16) 0.0148(3) Uani 1 1 d . .
C14 C 0.4612(2) 0.30098(17) 1.16580(16) 0.0156(3) Uani 1 1 d . .
C15 C 0.4911(2) 0.42495(18) 1.22153(18) 0.0200(3) Uani 1 1 d . .
C11 C 1.1794(2) 0.2910(2) 0.84226(18) 0.0235(4) Uani 1 1 d . .
C1 C 1.2300(2) -0.1370(2) 0.53510(18) 0.0266(4) Uani 1 1 d . .
H1 H 1.2383 -0.0542 0.4537 0.040 Uiso 1 1 calc R U
H3 H 1.1882 -0.2173 0.5008 0.040 Uiso 1 1 calc R U
H13 H 1.3527 -0.1845 0.5710 0.040 Uiso 1 1 calc R U
C2 C 1.1325(2) 0.04721(17) 0.70791(16) 0.0158(3) Uani 1 1 d . .
C3 C 0.9947(2) 0.12132(17) 0.81273(16) 0.0143(3) Uani 1 1 d . .
C4 C 0.8134(2) 0.09390(16) 0.87108(16) 0.0143(3) Uani 1 1 d . .
C6 C 0.2308(2) 0.37770(18) 1.34200(18) 0.0221(4) Uani 1 1 d . .
C5 C 0.3464(2) 0.47259(19) 1.33203(18) 0.0230(4) Uani 1 1 d . .
C7 C 0.8558(2) 0.30229(17) 0.98822(16) 0.0163(3) Uani 1 1 d . .
H11 H 0.8949 0.2866 1.0883 0.020 Uiso 1 1 calc R U
H12 H 0.7954 0.4151 0.9607 0.020 Uiso 1 1 calc R U
C8 C 1.0196(2) 0.24171(17) 0.87858(16) 0.0161(3) Uani 1 1 d . .
C9 C 1.3131(2) 0.2182(2) 0.73822(18) 0.0251(4) Uani 1 1 d . .
H10 H 1.4232 0.2511 0.7121 0.030 Uiso 1 1 calc R U
C10 C 1.2912(2) 0.09876(19) 0.67094(17) 0.0216(4) Uani 1 1 d . .
H9 H 1.3852 0.0520 0.5993 0.026 Uiso 1 1 calc R U
H2 H 1.197(3) 0.373(2) 0.894(2) 0.033(5) Uiso 1 1 d . .
H6 H 0.116(3) 0.376(2) 1.404(2) 0.032(5) Uiso 1 1 d . .
H14 H 0.252(3) 0.195(3) 1.229(2) 0.046(6) Uiso 1 1 d . .
H15 H 0.329(2) 0.556(2) 1.392(2) 0.026(5) Uiso 1 1 d . .
H4 H 0.591(3) 0.468(2) 1.190(2) 0.030(5) Uiso 1 1 d . .
H5 H 0.503(2) 0.1271(19) 1.0351(17) 0.017(4) Uiso 1 1 d . .
loop_
_atom_site_aniso_label
_atom_site_aniso_U_11
_atom_site_aniso_U_22
_atom_site_aniso_U_33
_atom_site_aniso_U_23
_atom_site_aniso_U_13
_atom_site_aniso_U_12
O1 0.0199(6) 0.0218(6) 0.0193(6) -0.0104(4) 0.0057(5) -0.0034(5)
N5 0.0192(7) 0.0169(7) 0.0198(7) -0.0072(5) 0.0059(5) -0.0057(5)
O3 0.0217(6) 0.0213(6) 0.0236(6) -0.0102(5) 0.0049(5) -0.0113(5)
C12 0.0149(7) 0.0133(7) 0.0135(7) -0.0028(5) -0.0009(6) -0.0028(6)
C13 0.0163(8) 0.0134(7) 0.0148(7) -0.0023(6) -0.0015(6) -0.0039(6)
C14 0.0155(7) 0.0151(7) 0.0147(7) -0.0018(6) 0.0015(6) -0.0036(6)
C15 0.0213(8) 0.0171(8) 0.0230(8) -0.0061(6) 0.0024(7) -0.0074(7)
C11 0.0208(8) 0.0290(9) 0.0253(9) -0.0087(7) 0.0001(7) -0.0121(7)
C1 0.0233(9) 0.0308(9) 0.0216(8) -0.0124(7) 0.0030(7) 0.0011(7)
C2 0.0164(8) 0.0156(7) 0.0136(7) -0.0020(6) -0.0015(6) -0.0015(6)
C3 0.0131(7) 0.0143(7) 0.0142(7) -0.0002(5) -0.0013(6) -0.0030(6)
C4 0.0158(7) 0.0129(7) 0.0131(7) -0.0015(5) -0.0005(6) -0.0027(6)
C6 0.0223(9) 0.0197(8) 0.0214(8) -0.0076(6) 0.0070(7) -0.0027(7)
C5 0.0279(9) 0.0180(8) 0.0230(8) -0.0096(7) 0.0044(7) -0.0055(7)
C7 0.0161(8) 0.0174(7) 0.0170(7) -0.0057(6) 0.0012(6) -0.0065(6)
C8 0.0143(7) 0.0184(7) 0.0156(7) -0.0021(6) -0.0007(6) -0.0050(6)
C9 0.0174(8) 0.0342(10) 0.0266(9) -0.0044(7) 0.0027(7) -0.0138(7)
C10 0.0141(8) 0.0296(9) 0.0180(8) -0.0034(7) 0.0034(6) -0.0034(7)
loop_
_atom_type_symbol
_atom_type_description
_atom_type_scat_dispersion_real
_atom_type_scat_dispersion_imag
_atom_type_scat_source
C C 0.0033 0.0016 'International Tables Vol C Tables 4.2.6.8 and 6.1.1.4'
H H 0.0000 0.0000 'International Tables Vol C Tables 4.2.6.8 and 6.1.1.4'
N N 0.0061 0.0033 'International Tables Vol C Tables 4.2.6.8 and 6.1.1.4'
O O 0.0106 0.0060 'International Tables Vol C Tables 4.2.6.8 and 6.1.1.4'
loop_
_geom_angle_atom_site_label_1
_geom_angle_atom_site_label_2
_geom_angle_atom_site_label_3
_geom_angle
C2 O1 C1 117.07(12)
C6 N5 C14 109.76(14)
C6 N5 H14 126.0(14)
C14 N5 H14 124.1(13)
C13 C12 C4 120.73(14)
C13 C12 C7 130.07(13)
C4 C12 C7 109.16(13)
C12 C13 C14 127.77(14)
C12 C13 H5 116.9(9)
C14 C13 H5 115.3(9)
N5 C14 C15 106.53(13)
N5 C14 C13 119.95(14)
C15 C14 C13 133.51(14)
C14 C15 C5 108.04(14)
C14 C15 H4 125.0(11)
C5 C15 H4 126.9(11)
C9 C11 C8 118.11(15)
C9 C11 H2 122.2(11)
C8 C11 H2 119.7(11)
O1 C1 H1 109.5
O1 C1 H3 109.5
H1 C1 H3 109.5
O1 C1 H13 109.5
H1 C1 H13 109.5
H3 C1 H13 109.5
O1 C2 C10 125.04(14)
O1 C2 C3 116.74(13)
C10 C2 C3 118.21(14)
C8 C3 C2 120.48(14)
C8 C3 C4 109.25(13)
C2 C3 C4 130.27(14)
O3 C4 C3 127.52(14)
O3 C4 C12 125.52(14)
C3 C4 C12 106.95(13)
N5 C6 C5 108.53(15)
N5 C6 H6 120.2(11)
C5 C6 H6 131.3(11)
C6 C5 C15 107.14(14)
C6 C5 H15 125.2(11)
C15 C5 H15 127.7(11)
C12 C7 C8 103.32(12)
C12 C7 H11 111.1
C8 C7 H11 111.1
C12 C7 H12 111.1
C8 C7 H12 111.1
H11 C7 H12 109.1
C11 C8 C3 120.86(15)
C11 C8 C7 127.83(14)
C3 C8 C7 111.31(13)
C11 C9 C10 122.10(14)
C11 C9 H10 119.0
C10 C9 H10 119.0
C9 C10 C2 120.23(14)
C9 C10 H9 119.9
C2 C10 H9 119.9
loop_
_geom_bond_atom_site_label_1
_geom_bond_atom_site_label_2
_geom_bond_distance
O1 C2 1.3560(18)
O1 C1 1.4333(18)
N5 C6 1.358(2)
N5 C14 1.381(2)
N5 H14 0.93(2)
O3 C4 1.2339(18)
C12 C13 1.343(2)
C12 C4 1.478(2)
C12 C7 1.506(2)
C13 C14 1.439(2)
C13 H5 0.978(17)
C14 C15 1.389(2)
C15 C5 1.405(2)
C15 H4 0.94(2)
C11 C9 1.384(2)
C11 C8 1.385(2)
C11 H2 0.994(19)
C1 H1 0.9800
C1 H3 0.9800
C1 H13 0.9800
C2 C10 1.388(2)
C2 C3 1.409(2)
C3 C8 1.396(2)
C3 C4 1.474(2)
C6 C5 1.374(2)
C6 H6 0.97(2)
C5 H15 0.970(18)
C7 C8 1.512(2)
C7 H11 0.9900
C7 H12 0.9900
C9 C10 1.386(2)
C9 H10 0.9500
C10 H9 0.9500
loop_
_geom_hbond_atom_site_label_D
_geom_hbond_atom_site_label_H
_geom_hbond_atom_site_label_A
_geom_hbond_distance_DH
_geom_hbond_distance_HA
_geom_hbond_distance_DA
_geom_hbond_angle_DHA
_geom_hbond_site_symmetry_A
C13 H5 O3 0.978(17) 2.513(16) 3.2937(18) 136.7(12) 2_657
N5 H14 O3 0.93(2) 1.93(2) 2.7961(17) 155.8(19) 2_657
C1 H1 O3 0.98 2.65 3.471(2) 141.4 2_756
C13 H5 O3 0.978(17) 2.513(16) 3.2937(18) 136.7(12) 2_657
N5 H14 O3 0.93(2) 1.93(2) 2.7961(17) 155.8(19) 2_657
C1 H1 O3 0.98 2.65 3.471(2) 141.4 2_756
C13 H5 O3 0.978(17) 2.513(16) 3.2937(18) 136.7(12) 2_657
N5 H14 O3 0.93(2) 1.93(2) 2.7961(17) 155.8(19) 2_657
C1 H1 O3 0.98 2.65 3.471(2) 141.4 2_756
N5 H14 O3 0.93(2) 1.93(2) 2.7961(17) 155.8(19) 2_657
C1 H1 O3 0.98 2.65 3.471(2) 141.4 2_756
N5 H14 O3 0.93(2) 1.93(2) 2.7961(17) 155.8(19) 2_657
C1 H1 O3 0.98 2.65 3.471(2) 141.4 2_756
N5 H14 O3 0.93(2) 1.93(2) 2.7961(17) 155.8(19) 2_657
C1 H1 O3 0.98 2.65 3.471(2) 141.4 2_756
N5 H14 O3 0.93(2) 1.93(2) 2.7961(17) 155.8(19) 2_657
C1 H1 O3 0.98 2.65 3.471(2) 141.4 2_756
C1 H1 O3 0.98 2.65 3.471(2) 141.4 2_756
C1 H1 O3 0.98 2.65 3.471(2) 141.4 2_756
C1 H1 O3 0.98 2.65 3.471(2) 141.4 2_756
C1 H1 O3 0.98 2.65 3.471(2) 141.4 2_756
C1 H1 O3 0.98 2.65 3.471(2) 141.4 2_756
N5 H14 O3 0.93(2) 1.93(2) 2.7961(17) 155.8(19) 2_657
C1 H1 O3 0.98 2.65 3.471(2) 141.4 2_756
N5 H14 O3 0.93(2) 1.93(2) 2.7961(17) 155.8(19) 2_657
C1 H1 O3 0.98 2.65 3.471(2) 141.4 2_756
N5 H14 O3 0.93(2) 1.93(2) 2.7961(17) 155.8(19) 2_657
C1 H1 O3 0.98 2.65 3.471(2) 141.4 2_756
N5 H14 O3 0.93(2) 1.93(2) 2.7961(17) 155.8(19) 2_657
C13 H5 O3 0.978(17) 2.513(16) 3.2937(18) 136.7(12) 2_657
C1 H1 O3 0.98 2.65 3.471(2) 141.4 2_756
N5 H14 O3 0.93(2) 1.93(2) 2.7961(17) 155.8(19) 2_657
C13 H5 O3 0.978(17) 2.513(16) 3.2937(18) 136.7(12) 2_657
loop_
_geom_torsion_atom_site_label_1
_geom_torsion_atom_site_label_2
_geom_torsion_atom_site_label_3
_geom_torsion_atom_site_label_4
_geom_torsion
C4 C12 C13 C14 178.64(14)
C7 C12 C13 C14 1.2(3)
C6 N5 C14 C15 -0.73(18)
C6 N5 C14 C13 178.61(14)
C12 C13 C14 N5 -174.71(15)
C12 C13 C14 C15 4.4(3)
N5 C14 C15 C5 0.48(18)
C13 C14 C15 C5 -178.73(16)
C1 O1 C2 C10 -6.4(2)
C1 O1 C2 C3 174.18(13)
O1 C2 C3 C8 178.51(13)
C10 C2 C3 C8 -0.9(2)
O1 C2 C3 C4 -1.6(2)
C10 C2 C3 C4 178.97(14)
C8 C3 C4 O3 178.84(14)
C2 C3 C4 O3 -1.1(3)
C8 C3 C4 C12 -0.54(16)
C2 C3 C4 C12 179.57(15)
C13 C12 C4 O3 2.8(2)
C7 C12 C4 O3 -179.26(14)
C13 C12 C4 C3 -177.82(13)
C7 C12 C4 C3 0.12(16)
C14 N5 C6 C5 0.71(19)
N5 C6 C5 C15 -0.4(2)
C14 C15 C5 C6 -0.06(19)
C13 C12 C7 C8 177.98(15)
C4 C12 C7 C8 0.29(16)
C9 C11 C8 C3 0.4(2)
C9 C11 C8 C7 179.81(15)
C2 C3 C8 C11 0.1(2)
C4 C3 C8 C11 -179.77(14)
C2 C3 C8 C7 -179.35(13)
C4 C3 C8 C7 0.75(17)
C12 C7 C8 C11 179.92(16)
C12 C7 C8 C3 -0.64(16)
C8 C11 C9 C10 -0.2(3)
C11 C9 C10 C2 -0.6(3)
O1 C2 C10 C9 -178.24(14)
C3 C2 C10 C9 1.1(2)
