#------------------------------------------------------------------------------
#$Date: 2017-04-04 10:32:27 +0300 (Tue, 04 Apr 2017) $
#$Revision: 194758 $
#$URL: file:///home/coder/svn-repositories/cod/cif/4/03/24/4032425.cif $
#------------------------------------------------------------------------------
#
# This file is available in the Crystallography Open Database (COD),
# http://www.crystallography.net/
#
# All data on this site have been placed in the public domain by the
# contributors.
#
data_4032425
loop_
_publ_author_name
'Obulesu, Owk'
'Babu, K. Harish'
'Nanubolu, Jagadeesh Babu'
'Suresh, Surisetti'
_publ_section_title
;
 Copper-Catalyzed Tandem O-Arylation-Oxidative Cross Coupling: Synthesis
 of Chromone Fused Pyrazoles.
;
_journal_issue                   6
_journal_name_full               'The Journal of organic chemistry'
_journal_page_first              2926
_journal_page_last               2934
_journal_paper_doi               10.1021/acs.joc.6b02890
_journal_volume                  82
_journal_year                    2017
_chemical_formula_moiety         'C18 H12 N2 O4'
_chemical_formula_sum            'C18 H12 N2 O4'
_chemical_formula_weight         320.30
_chemical_name_systematic
3-METHYL-1-PHENYL-[1,3]DIOXOLO[4,5,6,7]CHROMENO[2,3-c]PYRAZOL-4(1H)-ONE
_space_group_crystal_system      triclinic
_space_group_IT_number           2
_space_group_name_Hall           '-P 1'
_space_group_name_H-M_alt        'P -1'
_symmetry_space_group_name_Hall  '-P 1'
_symmetry_space_group_name_H-M   'P -1'
_atom_sites_solution_hydrogens   geom
_audit_creation_method           SHELXL-2014/7
_cell_angle_alpha                100.87(6)
_cell_angle_beta                 95.25(5)
_cell_angle_gamma                93.71(3)
_cell_formula_units_Z            2
_cell_length_a                   4.438(4)
_cell_length_b                   10.210(10)
_cell_length_c                   15.70(2)
_cell_measurement_reflns_used    6867
_cell_measurement_temperature    100(2)
_cell_measurement_theta_max      28.2975
_cell_measurement_theta_min      2.6435
_cell_volume                     693.3(13)
_computing_cell_refinement       '<i>SAINT</i> (Bruker, 2016)'
_computing_data_collection       '<i>APEX3</i> (Bruker, 2016)'
_computing_data_reduction        'Bruker SAINT'
_computing_molecular_graphics    'Bruker SHELXTL'
_computing_publication_material  'Bruker SHELXTL'
_computing_structure_refinement  '<i>SHELXL2014</i> (Sheldrick, 2015)'
_computing_structure_solution    '<i>SHELXT</i> (Sheldrick, 2015)'
_diffrn_ambient_temperature      100(2)
_diffrn_measured_fraction_theta_full 0.998
_diffrn_measured_fraction_theta_max 0.999
_diffrn_measurement_device_type  'Bruker D8 QUEST PHOTON-100'
_diffrn_measurement_method       '\w and \f'
_diffrn_radiation_type           MoK\a
_diffrn_radiation_wavelength     0.71073
_diffrn_reflns_av_R_equivalents  0.0270
_diffrn_reflns_av_unetI/netI     0.0257
_diffrn_reflns_Laue_measured_fraction_full 0.998
_diffrn_reflns_Laue_measured_fraction_max 0.999
_diffrn_reflns_limit_h_max       5
_diffrn_reflns_limit_h_min       -5
_diffrn_reflns_limit_k_max       13
_diffrn_reflns_limit_k_min       -13
_diffrn_reflns_limit_l_max       20
_diffrn_reflns_limit_l_min       -20
_diffrn_reflns_number            13628
_diffrn_reflns_point_group_measured_fraction_full 0.998
_diffrn_reflns_point_group_measured_fraction_max 0.999
_diffrn_reflns_theta_full        25.242
_diffrn_reflns_theta_max         27.495
_diffrn_reflns_theta_min         2.204
_exptl_absorpt_coefficient_mu    0.111
_exptl_absorpt_correction_T_max  0.993
_exptl_absorpt_correction_T_min  0.963
_exptl_absorpt_correction_type   multi-scan
_exptl_absorpt_process_details   'SADABS; Bruker,2016'
_exptl_crystal_colour            COLOURLESS
_exptl_crystal_density_diffrn    1.534
_exptl_crystal_description       NEEDLE
_exptl_crystal_F_000             332
_exptl_crystal_size_max          0.340
_exptl_crystal_size_mid          0.110
_exptl_crystal_size_min          0.060
_refine_diff_density_max         0.223
_refine_diff_density_min         -0.348
_refine_diff_density_rms         0.062
_refine_ls_extinction_method     none
_refine_ls_goodness_of_fit_ref   1.071
_refine_ls_hydrogen_treatment    constr
_refine_ls_matrix_type           full
_refine_ls_number_parameters     218
_refine_ls_number_reflns         3177
_refine_ls_number_restraints     0
_refine_ls_restrained_S_all      1.071
_refine_ls_R_factor_all          0.0524
_refine_ls_R_factor_gt           0.0387
_refine_ls_shift/su_max          0.000
_refine_ls_shift/su_mean         0.000
_refine_ls_structure_factor_coef Fsqd
_refine_ls_weighting_details
'w=1/[\s^2^(Fo^2^)+(0.0484P)^2^+0.2778P] where P=(Fo^2^+2Fc^2^)/3'
_refine_ls_weighting_scheme      calc
_refine_ls_wR_factor_gt          0.0946
_refine_ls_wR_factor_ref         0.1026
_reflns_Friedel_coverage         0.000
_reflns_number_gt                2584
_reflns_number_total             3177
_reflns_threshold_expression     'I > 2\s(I)'
_cod_data_source_file            jo6b02890_si_002.cif
_cod_data_source_block           KA53_0m-auto
_cod_original_cell_volume        693.4(13)
_cod_database_code               4032425
_shelx_shelxl_version_number     2014/7
_shelx_space_group_comment
;
The symmetry employed for this shelxl refinement is uniquely defined
by the following loop, which should always be used as a source of
symmetry information in preference to the above space-group names.
They are only intended as comments.
;
_shelx_estimated_absorpt_t_min   0.963
_shelx_estimated_absorpt_t_max   0.993
_shelx_res_file
;

    KA53_0m-auto.res created by SHELXL-2014/7

TITL KA53_0m_a.res in P-1
CELL 0.71073 4.4383 10.2104 15.7022 100.868 95.251 93.708
ZERR 2.00 0.0037 0.0099 0.0215 0.061 0.045 0.028
LATT 1
SFAC C  H  N  O
UNIT 36 24 4 8
OMIT  -3.00  55.00
L.S. 20
ACTA
BOND $H
FMAP 2
PLAN 5
LIST 6
CONF
SIZE 0.34 0.11 0.06
TEMP -173.000
WGHT    0.048400    0.277800
FVAR       0.48354
C1    1    0.319816    0.509984    0.833541    11.00000    0.01354    0.01305 =
         0.01825    0.00015    0.00047    0.00120
C2    1    0.333581    0.591803    0.772331    11.00000    0.02467    0.02016 =
         0.02007    0.00417    0.00740    0.00726
AFIX  43
H2    2    0.436085    0.566330    0.722013    11.00000   -1.20000
AFIX   0
C3    1    0.195460    0.711437    0.785634    11.00000    0.02771    0.01824 =
         0.02283    0.00641    0.00630    0.00767
AFIX  43
H3    2    0.206126    0.768144    0.744301    11.00000   -1.20000
AFIX   0
C4    1    0.042680    0.749051    0.858240    11.00000    0.02043    0.01552 =
         0.02588    0.00083    0.00398    0.00600
AFIX  43
H4    2   -0.052828    0.830465    0.866524    11.00000   -1.20000
AFIX   0
C5    1    0.030884    0.666383    0.918685    11.00000    0.02852    0.02141 =
         0.02388    0.00031    0.01272    0.00695
AFIX  43
H5    2   -0.073578    0.691298    0.968680    11.00000   -1.20000
AFIX   0
C6    1    0.170530    0.547515    0.906702    11.00000    0.02739    0.01993 =
         0.02142    0.00653    0.00946    0.00496
AFIX  43
H6    2    0.163573    0.491910    0.948769    11.00000   -1.20000
AFIX   0
C7    1    0.570651    0.198694    0.860091    11.00000    0.01696    0.01600 =
         0.01726    0.00314    0.00119    0.00130
C8    1    0.573992    0.088001    0.909883    11.00000    0.03055    0.01922 =
         0.02214    0.00742    0.00612    0.00528
AFIX 137
H8A   2    0.473248    0.113425    0.962838    11.00000   -1.50000
H8B   2    0.784469    0.071019    0.925905    11.00000   -1.50000
H8C   2    0.466455    0.006789    0.873639    11.00000   -1.50000
AFIX   0
C9    1    0.711750    0.207460    0.783152    11.00000    0.01531    0.01418 =
         0.01751    0.00340   -0.00013    0.00110
C10   1    0.631244    0.327821    0.763798    11.00000    0.01319    0.01329 =
         0.01563    0.00117    0.00090    0.00051
C11   1    0.896550    0.124270    0.728836    11.00000    0.01443    0.01342 =
         0.01757    0.00172   -0.00080    0.00071
C12   1    0.983584    0.184598    0.654531    11.00000    0.01307    0.01269 =
         0.01776    0.00115    0.00100    0.00183
C13   1    0.887364    0.308067    0.641660    11.00000    0.01359    0.01329 =
         0.01704    0.00002    0.00287    0.00285
C14   1    0.961469    0.367506    0.572327    11.00000    0.02066    0.01237 =
         0.02233    0.00422    0.00594    0.00586
AFIX  43
H14   2    0.895012    0.451608    0.564864    11.00000   -1.20000
AFIX   0
C15   1    1.135889    0.296496    0.516032    11.00000    0.01999    0.01436 =
         0.01922    0.00499    0.00534    0.00236
C16   1    1.236654    0.173330    0.526787    11.00000    0.01481    0.01359 =
         0.02101   -0.00125    0.00403    0.00387
C17   1    1.165391    0.115934    0.594608    11.00000    0.01487    0.01193 =
         0.02160    0.00282    0.00152    0.00440
AFIX  43
H17   2    1.235828    0.032230    0.601418    11.00000   -1.20000
AFIX   0
C18   1    1.396919    0.221192    0.403372    11.00000    0.02391    0.01630 =
         0.02204    0.00313    0.00855    0.00818
AFIX  23
H18A  2    1.290732    0.178331    0.345674    11.00000   -1.20000
H18B  2    1.605278    0.253634    0.395131    11.00000   -1.20000
AFIX   0
N1    3    0.457418    0.386104    0.823767    11.00000    0.01689    0.01361 =
         0.01567    0.00317    0.00342    0.00295
N2    3    0.420027    0.304348    0.884587    11.00000    0.02094    0.01614 =
         0.01747    0.00511    0.00255    0.00203
O1    4    0.705067    0.382392    0.696561    11.00000    0.01771    0.01323 =
         0.01750    0.00392    0.00689    0.00586
O2    4    0.977046    0.014935    0.740261    11.00000    0.02419    0.01330 =
         0.02282    0.00542    0.00252    0.00638
O3    4    1.407678    0.126972    0.460387    11.00000    0.02684    0.01769 =
         0.02492    0.00608    0.01368    0.01047
O4    4    1.236313    0.331181    0.442732    11.00000    0.03950    0.01888 =
         0.02874    0.00919    0.02209    0.01477
HKLF 4 1 1 0 0 0 1 0 0 0 1

REM  KA53_0m_a.res in P-1
REM R1 =  0.0387 for    2584 Fo > 4sig(Fo)  and  0.0524 for all    3177 data
REM    218 parameters refined using      0 restraints

END

WGHT      0.0484      0.2780

REM Highest difference peak  0.223,  deepest hole -0.348,  1-sigma level  0.062
Q1    1   1.1531  0.2258  0.5201  11.00000  0.05    0.22
Q2    1   0.6520  0.1940  0.8185  11.00000  0.05    0.18
Q3    1   0.9014  0.1423  0.6775  11.00000  0.05    0.18
Q4    1   0.9101  0.2332  0.6423  11.00000  0.05    0.18
Q5    1   0.7345  0.2759  0.7815  11.00000  0.05    0.17
;
_shelx_res_checksum              74313
_shelx_hkl_file
;
  -1   0   0   14.75    0.38
  -1   0   0   14.97    0.50
  -1   0   0   15.21    0.36
   1   0   0   15.10    0.51
  -2   0   0   21.75    0.81
  -2   0   0   21.38    0.63
  -2   0   0   21.81    0.59
   2   0   0   21.39    0.82
  -3   0   0   32.20    1.23
  -3   0   0   33.89    0.96
  -3   0   0   32.61    0.93
   3   0   0   31.42    1.21
  -4   0   0    0.76    0.42
  -4   0   0    0.22    0.37
  -4   0   0    0.07    0.36
  -4   0   0    0.39    0.49
   4   0   0    1.02    0.56
  -5   0   0   10.61    1.11
  -5   0   0   11.61    1.08
  -5   0   0   10.98    1.12
  -5   0   0   13.79    1.37
   5   0   0   11.66    1.56
   5  -1   0    7.92    1.13
  -5   1   0    5.98    0.87
  -5   1   0    7.04    0.86
  -5   1   0    6.89    1.05
  -5   1   0    7.30    0.87
   4  -1   0   78.18    2.45
  -4   1   0   77.77    1.98
  -4   1   0   78.26    2.43
  -4   1   0   78.75    1.89
  -4   1   0   77.63    2.01
   3  -1   0   15.25    0.97
  -3   1   0   16.65    0.70
  -3   1   0   16.54    0.66
  -3   1   0   15.74    0.71
  -3   1   0   16.38    0.97
   2  -1   0   27.91    0.66
   2  -1   0   29.50    1.04
  -2   1   0   28.16    1.01
  -2   1   0   29.05    0.79
  -2   1   0   27.72    0.81
  -2   1   0   29.70    0.75
   1  -1   0    2.16    0.21
   1  -1   0    2.49    0.30
   1  -1   0    2.49    0.22
  -1   1   0    2.66    0.20
  -1   1   0    2.28    0.28
  -1   1   0    2.77    0.14
  -1   1   0    2.37    0.22
  -1  -1   0  106.77    1.87
  -1  -1   0  104.04    1.85
  -1  -1   0  104.69    1.95
   1   1   0  105.19    1.94
  -2  -1   0  190.94    3.38
  -2  -1   0  185.53    3.62
  -2  -1   0  188.86    3.37
   2   1   0  189.12    3.61
  -3  -1   0    0.50    0.33
  -3  -1   0    1.38    0.26
  -3  -1   0    1.60    0.25
   3   1   0    1.22    0.37
  -4  -1   0   90.92    2.07
  -4  -1   0   89.36    2.43
  -4  -1   0   89.18    2.08
   4   1   0   88.11    2.45
  -5  -1   0   13.80    1.04
  -5  -1   0   14.13    1.37
  -5  -1   0   13.20    1.17
  -5  -1   0   16.84    1.31
   5  -2   0   37.14    2.27
  -5   2   0   35.69    2.04
  -5   2   0   37.59    1.67
  -5   2   0   36.40    1.69
  -5   2   0   33.56    1.24
   4  -2   0   19.26    1.39
  -4   2   0   18.54    1.05
  -4   2   0   18.72    1.32
  -4   2   0   21.22    1.04
  -4   2   0   19.40    0.78
   3  -2   0    1.02    0.49
  -3   2   0    0.80    0.45
  -3   2   0    0.60    0.28
  -3   2   0    0.55    0.31
  -3   2   0    0.66    0.21
   2  -2   0    3.38    0.36
   2  -2   0    2.64    0.42
   2  -2   0    3.02    0.27
  -2   2   0    2.17    0.39
  -2   2   0    3.31    0.36
  -2   2   0    2.80    0.34
  -2   2   0    3.42    0.23
   1  -2   0  152.47    2.84
   1  -2   0  150.78    2.80
   1  -2   0  148.43    2.99
   1  -2   0  146.02    2.63
  -1   2   0  151.80    2.65
  -1   2   0  151.42    2.81
  -1   2   0  143.73    2.96
  -1   2   0  150.61    2.86
   0  -2   0  609.26   10.53
   0   2   0  619.93   10.48
   0   2   0  622.32   10.54
  -1  -2   0  190.09    3.15
  -1  -2   0  159.81    3.09
  -2  -2   0    0.77    0.15
  -2  -2   0    0.46    0.16
  -2  -2   0    0.79    0.19
  -3  -2   0   11.21    0.54
  -3  -2   0   12.58    0.66
  -3  -2   0   11.25    0.48
  -4  -2   0    5.54    0.75
  -4  -2   0    6.00    0.68
  -4  -2   0    5.56    0.57
  -5  -2   0    1.63    0.67
  -5  -2   0    1.88    0.53
  -5  -2   0    2.51    0.71
  -5   3   0    3.69    0.86
  -5   3   0    5.44    1.16
  -5   3   0    3.04    1.37
  -5   3   0    3.68    0.49
   4  -3   0    2.56    0.81
  -4   3   0    1.68    0.33
  -4   3   0    1.71    0.66
  -4   3   0    1.80    0.54
  -4   3   0    1.67    0.51
   3  -3   0    2.60    0.37
   3  -3   0    2.54    0.32
   3  -3   0    1.97    0.51
  -3   3   0    3.06    0.44
  -3   3   0    3.13    0.45
  -3   3   0    2.27    0.31
  -3   3   0    2.73    0.56
   2  -3   0   61.03    1.46
   2  -3   0   60.49    1.27
   2  -3   0   61.21    1.81
   2  -3   0   63.70    1.54
  -2   3   0   59.33    1.77
  -2   3   0   62.49    1.27
  -2   3   0   60.35    1.58
  -2   3   0   63.04    1.53
   1  -3   0   15.71    0.71
   1  -3   0   16.08    0.65
   1  -3   0   15.53    0.58
   1  -3   0   15.21    0.47
  -1   3   0   15.21    0.50
  -1   3   0   15.13    0.68
  -1   3   0   16.19    0.59
  -1   3   0   15.62    0.63
   0  -3   0  105.29    2.08
   0  -3   0  109.87    2.19
   0  -3   0  106.59    2.10
   0   3   0  104.38    2.07
   0   3   0  106.90    2.17
   0   3   0  108.64    2.06
  -1  -3   0  175.14    3.18
  -1  -3   0  181.69    3.32
   1   3   0  179.18    3.22
   1   3   0  175.95    3.12
  -2  -3   0    6.37    0.30
  -2  -3   0    6.98    0.42
  -3  -3   0    2.35    0.30
  -3  -3   0    2.17    0.31
  -4  -3   0   10.36    0.78
  -4  -3   0    8.68    0.76
  -4  -3   0    9.77    0.62
  -5  -3   0    1.97    0.51
  -5  -3   0    2.56    0.75
  -5  -3   0    2.24    0.67
  -5   4   0   -0.05    0.98
  -5   4   0    1.13    0.82
  -5   4   0   -0.86    0.81
   4  -4   0    0.43    0.39
   4  -4   0    0.23    0.74
  -4   4   0   -0.22    0.52
  -4   4   0   -0.04    0.51
  -4   4   0   -0.45    0.60
   3  -4   0    1.13    0.37
   3  -4   0    1.01    0.55
   3  -4   0    0.64    0.29
  -3   4   0    1.24    0.39
  -3   4   0    0.99    0.41
  -3   4   0    0.34    0.46
  -3   4   0    1.38    0.24
   2  -4   0    0.73    0.35
   2  -4   0    1.07    0.32
   2  -4   0    0.60    0.25
   2  -4   0    0.46    0.15
  -2   4   0    0.67    0.34
  -2   4   0    0.47    0.27
  -2   4   0    0.77    0.19
  -2   4   0    0.93    0.30
   1  -4   0  211.58    4.13
   1  -4   0  216.34    4.22
   1  -4   0  220.15    3.99
   1  -4   0  220.34    4.34
  -1   4   0  217.31    4.24
  -1   4   0  214.56    4.29
   0  -4   0  121.77    2.51
   0  -4   0  129.92    2.65
   0  -4   0  127.80    2.65
   0  -4   0  131.77    2.56
   0   4   0  126.30    2.61
   0   4   0  127.12    2.46
   0   4   0  123.17    2.48
  -1  -4   0    3.60    0.27
  -1  -4   0    3.99    0.39
   1   4   0    3.66    0.24
   1   4   0    3.10    0.32
  -2  -4   0    3.95    0.28
  -2  -4   0    4.07    0.44
  -3  -4   0   14.35    0.72
  -3  -4   0   14.11    0.55
  -4  -4   0    0.79    0.48
  -4  -4   0    1.20    0.32
  -5  -4   0    1.33    0.51
  -5   5   0    2.76    1.11
  -5   5   0    3.30    1.01
   4  -5   0  189.29    3.89
   4  -5   0  188.30    4.87
   4  -5   0  188.87    3.81
  -4   5   0  187.65    4.76
  -4   5   0  187.40    4.24
  -4   5   0  190.67    4.38
   3  -5   0  146.69    3.30
   3  -5   0  146.53    3.82
   3  -5   0  148.32    3.19
  -3   5   0  148.28    2.84
  -3   5   0  145.76    3.46
  -3   5   0  146.75    3.76
  -3   5   0  151.54    3.36
   2  -5   0    9.32    0.91
   2  -5   0    9.06    0.63
   2  -5   0    9.89    0.43
   2  -5   0   11.12    0.76
  -2   5   0    8.99    0.74
  -2   5   0    8.94    0.82
  -2   5   0    9.46    0.51
   1  -5   0  118.30    2.46
   1  -5   0  120.72    2.71
   1  -5   0  119.60    2.61
   1  -5   0  123.27    2.80
  -1   5   0  119.21    2.73
  -1   5   0  116.61    2.70
  -1   5   0  117.97    2.55
   0  -5   0    7.41    0.47
   0  -5   0    6.35    0.53
   0  -5   0    6.91    0.52
   0  -5   0    7.33    0.50
   0   5   0    6.23    0.52
   0   5   0    6.67    0.41
   0   5   0    6.85    0.43
  -1  -5   0   30.65    0.89
  -1  -5   0   30.34    1.02
   1   5   0   30.53    0.77
   1   5   0   30.39    0.93
  -2  -5   0   10.72    0.49
  -2  -5   0   10.71    0.64
  -3  -5   0   25.10    0.99
  -3  -5   0   24.67    0.79
  -4  -5   0   13.27    1.46
  -4  -5   0   13.94    0.72
  -5  -5   0    2.19    0.56
  -5   6   0   -1.87    1.04
  -5   6   0    0.00    1.04
   4  -6   0   -1.09    1.17
   4  -6   0    1.03    0.51
   4  -6   0    0.84    0.65
  -4   6   0    1.46    0.69
  -4   6   0    0.72    0.68
  -4   6   0    0.27    0.74
   3  -6   0    9.04    0.49
   3  -6   0    8.78    0.95
   3  -6   0    7.71    0.97
   3  -6   0    9.74    0.82
  -3   6   0    8.51    0.88
  -3   6   0    7.65    1.03
  -3   6   0    9.74    0.99
   2  -6   0   26.93    1.21
   2  -6   0   26.35    0.83
   2  -6   0   27.86    1.41
   2  -6   0   28.18    1.12
  -2   6   0   27.59    1.12
  -2   6   0   26.66    1.24
  -2   6   0   26.23    1.29
   1  -6   0   10.29    0.68
   1  -6   0    9.74    0.81
   1  -6   0   10.48    0.60
  -1   6   0   10.81    0.77
  -1   6   0   11.27    0.75
   0  -6   0  124.84    2.89
   0  -6   0  127.43    2.89
   0  -6   0  129.19    2.78
   0  -6   0  129.09    2.77
   0   6   0  130.13    2.64
   0   6   0  127.26    2.65
   0   6   0  126.71    2.86
  -1  -6   0  108.24    2.52
  -1  -6   0  105.59    2.34
   1   6   0  107.10    2.37
   1   6   0  107.91    2.14
  -2  -6   0   18.97    0.92
  -2  -6   0   19.74    0.75
  -3  -6   0   10.29    1.30
  -3  -6   0   13.42    0.66
  -4  -6   0   11.25    0.78
  -5   7   0   15.20    1.83
  -5   7   0   11.16    1.53
   4  -7   0   -0.17    0.75
   4  -7   0    0.73    0.58
  -4   7   0    0.73    0.80
  -4   7   0    1.57    1.39
  -4   7   0   -0.09    0.91
   3  -7   0  135.92    3.36
   3  -7   0  132.60    2.69
   3  -7   0  134.01    3.21
   3  -7   0  136.23    3.84
  -3   7   0  131.47    3.66
  -3   7   0  135.21    3.31
   2  -7   0    1.01    0.30
   2  -7   0    0.95    0.58
   2  -7   0    1.25    0.43
   2  -7   0    1.05    0.50
  -2   7   0    1.07    0.47
  -2   7   0    2.02    0.56
  -2   7   0    0.96    0.45
   1  -7   0   71.00    1.85
   1  -7   0   69.70    2.07
   1  -7   0   69.83    1.96
   1  -7   0   69.92    2.16
  -1   7   0   68.86    2.00
  -1   7   0   70.51    2.09
  -1   7   0   71.43    1.87
   0  -7   0    1.78    0.37
   0  -7   0    2.00    0.46
   0  -7   0    1.33    0.34
   0  -7   0    1.28    0.39
   0   7   0    1.93    0.34
   0   7   0    1.55    0.43
  -1  -7   0   14.73    0.91
  -1  -7   0   13.72    0.75
  -1  -7   0   14.14    0.98
   1   7   0   15.33    0.84
   1   7   0   14.23    0.60
  -2  -7   0    0.06    0.43
  -2  -7   0    0.71    0.29
  -3  -7   0    1.83    0.56
  -3  -7   0    1.29    0.39
  -4  -7   0   22.85    1.10
  -5   8   0    1.58    1.35
  -5   8   0   -1.86    1.96
   4  -8   0    0.99    0.70
   4  -8   0    0.98    0.93
  -4   8   0    1.00    0.99
  -4   8   0    0.61    0.91
   3  -8   0   40.10    1.83
   3  -8   0   39.14    1.17
   3  -8   0   41.17    1.88
   3  -8   0   42.03    2.26
  -3   8   0   37.61    1.69
  -3   8   0   41.14    2.00
  -3   8   0   40.30    1.93
   2  -8   0    3.47    0.49
   2  -8   0    4.49    0.84
   2  -8   0    4.53    0.72
   2  -8   0    4.01    0.64
  -2   8   0    3.62    0.73
  -2   8   0    3.52    0.58
  -2   8   0    2.93    0.68
   1  -8   0    1.53    0.41
   1  -8   0    0.81    0.53
   1  -8   0    1.22    0.53
   1  -8   0    1.90    0.43
  -1   8   0    1.47    0.52
  -1   8   0    1.53    0.48
  -1   8   0    1.56    0.41
   0  -8   0    1.52    0.38
   0  -8   0    0.07    0.39
   0  -8   0    1.38    0.46
   0  -8   0    1.06    0.50
   0   8   0    0.93    0.34
   0   8   0    0.76    0.32
   0   8   0    1.43    0.48
  -1  -8   0    0.46    0.49
  -1  -8   0    0.28    0.41
  -1  -8   0   -0.19    0.30
   1   8   0    0.78    0.26
   1   8   0   -0.54    0.40
  -2  -8   0   14.56    0.88
  -2  -8   0   15.67    1.13
  -3  -8   0    0.26    0.68
  -3  -8   0   -0.76    0.41
  -4  -8   0    0.02    0.96
   4  -9   0   40.67    1.96
   4  -9   0   38.10    2.33
  -4   9   0   41.51    2.55
  -4   9   0   42.00    2.47
   3  -9   0    0.04    0.61
   3  -9   0    0.27    0.84
   3  -9   0   -0.04    0.37
  -3   9   0    0.67    0.82
  -3   9   0    0.45    0.85
   2  -9   0    4.32    0.94
   2  -9   0    7.72    0.99
   2  -9   0    7.42    0.96
   2  -9   0    6.51    0.70
  -2   9   0    6.91    0.97
  -2   9   0    5.18    0.72
  -2   9   0    6.94    1.25
   1  -9   0    4.49    0.75
   1  -9   0    4.21    0.79
   1  -9   0    5.59    0.75
  -1   9   0    5.09    0.65
  -1   9   0    5.88    0.78
  -1   9   0    3.99    0.64
   0  -9   0   15.82    1.09
   0  -9   0   14.12    1.20
   0  -9   0   15.26    0.99
   0  -9   0   15.25    1.05
   0   9   0   13.49    1.15
   0   9   0   15.26    0.88
   0   9   0   16.00    0.87
  -1  -9   0    1.95    0.48
  -1  -9   0    1.43    0.62
  -1  -9   0    1.25    0.55
   1   9   0    0.93    0.34
   1   9   0    1.50    0.55
  -2  -9   0   28.06    1.55
  -2  -9   0   26.82    1.67
  -2  -9   0   31.33    1.32
  -3  -9   0    0.26    0.54
  -3  -9   0    0.74    0.88
  -3  -9   0    0.79    0.81
  -4  -9   0    2.55    1.23
   4 -10   0   21.24    1.94
  -4  10   0   30.35    2.52
  -4  10   0   28.66    2.48
   3 -10   0    0.42    0.76
   3 -10   0   -0.24    0.45
  -3  10   0    0.18    0.95
  -3  10   0    1.21    0.97
   2 -10   0    7.61    0.95
   2 -10   0    8.15    1.16
   2 -10   0    7.69    0.84
  -2  10   0    8.64    1.10
  -2  10   0   10.42    1.29
   1 -10   0    1.70    0.59
   1 -10   0    0.59    0.55
   1 -10   0    0.62    0.77
   1 -10   0    0.17    0.74
  -1  10   0    1.18    0.58
  -1  10   0    0.30    0.72
  -1  10   0    1.28    0.57
   0 -10   0   84.32    2.73
   0 -10   0   88.71    2.66
   0 -10   0   84.62    2.76
   0 -10   0   86.47    2.56
   0  10   0   88.63    2.62
   0  10   0   86.07    2.22
   0  10   0   83.44    2.15
  -1 -10   0   34.46    1.54
  -1 -10   0   33.45    1.78
  -1 -10   0   34.58    1.78
   1  10   0   33.42    1.18
   1  10   0   32.51    1.53
  -2 -10   0    4.97    1.00
  -2 -10   0    2.97    0.93
  -2 -10   0    4.33    0.76
  -3 -10   0    0.68    0.94
  -3 -10   0    0.10    0.71
   3 -11   0   21.60    1.23
   3 -11   0   22.55    1.82
  -3  11   0   20.21    2.22
  -3  11   0   25.65    2.18
   2 -11   0    2.00    0.80
   2 -11   0    1.11    0.62
  -2  11   0    1.21    0.96
  -2  11   0    1.22    0.85
   1 -11   0    1.65    0.65
   1 -11   0    3.71    0.96
   1 -11   0    1.44    0.70
  -1  11   0    3.23    0.72
  -1  11   0    1.19    0.83
   0 -11   0    2.14    0.80
   0 -11   0    2.83    0.76
   0 -11   0    4.42    0.85
   0  11   0    3.58    0.84
   0  11   0    2.71    0.56
   0  11   0    2.12    0.59
  -1 -11   0   36.81    1.81
  -1 -11   0   37.09    2.05
   1  11   0   35.64    1.77
   1  11   0   35.01    1.32
  -2 -11   0    4.62    1.11
  -2 -11   0    2.70    0.82
   3 -12   0    1.91    1.14
  -3  12   0    2.51    1.26
   2 -12   0   -0.10    0.93
   2 -12   0    1.63    0.78
  -2  12   0    4.79    1.27
  -2  12   0   -0.14    0.98
   1 -12   0    2.24    1.17
   1 -12   0    1.98    0.88
   1 -12   0    1.45    0.82
  -1  12   0    3.38    1.10
  -1  12   0    1.55    0.85
   0 -12   0   14.32    1.54
   0 -12   0   11.94    1.46
   0 -12   0   11.42    1.58
   0  12   0   12.31    1.37
   0  12   0   12.78    1.11
  -1 -12   0   -1.23    0.78
  -1 -12   0   -1.48    0.89
   1  12   0   -0.55    1.28
  -2 -12   0   -0.30    0.99
  -2 -12   0   -0.27    1.19
   1 -13   0   -0.60    0.97
   1 -13   0    0.12    0.98
  -1  13   0   -0.51    0.98
  -1  13   0    0.80    1.28
   0 -13   0    0.69    0.97
   0 -13   0    1.24    1.03
   0  13   0    1.90    1.32
   1  13  -1   -0.06    1.20
  -1 -13   1   -0.21    1.00
  -1 -13   1    2.73    1.09
   0  13  -1    1.01    1.26
   0 -13   1    3.93    1.13
   0 -13   1    1.40    1.03
  -1  13  -1    9.96    1.24
  -1  13  -1    9.55    1.53
   1 -13   1    9.68    1.25
   1 -13   1    8.12    1.22
  -2  13  -1    1.91    1.18
   2 -13   1    3.98    1.09
  -2 -12   1    4.01    1.08
  -2 -12   1    2.79    1.19
   1  12  -1    1.32    0.93
   1  12  -1   -0.40    0.75
  -1 -12   1    1.24    0.92
  -1 -12   1    0.79    0.83
   0  12  -1    1.70    0.72
   0  12  -1    0.89    0.60
   0  12  -1    2.59    0.99
   0 -12   1    2.97    0.90
   0 -12   1    1.59    0.84
   0 -12   1    1.92    0.99
  -1  12  -1    0.90    0.77
  -1  12  -1   -1.28    0.94
   1 -12   1   -0.80    1.09
   1 -12   1    0.04    0.76
   1 -12   1   -0.07    0.72
  -2  12  -1   -0.25    1.16
  -2  12  -1    2.27    1.01
   2 -12   1    0.50    0.73
   2 -12   1    1.42    0.90
  -3  12  -1   -0.45    1.22
  -3  12  -1   -0.67    1.57
   3 -12   1    1.17    1.06
  -3 -11   1    5.36    1.06
  -3 -11   1    5.34    2.16
  -2 -11   1   26.06    2.03
  -2 -11   1   20.62    1.59
   1  11  -1   25.36    1.54
   1  11  -1   27.05    1.13
  -1 -11   1   24.69    1.76
  -1 -11   1   26.77    1.57
   0  11  -1   39.58    1.90
   0  11  -1   40.64    1.44
   0  11  -1   39.15    1.51
   0 -11   1   38.71    1.81
   0 -11   1   40.91    1.83
   0 -11   1   38.46    1.83
  -1  11  -1   22.43    2.12
  -1  11  -1   19.18    1.35
  -1  11  -1   20.52    1.66
   1 -11   1   16.35    1.22
   1 -11   1   17.20    1.41
   1 -11   1   15.59    1.69
  -2  11  -1    1.22    0.85
  -2  11  -1    1.17    0.97
   2 -11   1    0.65    0.58
   2 -11   1    2.65    0.78
  -3  11  -1   29.03    2.27
  -3  11  -1   28.07    2.33
   3 -11   1   28.10    1.37
   3 -11   1   31.31    1.93
  -3 -10   1   15.94    1.38
  -3 -10   1   16.29    1.74
  -3 -10   1   15.67    1.85
  -2 -10   1    4.73    0.92
  -2 -10   1    3.92    0.94
  -2 -10   1    4.92    0.77
   1  10  -1   41.92    1.28
   1  10  -1   40.69    1.61
  -1 -10   1   40.09    1.88
  -1 -10   1   41.60    1.92
  -1 -10   1   40.07    1.66
  -1 -10   1   40.88    1.35
   0  10  -1    0.38    0.40
   0  10  -1   -0.48    0.43
   0  10  -1    0.63    0.60
   0 -10   1   -0.03    0.65
   0 -10   1   -0.22    0.51
   0 -10   1   -0.18    0.71
   0 -10   1    0.22    0.47
  -1  10  -1  129.21    3.26
  -1  10  -1  131.23    3.18
  -1  10  -1  130.22    3.53
   1 -10   1  133.15    3.46
   1 -10   1  128.35    3.60
   1 -10   1  133.02    3.61
   1 -10   1  135.16    3.31
  -2  10  -1   -0.21    0.76
  -2  10  -1    0.77    0.70
   2 -10   1    0.51    0.45
   2 -10   1    1.95    1.02
   2 -10   1    1.36    0.60
  -3  10  -1    2.53    1.05
  -3  10  -1    0.18    0.88
   3 -10   1   -0.59    0.69
   3 -10   1    0.93    0.52
  -4  10  -1    2.99    1.38
  -4  10  -1    5.64    1.42
   4 -10   1    4.02    1.13
  -4  -9   1    0.18    1.08
  -4  -9   1    0.23    0.76
  -3  -9   1   15.67    1.12
  -3  -9   1   19.13    1.63
  -3  -9   1   17.08    1.47
  -2  -9   1    2.58    0.55
  -2  -9   1    1.30    0.72
  -2  -9   1    1.99    0.69
   1   9  -1   17.92    1.10
   1   9  -1   17.82    0.89
  -1  -9   1   17.58    1.25
  -1  -9   1   19.30    1.07
  -1  -9   1   18.07    0.89
  -1  -9   1   18.25    1.27
   0   9  -1    2.85    0.63
   0   9  -1    1.47    0.39
   0   9  -1    1.61    0.41
   0  -9   1    1.65    0.55
   0  -9   1    1.81    0.54
   0  -9   1    2.63    0.54
   0  -9   1    1.49    0.60
  -1   9  -1    6.62    0.87
  -1   9  -1    7.02    0.86
  -1   9  -1    7.37    0.82
   1  -9   1    6.91    0.89
   1  -9   1    8.03    1.14
   1  -9   1    6.83    0.94
   1  -9   1    6.32    0.78
  -2   9  -1   31.56    1.45
  -2   9  -1   36.92    1.75
   2  -9   1   32.97    1.93
   2  -9   1   35.23    1.55
   2  -9   1   33.17    1.25
   2  -9   1   34.11    1.74
  -3   9  -1    5.71    1.02
  -3   9  -1    3.91    0.96
   3  -9   1    6.55    1.04
   3  -9   1    5.81    0.70
   3  -9   1    5.51    0.83
  -4   9  -1    2.70    1.13
  -4   9  -1    6.20    1.28
   4  -9   1    3.95    0.90
   4  -9   1    2.87    1.31
  -4  -8   1    2.85    1.08
  -4  -8   1    2.46    0.63
  -3  -8   1    6.68    1.01
  -3  -8   1    9.16    0.82
  -3  -8   1    8.32    1.10
  -2  -8   1   -0.44    0.46
  -2  -8   1    0.28    0.52
  -2  -8   1   -0.12    0.32
   1   8  -1    8.03    0.52
   1   8  -1    7.79    0.78
  -1  -8   1    9.00    0.89
  -1  -8   1    7.26    0.63
  -1  -8   1    9.16    0.89
  -1  -8   1    7.68    0.69
   0   8  -1    8.66    0.65
   0   8  -1    9.66    0.67
   0   8  -1   10.21    0.91
   0  -8   1    9.81    0.82
   0  -8   1    9.64    0.93
   0  -8   1    9.54    0.77
   0  -8   1    9.68    0.84
  -1   8  -1   25.52    1.20
  -1   8  -1   21.85    1.04
  -1   8  -1   25.43    1.30
   1  -8   1   24.74    1.16
   1  -8   1   25.47    1.11
   1  -8   1   25.35    1.30
   1  -8   1   26.20    1.37
  -2   8  -1   84.38    2.39
  -2   8  -1   88.03    2.64
  -2   8  -1   93.09    2.67
   2  -8   1   91.64    2.65
   2  -8   1   91.12    2.51
   2  -8   1   89.70    2.87
   2  -8   1   89.58    2.16
  -3   8  -1    2.59    0.77
  -3   8  -1    4.70    0.86
  -3   8  -1    2.95    0.74
   3  -8   1    2.26    0.79
   3  -8   1    3.35    0.46
   3  -8   1    4.60    1.02
  -4   8  -1    6.16    1.21
  -4   8  -1    5.89    1.14
   4  -8   1    3.01    0.78
   4  -8   1    2.71    0.96
  -5   8  -1    4.69    1.45
  -5   8  -1    7.56    2.59
  -4  -7   1   19.38    1.75
  -4  -7   1   22.62    1.38
  -4  -7   1   20.23    1.02
  -3  -7   1   31.14    1.09
  -3  -7   1   30.47    1.32
  -2  -7   1    0.72    0.31
  -2  -7   1    0.98    0.50
  -2  -7   1    1.18    0.50
   1   7  -1    4.04    0.38
   1   7  -1    3.99    0.47
  -1  -7   1    3.51    0.45
  -1  -7   1    3.58    0.55
  -1  -7   1    4.26    0.47
  -1  -7   1    2.53    0.52
   0   7  -1   22.57    0.86
   0   7  -1   22.96    1.06
   0   7  -1   22.58    0.87
   0  -7   1   22.58    1.06
   0  -7   1   23.11    1.00
   0  -7   1   21.58    0.96
   0  -7   1   23.23    1.10
  -1   7  -1    2.72    0.45
  -1   7  -1    2.61    0.47
  -1   7  -1    2.22    0.48
   1  -7   1    2.10    0.43
   1  -7   1    2.61    0.61
   1  -7   1    3.38    0.55
   1  -7   1    2.54    0.42
  -2   7  -1  117.47    3.12
  -2   7  -1  122.43    2.91
  -2   7  -1  120.60    3.09
   2  -7   1  121.03    2.59
   2  -7   1  120.36    2.94
   2  -7   1  124.12    3.32
   2  -7   1  117.21    3.02
  -3   7  -1    0.54    0.52
  -3   7  -1   -0.15    0.59
   3  -7   1    0.28    0.63
   3  -7   1    1.73    0.52
   3  -7   1    1.05    0.33
   3  -7   1    1.67    0.80
  -4   7  -1    0.69    0.83
  -4   7  -1   -0.90    0.79
   4  -7   1   -1.12    0.76
   4  -7   1   -0.06    0.57
  -5   7  -1    9.75    1.49
  -5   7  -1    6.30    1.37
  -5  -6   1    0.26    1.14
  -4  -6   1   36.95    1.15
  -3  -6   1    0.30    0.26
  -3  -6   1    0.83    0.42
  -2  -6   1    0.95    0.35
  -2  -6   1    1.41    0.26
   1   6  -1    3.23    0.38
   1   6  -1    3.06    0.30
  -1  -6   1    2.73    0.47
  -1  -6   1    3.15    0.44
  -1  -6   1    3.25    0.36
  -1  -6   1    3.86    0.41
   0   6  -1  259.98    5.09
   0   6  -1  260.40    4.88
   0   6  -1  262.82    4.88
   0  -6   1  263.59    5.04
   0  -6   1  260.82    5.16
   0  -6   1  257.62    5.02
   0  -6   1  265.93    5.17
  -1   6  -1   -0.02    0.29
  -1   6  -1   -0.04    0.27
  -1   6  -1    0.20    0.27
   1  -6   1    0.05    0.24
   1  -6   1   -0.25    0.31
   1  -6   1    0.09    0.22
  -2   6  -1   25.65    1.25
  -2   6  -1   25.90    0.93
  -2   6  -1   25.58    1.08
  -2   6  -1   24.27    1.18
   2  -6   1   24.56    1.07
   2  -6   1   25.81    0.84
   2  -6   1   24.82    1.34
   2  -6   1   24.11    1.16
  -3   6  -1   15.22    0.76
  -3   6  -1   15.53    1.02
  -3   6  -1   15.97    1.19
  -3   6  -1   17.46    1.13
   3  -6   1   17.66    1.12
   3  -6   1   13.73    1.35
   3  -6   1   15.43    0.96
   3  -6   1   15.47    0.67
  -4   6  -1  127.52    3.42
  -4   6  -1  127.78    3.72
  -4   6  -1  120.74    3.22
  -4   6  -1  119.52    2.53
   4  -6   1  120.60    2.89
   4  -6   1  121.61    4.30
   4  -6   1  122.97    3.05
  -5   6  -1    7.85    1.28
  -5   6  -1    6.54    1.38
  -5  -5   1    0.38    1.01
  -5  -5   1    0.17    0.47
  -4  -5   1    4.23    0.51
  -4  -5   1    5.01    0.63
  -3  -5   1   25.65    0.96
  -3  -5   1   25.82    0.77
  -2  -5   1    3.21    0.39
  -2  -5   1    2.76    0.31
   1   5  -1   23.33    0.62
   1   5  -1   22.94    0.74
  -1  -5   1   23.52    0.87
  -1  -5   1   23.46    0.75
  -1  -5   1   23.67    0.67
   0   5  -1  123.02    2.47
   0   5  -1  122.34    2.61
   0   5  -1  123.53    2.46
   0  -5   1  121.03    2.65
   0  -5   1  121.95    2.65
   0  -5   1  121.30    2.56
   0  -5   1  117.86    2.54
  -1   5  -1   17.33    0.72
  -1   5  -1   16.39    0.81
  -1   5  -1   17.70    0.75
  -1   5  -1   17.16    0.82
   1  -5   1   17.40    0.89
   1  -5   1   16.10    0.74
   1  -5   1   16.94    0.66
   1  -5   1   17.09    0.83
  -2   5  -1    9.37    0.80
  -2   5  -1    9.71    0.75
  -2   5  -1    8.26    0.83
  -2   5  -1    9.05    0.53
   2  -5   1    8.72    0.73
   2  -5   1    9.08    0.64
   2  -5   1   10.15    0.89
   2  -5   1    9.47    0.45
  -3   5  -1   36.43    1.61
  -3   5  -1   36.88    1.05
  -3   5  -1   34.18    1.42
  -3   5  -1   38.48    1.39
   3  -5   1   32.49    1.68
   3  -5   1   35.32    1.25
   3  -5   1   34.79    1.01
  -4   5  -1   74.79    1.73
  -4   5  -1   77.14    2.70
  -4   5  -1   76.23    2.39
  -4   5  -1   71.45    2.26
   4  -5   1   73.42    1.92
   4  -5   1   72.45    2.03
   4  -5   1   74.56    2.83
  -5   5  -1   11.22    1.53
  -5   5  -1   17.33    1.74
  -5  -4   1    1.10    0.46
  -4  -4   1   22.67    0.98
  -4  -4   1   22.37    0.93
  -4  -4   1   21.38    0.77
  -3  -4   1   -0.32    0.26
  -3  -4   1   -0.05    0.16
  -2  -4   1    2.95    0.33
  -2  -4   1    2.63    0.23
   1   4  -1    2.26    0.19
   1   4  -1    2.46    0.26
  -1  -4   1    1.95    0.28
  -1  -4   1    2.31    0.22
   0   4  -1   82.96    1.86
   0   4  -1   85.62    1.77
   0   4  -1   85.57    1.76
   0  -4   1   84.51    1.90
   0  -4   1   83.53    1.90
   0  -4   1   86.12    1.83
   0  -4   1   85.07    1.83
  -1   4  -1  272.85    5.24
  -1   4  -1  276.43    5.10
  -1   4  -1  275.45    5.20
  -1   4  -1  275.41    5.01
   1  -4   1  275.52    5.19
   1  -4   1  270.79    5.11
   1  -4   1  278.56    5.32
   1  -4   1  272.20    4.96
  -2   4  -1   83.82    2.11
  -2   4  -1   88.04    1.81
  -2   4  -1   86.05    2.04
  -2   4  -1   85.91    2.28
   2  -4   1   85.38    1.76
   2  -4   1   83.93    2.33
   2  -4   1   86.33    2.00
   2  -4   1   87.53    2.09
  -3   4  -1    2.33    0.31
  -3   4  -1    2.16    0.57
  -3   4  -1    1.82    0.44
  -3   4  -1    2.69    0.50
   3  -4   1    1.58    0.60
   3  -4   1    2.08    0.37
   3  -4   1    1.23    0.40
  -4   4  -1   77.24    2.28
  -4   4  -1   75.53    1.71
  -4   4  -1   72.41    2.61
  -4   4  -1   72.21    2.19
   4  -4   1   73.50    2.69
   4  -4   1   75.31    1.85
   4  -4   1   71.01    1.74
  -5   4  -1    0.88    1.00
  -5   4  -1   -1.55    0.85
  -5   4  -1    0.35    0.85
  -5  -3   1    0.99    0.46
  -5  -3   1    1.54    0.70
  -4  -3   1    0.11    0.26
  -4  -3   1   -0.39    0.36
  -4  -3   1    0.42    0.45
  -3  -3   1    0.06    0.25
  -3  -3   1    0.67    0.24
  -2  -3   1    9.97    0.34
  -2  -3   1   10.19    0.46
  -2  -3   1    9.99    0.42
  -1  -3   1   34.13    0.84
  -1  -3   1   34.07    0.75
   0   3  -1   85.03    1.76
   0   3  -1   83.96    1.68
   0   3  -1   85.45    1.70
   0  -3   1   84.55    1.72
   0  -3   1   83.94    1.73
   0  -3   1   87.72    1.80
   0  -3   1   83.85    1.79
  -1   3  -1  281.87    5.08
  -1   3  -1  276.26    5.21
  -1   3  -1  275.45    5.14
  -1   3  -1  280.15    4.95
   1  -3   1  281.78    5.27
   1  -3   1  281.80    5.14
   1  -3   1  277.36    5.08
   1  -3   1  275.57    4.92
  -2   3  -1   11.48    0.75
  -2   3  -1   12.26    0.46
  -2   3  -1   11.56    0.60
  -2   3  -1   10.82    0.64
   2  -3   1   12.12    0.64
   2  -3   1   11.20    0.77
   2  -3   1   11.92    0.56
   2  -3   1   11.49    0.46
  -3   3  -1   43.66    1.43
  -3   3  -1   46.54    1.13
  -3   3  -1   44.85    1.39
  -3   3  -1   43.23    1.66
   3  -3   1   47.24    1.76
   3  -3   1   46.10    1.30
   3  -3   1   43.62    1.20
  -4   3  -1    3.40    0.73
  -4   3  -1    2.98    0.61
  -4   3  -1    4.16    0.54
  -4   3  -1    2.88    0.55
   4  -3   1    5.06    0.87
  -5   3  -1   60.52    2.22
  -5   3  -1   54.53    2.14
  -5   3  -1   58.95    1.63
  -5   3  -1   58.17    2.51
  -5  -2   1   10.06    1.25
  -5  -2   1    8.83    0.87
  -4  -2   1   41.84    1.55
  -4  -2   1   44.06    1.18
  -4  -2   1   44.48    1.24
  -3  -2   1   27.09    1.03
  -2  -2   1   38.48    1.03
   1   2  -1  128.08    5.61
  -1  -2   1  132.71    5.42
   0   2  -1   44.52    0.92
   0   2  -1   43.66    0.99
   0   2  -1   43.65    0.96
   0  -2   1   43.97    0.94
   0  -2   1   44.21    0.99
   0  -2   1   44.49    0.94
   0  -2   1   44.64    0.98
  -1   2  -1  141.14    2.83
  -1   2  -1  144.42    2.71
  -1   2  -1  141.15    2.74
  -1   2  -1  143.44    2.58
   1  -2   1  138.31    2.57
   1  -2   1  144.32    2.87
   1  -2   1  143.84    2.74
   1  -2   1  139.08    2.68
  -2   2  -1   10.83    0.67
  -2   2  -1   11.99    0.57
  -2   2  -1   10.44    0.53
  -2   2  -1   10.37    0.42
   2  -2   1   11.16    0.71
   2  -2   1   11.32    0.47
   2  -2   1   10.81    0.54
  -3   2  -1   69.96    1.82
  -3   2  -1   72.76    2.12
  -3   2  -1   73.92    1.81
  -3   2  -1   72.28    1.62
   3  -2   1   71.33    1.54
   3  -2   1   74.25    1.61
   3  -2   1   68.18    2.42
  -4   2  -1    6.46    0.83
  -4   2  -1    6.60    0.81
  -4   2  -1    4.39    0.78
  -4   2  -1    5.64    0.59
   4  -2   1    5.32    0.87
  -5   2  -1   35.90    1.70
  -5   2  -1   33.67    1.69
  -5   2  -1   36.25    2.01
   5  -2   1   32.96    2.25
  -5  -1   1    3.24    0.81
  -5  -1   1    3.37    0.61
  -5  -1   1    3.62    0.82
  -5  -1   1    3.96    0.68
  -4  -1   1    2.27    0.39
  -4  -1   1    1.87    0.56
  -4  -1   1    2.16    0.38
   3   1  -1   18.80    0.88
  -3  -1   1   18.25    0.61
  -3  -1   1   18.33    0.91
   2   1  -1   39.15    1.08
  -2  -1   1   38.62    1.11
   0  -1   1  836.51   18.32
  -1   1  -1  347.23    6.04
  -1   1  -1  349.74    6.18
  -1   1  -1  342.94    5.99
  -1   1  -1  348.35    6.07
   1  -1   1  356.30    6.21
   1  -1   1  341.50    6.01
   1  -1   1  346.24    6.01
   1  -1   1  352.81    6.06
  -2   1  -1    0.20    0.20
  -2   1  -1   -0.17    0.15
  -2   1  -1    0.09    0.14
  -2   1  -1    0.17    0.15
   2  -1   1    0.03    0.17
   2  -1   1    0.02    0.12
   2  -1   1   -0.05    0.22
  -3   1  -1   26.18    1.16
  -3   1  -1   28.68    0.94
  -3   1  -1   26.87    0.95
  -3   1  -1   26.43    0.90
   3  -1   1   29.25    1.25
  -4   1  -1   31.07    1.22
  -4   1  -1   32.32    1.16
  -4   1  -1   27.94    1.42
  -4   1  -1   30.26    1.44
   4  -1   1   34.24    1.60
  -5   1  -1    0.77    0.75
  -5   1  -1   -0.31    0.77
  -5   1  -1    0.70    0.60
  -5   1  -1    1.04    0.64
   5  -1   1    3.32    1.02
  -5   0   1    1.12    0.59
  -5   0   1    1.59    0.64
  -5   0   1    2.74    1.42
  -5   0   1    1.05    0.61
   4   0  -1   32.43    1.48
  -4   0   1   32.34    1.09
  -4   0   1   31.67    1.17
  -4   0   1   31.17    1.49
  -4   0   1   32.35    1.11
   3   0  -1   18.16    0.95
  -3   0   1   15.34    0.91
  -3   0   1   17.47    0.64
  -3   0   1   18.04    0.64
   2   0  -1   55.66    1.46
  -2   0   1   55.91    1.48
  -2   0   1   55.51    1.16
  -2   0   1   55.46    1.12
   1   0  -1   33.59    0.83
  -1   0   1   31.69    0.84
  -1   0  -1  232.33    4.45
  -1   0  -1  256.11    4.37
  -1   0  -1  259.68    4.47
   1   0   1  256.25    4.49
   1   0   1  242.06    4.35
   1   0   1  261.84    4.37
  -2   0  -1  125.01    2.39
  -2   0  -1  124.38    2.41
  -2   0  -1  121.97    2.60
   2   0   1  126.28    2.65
  -3   0  -1    5.50    0.47
  -3   0  -1    5.53    0.62
  -3   0  -1    4.83    0.47
   3   0   1    4.77    0.66
  -4   0  -1   16.49    1.08
  -4   0  -1   17.06    0.90
  -4   0  -1   17.19    0.93
  -4   0  -1   15.25    1.10
   4   0   1   16.35    1.23
  -5   0  -1    4.69    0.69
  -5   0  -1    3.98    0.80
  -5   0  -1    4.26    0.91
  -5   0  -1    2.94    0.75
   5   0   1    3.73    1.01
   5  -1  -1    9.08    1.18
  -5   1   1    9.14    1.12
  -5   1   1    9.76    0.88
  -5   1   1    8.77    1.14
  -5   1   1   11.00    1.17
   4  -1  -1   11.27    1.16
  -4   1   1   12.70    0.70
  -4   1   1   12.36    0.83
  -4   1   1   12.37    0.81
  -4   1   1   13.11    1.17
   3  -1  -1   82.76    2.25
  -3   1   1   82.03    1.75
  -3   1   1   82.11    1.87
  -3   1   1   84.84    1.84
  -3   1   1   79.07    2.26
   2  -1  -1    3.42    0.46
  -2   1   1    3.68    0.24
  -2   1   1    2.99    0.28
  -2   1   1    3.19    0.31
  -2   1   1    3.31    0.45
   1  -1  -1  250.24    4.62
   1  -1  -1  256.70    4.40
  -1   1   1  250.39    4.41
  -1   1   1  249.73    4.64
  -1   1   1  255.64    4.45
   0  -1  -1   90.61    1.64
   0  -1  -1   94.33    1.70
   0   1   1   89.36    1.63
   0   1   1   90.55    1.65
  -1  -1  -1   24.32    0.60
  -1  -1  -1   24.88    0.57
  -1  -1  -1   24.92    0.57
   1   1   1   24.41    0.56
   1   1   1   24.78    0.59
   1   1   1   24.15    0.58
  -2  -1  -1   44.62    1.14
  -2  -1  -1   43.95    1.03
  -2  -1  -1   45.39    1.03
   2   1   1   44.03    1.17
  -3  -1  -1   24.58    0.83
  -3  -1  -1   23.05    0.78
  -3  -1  -1   23.40    0.94
   3   1   1   23.53    0.99
  -4  -1  -1   11.79    0.80
  -4  -1  -1   12.15    0.91
  -4  -1  -1   10.80    0.73
  -5  -1  -1   19.71    1.34
  -5  -1  -1   21.01    1.18
  -5  -1  -1   20.16    1.47
  -5  -1  -1   21.67    1.49
   5  -2  -1    0.89    1.02
  -5   2   1    1.14    0.69
  -5   2   1    0.72    0.87
  -5   2   1    0.29    0.39
  -5   2   1    1.87    0.70
   4  -2  -1    2.90    0.71
  -4   2   1    2.89    0.53
  -4   2   1    3.50    0.78
  -4   2   1    2.46    0.35
  -4   2   1    2.19    0.65
   3  -2  -1   95.71    2.60
  -3   2   1  100.31    2.18
  -3   2   1  100.30    1.89
  -3   2   1   91.97    2.21
  -3   2   1   93.83    2.61
   2  -2  -1   59.11    1.28
   2  -2  -1   58.32    1.67
   2  -2  -1   59.13    1.32
  -2   2   1   59.12    1.38
  -2   2   1   58.28    1.43
  -2   2   1   57.59    1.68
   1  -2  -1   22.48    0.48
   1  -2  -1   22.48    0.79
   1  -2  -1   22.43    0.67
   1  -2  -1   21.96    0.63
  -1   2   1   22.32    0.64
  -1   2   1   21.67    0.68
  -1   2   1   21.71    0.77
   0  -2  -1  318.45    5.51
   0  -2  -1  315.92    5.52
   0  -2  -1  320.15    5.60
   0   2   1  319.80    5.49
   0   2   1  306.77    5.54
   0   2   1  326.69    5.61
  -1  -2  -1  788.61   13.43
  -2  -2  -1  473.36    8.16
  -2  -2  -1  471.37    8.12
   2   2   1  469.14    8.17
  -3  -2  -1    1.90    0.32
  -3  -2  -1    2.19    0.28
  -3  -2  -1    2.61    0.34
   3   2   1    2.51    0.38
  -4  -2  -1    5.80    0.61
  -4  -2  -1    6.26    0.75
  -4  -2  -1    6.74    0.75
  -5  -2  -1    0.99    0.65
  -5  -2  -1   -1.18    0.66
  -5  -2  -1   -0.70    0.86
  -5  -2  -1   -0.08    0.51
  -5   3   1   10.69    1.39
  -5   3   1    9.61    1.06
  -5   3   1    8.53    1.00
   4  -3  -1   90.23    2.89
  -4   3   1   95.28    2.91
  -4   3   1   95.44    2.49
  -4   3   1   94.31    2.40
   3  -3  -1   24.77    1.29
   3  -3  -1   24.06    0.76
   3  -3  -1   24.15    0.81
  -3   3   1   24.10    0.95
  -3   3   1   23.67    1.01
  -3   3   1   23.37    1.27
   2  -3  -1  205.98    4.28
   2  -3  -1  203.21    3.88
   2  -3  -1  201.85    3.82
  -2   3   1  202.40    4.01
  -2   3   1  195.18    4.25
  -2   3   1  204.16    3.91
   1  -3  -1    1.19    0.21
   1  -3  -1    1.19    0.16
   1  -3  -1    0.90    0.23
   1  -3  -1    1.04    0.28
  -1   3   1    0.87    0.19
  -1   3   1    0.94    0.22
  -1   3   1    0.74    0.23
   0  -3  -1  118.87    2.27
   0  -3  -1  116.58    2.26
   0  -3  -1  114.65    2.36
   0   3   1  115.35    2.27
   0   3   1  116.53    2.36
   0   3   1  118.63    2.23
  -1  -3  -1    6.10    0.29
  -1  -3  -1    5.95    0.41
   1   3   1    6.52    0.37
   1   3   1    6.38    0.29
  -2  -3  -1   26.45    0.70
  -2  -3  -1   26.81    0.83
  -3  -3  -1    9.20    0.48
  -3  -3  -1   10.60    0.63
  -3  -3  -1    9.13    0.48
  -4  -3  -1   13.30    0.77
  -4  -3  -1   13.52    0.72
  -4  -3  -1   13.73    0.90
  -5  -3  -1   20.28    1.09
  -5  -3  -1   20.87    1.46
  -5  -3  -1   21.09    1.17
  -5   4   1    1.65    0.85
  -5   4   1    1.54    1.08
  -5   4   1    0.41    0.84
   4  -4  -1   88.71    2.96
  -4   4   1   92.93    2.95
  -4   4   1   90.92    2.53
  -4   4   1   91.62    2.45
   3  -4  -1   24.33    0.91
   3  -4  -1   24.97    1.38
   3  -4  -1   24.12    0.95
  -3   4   1   24.25    1.14
  -3   4   1   26.16    1.07
  -3   4   1   25.59    1.38
   2  -4  -1   54.06    1.47
   2  -4  -1   53.81    1.74
   2  -4  -1   53.10    1.41
   2  -4  -1   51.75    1.09
  -2   4   1   53.94    1.45
  -2   4   1   51.73    1.72
  -2   4   1   51.59    1.54
   1  -4  -1   53.71    1.45
   1  -4  -1   54.36    1.25
   1  -4  -1   55.29    1.40
   1  -4  -1   57.44    1.58
  -1   4   1   55.07    1.54
  -1   4   1   54.00    1.48
   0  -4  -1  262.29    4.92
   0  -4  -1  271.28    5.06
   0  -4  -1  273.62    4.93
   0   4   1  265.57    4.89
   0   4   1  268.77    4.85
   0   4   1  274.38    5.05
  -1  -4  -1   29.13    0.79
  -1  -4  -1   29.52    0.94
   1   4   1   28.65    0.73
   1   4   1   28.33    0.86
  -2  -4  -1    7.68    0.39
  -2  -4  -1    7.39    0.53
  -3  -4  -1    0.12    0.20
  -4  -4  -1    0.91    0.58
  -4  -4  -1    0.57    0.34
  -5  -4  -1   -0.33    0.51
  -5   5   1    1.42    1.17
  -5   5   1    2.23    1.53
  -5   5   1   -0.39    0.95
   4  -5  -1    2.57    0.53
   4  -5  -1    1.47    0.90
   4  -5  -1    2.09    0.45
  -4   5   1    4.65    0.86
  -4   5   1    1.89    0.62
  -4   5   1    1.84    0.69
   3  -5  -1  148.58    3.87
   3  -5  -1  153.44    3.27
   3  -5  -1  152.89    3.33
  -3   5   1  155.55    3.59
  -3   5   1  152.91    3.88
  -3   5   1  153.16    3.41
   2  -5  -1   17.71    0.56
   2  -5  -1   18.32    0.84
   2  -5  -1   17.51    0.90
   2  -5  -1   18.06    1.08
  -2   5   1   16.81    0.95
  -2   5   1   15.84    0.96
  -2   5   1   16.34    1.03
   1  -5  -1   76.75    1.88
   1  -5  -1   78.21    1.97
   1  -5  -1   78.07    2.05
   1  -5  -1   76.78    1.75
  -1   5   1   76.71    2.00
  -1   5   1   77.09    2.02
   0  -5  -1  161.40    3.32
   0  -5  -1  169.25    3.47
   0  -5  -1  170.68    3.32
   0   5   1  168.05    3.22
   0   5   1  163.12    3.26
   0   5   1  168.57    3.46
  -1  -5  -1   38.11    1.20
  -1  -5  -1   37.73    1.05
   1   5   1   39.56    0.95
   1   5   1   37.52    1.12
  -2  -5  -1    1.98    0.38
  -2  -5  -1    2.22    0.28
  -3  -5  -1    0.38    0.23
  -3  -5  -1    0.17    0.37
  -4  -5  -1    0.83    0.35
  -4  -5  -1    1.47    0.60
  -5  -5  -1    8.94    0.98
  -5   6   1    1.55    1.10
  -5   6   1   -0.43    1.14
   4  -6  -1   15.83    1.00
   4  -6  -1   15.80    1.18
  -4   6   1   16.08    1.40
  -4   6   1   15.92    1.28
  -4   6   1   15.18    1.63
   3  -6  -1   67.47    2.45
   3  -6  -1   67.38    2.00
   3  -6  -1   65.88    1.90
  -3   6   1   66.86    2.01
  -3   6   1   69.04    2.20
  -3   6   1   67.47    2.39
   2  -6  -1   44.36    1.12
   2  -6  -1   41.15    1.51
   2  -6  -1   45.24    1.47
   2  -6  -1   45.02    1.75
  -2   6   1   44.18    1.60
  -2   6   1   43.38    1.68
  -2   6   1   43.89    1.43
   1  -6  -1   16.31    0.95
   1  -6  -1   17.00    0.95
   1  -6  -1   17.68    0.76
   1  -6  -1   18.32    0.85
  -1   6   1   18.33    0.97
  -1   6   1   19.05    0.96
  -1   6   1   17.89    0.82
   0  -6  -1   10.12    0.65
   0  -6  -1    9.62    0.60
   0  -6  -1   10.55    0.74
   0   6   1    9.32    0.71
   0   6   1   10.02    0.57
   0   6   1   10.11    0.55
  -1  -6  -1  113.91    2.67
  -1  -6  -1  114.70    2.50
   1   6   1  116.79    2.31
   1   6   1  114.41    2.56
  -2  -6  -1   16.76    0.73
  -2  -6  -1   16.97    1.00
  -3  -6  -1    1.76    0.36
  -3  -6  -1    2.10    0.54
  -4  -6  -1    7.06    0.75
  -4  -6  -1    8.49    0.92
  -5   7   1    5.73    1.42
  -5   7   1    4.35    1.31
   4  -7  -1    6.41    0.78
   4  -7  -1    6.94    0.93
  -4   7   1    9.59    1.40
  -4   7   1    6.34    1.12
  -4   7   1    7.13    1.10
   3  -7  -1  186.61    4.22
   3  -7  -1  186.19    4.74
   3  -7  -1  185.10    4.11
  -3   7   1  188.96    4.69
  -3   7   1  187.21    4.20
   2  -7  -1   41.53    1.78
   2  -7  -1   40.99    1.59
   2  -7  -1   40.19    1.17
   2  -7  -1   40.94    1.47
  -2   7   1   39.65    1.43
  -2   7   1   40.56    1.63
  -2   7   1   41.56    1.72
   1  -7  -1   41.15    1.54
   1  -7  -1   40.51    1.42
   1  -7  -1   41.87    1.60
   1  -7  -1   43.60    1.36
  -1   7   1   43.46    1.36
  -1   7   1   42.88    1.51
  -1   7   1   39.55    1.54
   0  -7  -1    1.90    0.46
   0  -7  -1    1.63    0.36
   0  -7  -1    1.78    0.40
   0  -7  -1    1.58    0.47
   0   7   1    1.93    0.46
   0   7   1    1.27    0.31
   0   7   1    2.14    0.37
  -1  -7  -1  107.48    2.70
  -1  -7  -1  107.86    2.51
   1   7   1  110.24    2.26
   1   7   1  108.26    2.56
  -2  -7  -1    1.18    0.34
  -2  -7  -1    1.68    0.52
   2   7   1    1.86    0.29
  -3  -7  -1   -0.10    0.34
  -3  -7  -1   -0.01    0.54
  -4  -7  -1    0.38    0.80
  -4  -7  -1    0.88    0.53
   4  -8  -1   15.24    1.59
  -4   8   1    8.88    1.27
  -4   8   1   11.32    1.44
   3  -8  -1    1.34    0.72
   3  -8  -1    0.42    0.30
   3  -8  -1   -0.32    0.54
   3  -8  -1   -1.60    0.81
  -3   8   1    0.47    0.58
  -3   8   1   -0.12    0.70
  -3   8   1   -0.48    0.70
   2  -8  -1    1.89    0.38
   2  -8  -1    2.44    0.72
   2  -8  -1    2.34    0.55
   2  -8  -1    1.45    0.65
  -2   8   1    1.25    0.58
  -2   8   1    1.40    0.48
  -2   8   1    1.73    0.56
   1  -8  -1   78.24    2.22
   1  -8  -1   80.09    2.36
   1  -8  -1   77.52    2.34
   1  -8  -1   79.96    2.13
  -1   8   1   77.56    2.35
  -1   8   1   77.50    2.25
  -1   8   1   77.72    2.08
   0  -8  -1    3.21    0.49
   0  -8  -1    3.29    0.61
   0  -8  -1    3.23    0.53
   0  -8  -1    3.59    0.61
   0   8   1    3.55    0.60
   0   8   1    3.50    0.49
   0   8   1    3.27    0.46
  -1  -8  -1    9.25    0.95
  -1  -8  -1   10.13    0.76
   1   8   1    9.31    0.62
   1   8   1   10.81    0.93
  -2  -8  -1    1.94    0.45
  -2  -8  -1    2.36    0.61
   2   8   1    2.10    0.44
  -3  -8  -1    2.06    0.54
  -3  -8  -1    1.14    0.70
  -4  -8  -1   11.19    1.18
   4  -9  -1    5.06    1.26
   4  -9  -1    4.23    1.01
  -4   9   1    5.55    1.31
  -4   9   1    6.02    1.38
   3  -9  -1    8.47    0.68
   3  -9  -1    8.74    1.12
   3  -9  -1    6.78    0.93
  -3   9   1    7.76    1.21
  -3   9   1    7.99    1.14
   2  -9  -1    8.23    1.00
   2  -9  -1    9.84    0.76
   2  -9  -1    9.68    1.28
   2  -9  -1   10.47    1.24
  -2   9   1    7.03    1.02
  -2   9   1    7.99    1.00
   1  -9  -1  109.44    2.75
   1  -9  -1  110.67    2.99
   1  -9  -1  102.93    2.98
   1  -9  -1  106.66    2.95
  -1   9   1  102.75    2.79
  -1   9   1  104.26    3.42
  -1   9   1  104.00    2.63
   0  -9  -1   11.62    1.05
   0  -9  -1   10.88    0.98
   0  -9  -1   12.62    0.98
   0  -9  -1   11.51    1.15
   0   9   1   12.67    0.80
   0   9   1   11.49    0.83
   0   9   1    9.26    1.10
  -1  -9  -1    0.99    0.45
  -1  -9  -1    2.05    0.64
  -1  -9  -1    1.24    0.68
   1   9   1    2.58    0.62
   1   9   1    2.04    0.40
  -2  -9  -1    2.47    0.80
  -2  -9  -1    3.03    0.80
  -2  -9  -1    3.34    0.79
   2   9   1    3.05    0.56
  -3  -9  -1    1.09    0.90
  -3  -9  -1    0.52    0.58
   4 -10  -1   -1.99    0.96
  -4  10   1   -2.02    1.20
  -4  10   1    0.28    1.32
   3 -10  -1    1.76    0.76
   3 -10  -1    0.98    0.47
  -3  10   1    0.66    1.02
  -3  10   1   -0.79    0.97
   2 -10  -1    6.78    0.94
   2 -10  -1    4.28    1.02
   2 -10  -1    6.03    0.80
  -2  10   1    4.93    0.92
  -2  10   1    3.49    0.98
   1 -10  -1   21.94    1.59
   1 -10  -1   21.10    1.53
   1 -10  -1   19.57    1.31
   1 -10  -1   19.85    1.22
  -1  10   1   17.47    1.18
  -1  10   1   22.24    1.59
  -1  10   1   20.62    1.32
   0 -10  -1   -0.35    0.48
   0 -10  -1    1.49    0.79
   0 -10  -1    0.12    0.53
   0  10   1    0.22    0.44
   0  10   1    0.46    0.45
  -1 -10  -1    2.49    0.72
  -1 -10  -1    1.45    0.85
  -1 -10  -1    1.52    0.62
   1  10   1    1.97    0.69
   1  10   1    2.16    0.46
  -2 -10  -1   10.54    1.38
  -2 -10  -1    8.95    1.10
  -2 -10  -1   11.24    1.49
   2  10   1   10.72    0.81
  -3 -10  -1    2.38    0.84
  -3 -10  -1    2.72    1.14
   3 -11  -1   11.88    1.08
   3 -11  -1    9.88    1.22
  -3  11   1   10.72    1.51
  -3  11   1   10.81    1.50
   2 -11  -1   -0.28    0.60
   2 -11  -1    1.23    0.77
  -2  11   1   -0.34    0.86
  -2  11   1   -0.69    0.95
   1 -11  -1    0.16    0.65
   1 -11  -1    2.02    0.93
   1 -11  -1    1.10    0.66
  -1  11   1    0.88    0.93
  -1  11   1    1.73    0.71
   0 -11  -1   73.70    2.59
   0 -11  -1   74.08    2.55
   0 -11  -1   76.13    2.36
   0  11   1   72.88    2.04
   0  11   1   73.62    2.15
   0  11   1   74.23    2.63
  -1 -11  -1   -0.39    0.66
  -1 -11  -1   -0.76    0.76
   1  11   1   -0.16    0.76
   1  11   1   -0.35    0.52
  -2 -11  -1   12.81    1.75
  -2 -11  -1   13.58    1.46
   2 -12  -1   32.00    1.73
   2 -12  -1   34.82    2.10
  -2  12   1   37.30    2.28
  -2  12   1   32.92    2.45
   1 -12  -1   -0.56    0.80
   1 -12  -1    1.03    0.86
   1 -12  -1    0.62    1.10
  -1  12   1   -0.20    1.05
  -1  12   1    0.09    0.82
   0 -12  -1   16.41    1.59
   0 -12  -1   17.06    1.78
   0 -12  -1   21.67    1.74
   0  12   1   17.11    1.24
   0  12   1   20.54    1.99
  -1 -12  -1   35.67    2.27
  -1 -12  -1   33.27    1.98
   1  12   1   31.65    2.14
   1 -13  -1    1.28    1.10
   1 -13  -1    0.09    1.07
  -1  13   1    3.84    1.40
  -1  13   1    0.61    1.09
   0 -13  -1    1.89    1.07
   0 -13  -1    0.83    1.11
   0  13   1   -0.42    1.30
  -1 -13   2    4.74    1.22
  -1 -13   2    5.54    1.24
   0  13  -2    3.83    1.29
   0 -13   2    3.70    1.06
   0 -13   2    1.64    1.05
  -1  13  -2   13.80    1.68
  -1  13  -2    9.59    1.51
   1 -13   2   14.52    1.80
   1 -13   2   17.40    1.66
  -2  13  -2   -2.26    1.09
  -2  13  -2    0.10    1.38
   2 -13   2   -0.37    0.94
   2 -13   2    2.14    1.27
  -2 -12   2    8.96    1.20
  -2 -12   2    9.38    1.45
   1  12  -2    6.29    1.00
  -1 -12   2    4.95    1.06
  -1 -12   2    4.62    0.98
   0  12  -2    6.96    0.88
   0  12  -2    8.60    1.16
   0 -12   2    7.03    1.05
   0 -12   2    8.42    1.15
   0 -12   2    8.70    1.21
  -1  12  -2    1.72    1.00
  -1  12  -2    1.53    0.76
   1 -12   2    1.57    1.17
   1 -12   2    2.20    0.85
   1 -12   2    2.30    0.80
  -2  12  -2    5.88    1.28
  -2  12  -2    2.15    1.01
   2 -12   2    3.03    0.97
   2 -12   2    3.00    0.80
  -3  12  -2   20.23    2.55
  -3  12  -2   21.64    2.23
   3 -12   2   19.34    1.99
   3 -12   2   19.46    1.48
  -3 -11   2    0.66    1.25
  -3 -11   2    0.47    0.95
  -2 -11   2   98.73    3.43
  -2 -11   2  101.53    2.97
   1  11  -2    0.35    0.66
   1  11  -2    1.10    0.48
  -1 -11   2   -0.34    0.64
  -1 -11   2    0.96    0.80
  -1 -11   2    2.17    0.66
   0  11  -2   -0.06    0.45
   0  11  -2    1.83    0.79
   0  11  -2    0.16    0.54
   0 -11   2    0.48    0.64
   0 -11   2    0.04    0.77
   0 -11   2    0.07    0.60
  -1  11  -2   15.67    1.60
  -1  11  -2   15.92    1.28
   1 -11   2   16.79    1.75
   1 -11   2   17.89    1.42
   1 -11   2   16.51    1.19
  -2  11  -2    1.60    0.97
  -2  11  -2    0.62    0.80
   2 -11   2    2.02    0.80
   2 -11   2    1.91    0.64
  -3  11  -2    3.47    1.23
  -3  11  -2    2.56    1.10
   3 -11   2    2.06    0.70
   3 -11   2    2.39    0.91
  -3 -10   2   81.53    2.82
  -3 -10   2   89.08    2.61
  -3 -10   2   94.35    3.32
  -2 -10   2   36.06    1.59
  -2 -10   2   34.18    1.96
  -2 -10   2   34.30    1.79
   1  10  -2    1.78    0.42
   1  10  -2    2.48    0.61
  -1 -10   2    2.24    0.57
  -1 -10   2    2.40    0.67
  -1 -10   2    0.88    0.54
  -1 -10   2    3.15    0.79
   0  10  -2   79.58    2.42
   0  10  -2   79.02    2.08
   0  10  -2   74.55    2.00
   0 -10   2   78.41    2.41
   0 -10   2   79.79    2.46
   0 -10   2   77.82    2.40
   0 -10   2   76.64    2.58
  -1  10  -2    8.91    0.99
  -1  10  -2    9.01    0.96
  -1  10  -2    8.33    1.00
   1 -10   2    8.66    0.93
   1 -10   2    9.13    1.02
   1 -10   2    8.84    1.05
   1 -10   2   10.02    1.38
  -2  10  -2    0.36    0.67
  -2  10  -2    1.13    0.75
   2 -10   2   -0.66    0.57
   2 -10   2    1.73    1.38
   2 -10   2    0.24    0.43
   2 -10   2   -2.13    0.89
  -3  10  -2    3.79    1.05
  -3  10  -2    4.04    1.07
   3 -10   2    3.28    0.85
   3 -10   2    1.81    0.55
  -4  10  -2   14.06    1.64
  -4  10  -2   14.70    1.77
   4 -10   2   16.17    1.80
  -4  -9   2    0.52    0.75
  -4  -9   2   -0.17    1.10
  -3  -9   2    1.60    0.91
  -3  -9   2    2.04    0.80
  -3  -9   2    1.58    0.60
  -2  -9   2   -1.04    0.61
  -2  -9   2   -0.38    0.55
  -2  -9   2    0.91    0.46
   1   9  -2    4.76    0.63
   1   9  -2    4.85    0.54
  -1  -9   2    4.91    0.67
  -1  -9   2    6.14    0.81
  -1  -9   2    4.95    0.60
  -1  -9   2    4.64    0.84
   0   9  -2   71.65    2.15
   0   9  -2   66.75    1.82
   0   9  -2   67.47    1.79
   0  -9   2   66.36    2.23
   0  -9   2   68.72    2.15
   0  -9   2   70.47    2.13
   0  -9   2   69.90    2.10
  -1   9  -2   73.86    2.31
  -1   9  -2   69.27    2.10
  -1   9  -2   73.01    2.06
   1  -9   2   69.02    2.05
   1  -9   2   67.63    2.33
   1  -9   2   68.65    2.27
   1  -9   2   75.49    2.41
  -2   9  -2   -0.57    0.58
  -2   9  -2   -0.41    0.55
   2  -9   2    0.24    0.77
   2  -9   2   -0.43    0.36
   2  -9   2   -0.73    0.48
   2  -9   2   -0.09    0.69
  -3   9  -2    5.43    1.02
  -3   9  -2    4.94    0.97
   3  -9   2    5.69    0.74
   3  -9   2    6.07    0.85
   3  -9   2    5.79    1.07
  -4   9  -2   -0.98    1.11
  -4   9  -2   -0.22    1.06
   4  -9   2   -0.42    0.58
   4  -9   2    0.46    0.86
  -4  -8   2   10.40    1.01
  -4  -8   2   13.25    1.74
  -3  -8   2    1.05    0.64
  -3  -8   2    0.13    0.41
  -3  -8   2   -0.30    0.60
  -2  -8   2    1.52    0.56
  -2  -8   2    1.67    0.41
  -2  -8   2    1.51    0.56
   1   8  -2   71.17    1.61
   1   8  -2   72.03    1.87
  -1  -8   2   73.29    1.97
  -1  -8   2   71.45    2.24
  -1  -8   2   70.82    1.79
  -1  -8   2   69.80    2.10
   0   8  -2    1.62    0.38
   0   8  -2    1.41    0.49
   0   8  -2    1.41    0.34
   0  -8   2    1.06    0.40
   0  -8   2    0.95    0.36
   0  -8   2    1.58    0.50
   0  -8   2    1.45    0.46
  -1   8  -2   18.44    0.95
  -1   8  -2   15.19    0.99
  -1   8  -2   15.73    1.08
   1  -8   2   17.10    1.19
   1  -8   2   18.24    1.01
   1  -8   2   17.23    1.13
   1  -8   2   15.25    0.89
  -2   8  -2    6.54    0.85
  -2   8  -2    9.13    1.00
  -2   8  -2    6.84    0.83
   2  -8   2    6.44    0.86
   2  -8   2    6.12    0.81
   2  -8   2    6.47    0.62
   2  -8   2    6.67    0.93
  -3   8  -2   14.82    1.41
  -3   8  -2   13.35    1.20
  -3   8  -2   14.43    1.36
   3  -8   2   13.88    0.81
   3  -8   2   13.25    1.39
   3  -8   2   11.49    1.31
   3  -8   2   12.69    1.44
  -4   8  -2    1.53    0.95
  -4   8  -2   -0.51    0.92
   4  -8   2    0.70    1.01
   4  -8   2   -1.51    0.64
  -4  -7   2   10.93    1.48
  -4  -7   2   10.73    0.85
  -4  -7   2    9.99    1.18
  -3  -7   2    6.06    0.62
  -3  -7   2    8.14    1.07
  -2  -7   2    1.00    0.42
  -2  -7   2    0.77    0.42
  -2  -7   2    0.76    0.29
   1   7  -2   44.00    1.07
   1   7  -2   44.15    1.26
  -1  -7   2   42.36    1.56
  -1  -7   2   43.07    1.31
  -1  -7   2   44.88    1.23
  -1  -7   2   38.17    1.97
   0   7  -2    0.56    0.26
   0   7  -2    0.50    0.26
   0   7  -2    0.34    0.34
   0  -7   2    0.32    0.26
   0  -7   2    0.13    0.33
   0  -7   2    0.02    0.35
   0  -7   2    0.28    0.31
  -1   7  -2    9.89    0.71
  -1   7  -2    9.61    0.76
  -1   7  -2    9.13    0.81
   1  -7   2    9.57    0.72
   1  -7   2   10.17    0.84
   1  -7   2    8.47    0.63
  -2   7  -2   -0.47    0.37
  -2   7  -2    0.54    0.34
  -2   7  -2   -0.17    0.35
  -2   7  -2    0.92    0.44
   2  -7   2   -1.20    0.44
   2  -7   2   -0.06    0.33
   2  -7   2    0.92    0.59
   2  -7   2    0.01    0.25
  -3   7  -2    0.09    0.55
  -3   7  -2    0.71    0.51
  -3   7  -2   -0.11    0.41
   3  -7   2    0.11    0.75
   3  -7   2   -0.37    0.42
   3  -7   2    0.18    0.30
   3  -7   2   -0.19    0.59
  -4   7  -2   41.83    2.21
  -4   7  -2   39.80    2.04
  -4   7  -2   38.52    1.34
   4  -7   2   38.77    1.88
   4  -7   2   39.30    1.63
  -5   7  -2   -0.73    1.12
  -5   7  -2    2.77    1.30
   5  -7   2    2.24    1.08
  -5  -6   2    0.55    1.08
  -4  -6   2    2.80    0.41
  -4  -6   2    2.89    0.77
  -4  -6   2    2.88    0.58
  -3  -6   2   70.04    1.60
  -3  -6   2   70.14    2.31
  -3  -6   2   69.64    1.80
  -2  -6   2    0.87    0.34
  -2  -6   2    0.72    0.43
  -2  -6   2    1.22    0.27
   1   6  -2    5.22    0.45
   1   6  -2    4.55    0.32
  -1  -6   2    4.66    0.54
  -1  -6   2    3.63    0.41
  -1  -6   2    4.95    0.43
  -1  -6   2    4.73    0.62
   0   6  -2    6.36    0.46
   0   6  -2    6.06    0.45
   0   6  -2    6.55    0.58
   0  -6   2    6.94    0.52
   0  -6   2    6.89    0.62
   0  -6   2    5.85    0.57
   0  -6   2    6.46    0.57
  -1   6  -2    2.09    0.43
  -1   6  -2    1.00    0.33
  -1   6  -2    1.13    0.32
  -1   6  -2    1.27    0.38
   1  -6   2    1.47    0.44
   1  -6   2    1.29    0.33
   1  -6   2    1.38    0.29
  -2   6  -2   47.17    1.70
  -2   6  -2   50.22    1.67
  -2   6  -2   49.82    1.41
  -2   6  -2   49.53    1.58
   2  -6   2   49.94    1.57
   2  -6   2   50.05    1.32
   2  -6   2   50.53    1.88
   2  -6   2   51.36    1.67
  -3   6  -2    2.01    0.57
  -3   6  -2    1.48    0.39
  -3   6  -2    2.21    0.57
  -3   6  -2    0.60    0.48
   3  -6   2    2.07    0.59
   3  -6   2    1.25    0.44
   3  -6   2    1.59    0.35
   3  -6   2    0.91    0.66
  -4   6  -2   95.91    2.90
  -4   6  -2   93.67    2.19
  -4   6  -2   88.44    2.72
  -4   6  -2   92.64    3.09
   4  -6   2  103.04    4.40
   4  -6   2   94.66    2.64
   4  -6   2   94.58    2.45
  -5   6  -2   -0.48    1.13
  -5   6  -2    0.01    1.03
   5  -6   2    0.54    0.80
  -5  -5   2   -0.09    0.51
  -5  -5   2   -1.21    0.92
  -4  -5   2   11.31    0.59
  -4  -5   2   10.93    1.18
  -3  -5   2   24.83    0.72
  -3  -5   2   25.71    0.91
  -2  -5   2   37.86    1.09
  -2  -5   2   36.76    0.92
  -2  -5   2   35.68    1.39
   1   5  -2   77.75    1.63
   1   5  -2   78.94    1.52
  -1  -5   2   79.44    1.83
  -1  -5   2   78.01    1.63
  -1  -5   2   76.95    1.70
  -1  -5   2   77.15    2.02
   0   5  -2  253.60    4.64
   0   5  -2  246.80    4.63
   0   5  -2  251.83    4.77
   0  -5   2  251.96    4.85
   0  -5   2  253.53    4.78
   0  -5   2  256.06    4.86
   0  -5   2  251.53    4.75
  -1   5  -2  145.72    3.02
  -1   5  -2  141.43    3.10
  -1   5  -2  145.12    2.98
  -1   5  -2  140.90    3.10
   1  -5   2  143.87    3.21
   1  -5   2  147.19    3.07
   1  -5   2  145.64    3.14
   1  -5   2  144.90    2.91
  -2   5  -2   14.68    0.67
  -2   5  -2   12.87    0.84
  -2   5  -2   14.60    0.92
  -2   5  -2   14.96    0.81
   2  -5   2   14.63    1.03
   2  -5   2   15.53    0.61
   2  -5   2   13.54    0.75
   2  -5   2   15.51    0.88
  -3   5  -2   21.93    1.11
  -3   5  -2   22.62    1.29
  -3   5  -2   22.79    0.86
  -3   5  -2   22.21    1.19
   3  -5   2   21.65    0.99
   3  -5   2   20.90    0.82
   3  -5   2   21.40    1.13
   3  -5   2   20.22    1.40
  -4   5  -2    0.69    0.40
  -4   5  -2    0.08    0.62
  -4   5  -2   -1.35    0.59
   4  -5   2    0.11    0.41
   4  -5   2    0.72    0.65
   4  -5   2    0.26    0.88
  -5   5  -2    1.23    1.00
  -5   5  -2    0.93    1.08
  -5  -4   2    0.17    0.83
  -5  -4   2    0.55    0.66
  -4  -4   2    1.76    0.49
  -3  -4   2   32.27    1.02
  -2  -4   2   81.42    1.69
  -2  -4   2   79.96    1.55
  -2  -4   2   79.93    1.69
   1   4  -2   30.06    0.72
  -1  -4   2   30.66    1.04
  -1  -4   2   31.53    0.88
  -1  -4   2   31.32    0.74
  -1  -4   2   31.37    0.79
   0   4  -2  106.68    2.12
   0   4  -2  104.90    2.11
   0   4  -2  103.26    2.19
   0   4  -2  107.70    2.30
   0  -4   2  106.37    2.20
   0  -4   2  102.85    2.24
   0  -4   2  106.65    2.18
   0  -4   2  106.62    2.26
  -1   4  -2    0.34    0.20
  -1   4  -2    0.72    0.21
  -1   4  -2    0.65    0.24
  -1   4  -2    0.83    0.24
   1  -4   2    0.98    0.23
   1  -4   2    1.06    0.19
   1  -4   2    0.49    0.25
   1  -4   2    1.02    0.31
  -2   4  -2   73.14    1.92
  -2   4  -2   74.91    1.87
  -2   4  -2   77.27    1.67
   2  -4   2   73.98    1.82
   2  -4   2   75.86    1.91
   2  -4   2   71.70    1.62
   2  -4   2   73.47    2.13
  -3   4  -2    0.44    0.37
  -3   4  -2    0.61    0.27
  -3   4  -2    0.14    0.37
  -3   4  -2    0.71    0.45
   3  -4   2    0.69    0.31
   3  -4   2    0.94    0.51
   3  -4   2    0.74    0.40
  -4   4  -2   95.50    2.60
  -4   4  -2   95.23    2.14
  -4   4  -2   93.99    2.97
  -4   4  -2   96.73    2.64
   4  -4   2   92.40    2.16
   4  -4   2   94.21    2.27
   4  -4   2   89.24    3.04
  -5   4  -2  125.41    3.81
  -5   4  -2  123.89    2.71
  -5   4  -2  110.97    3.31
  -5   4  -2  120.29    3.41
  -5  -3   2   21.09    0.92
  -5  -3   2   21.27    1.16
  -5  -3   2   21.29    1.42
  -4  -3   2    6.16    0.73
  -3  -3   2    2.51    0.38
  -2  -3   2   30.78    0.88
  -1  -3   2    3.05    0.25
  -1  -3   2    2.76    0.18
  -1  -3   2    2.83    0.33
   0   3  -2    0.90    0.15
   0   3  -2    0.89    0.20
   0   3  -2    1.00    0.17
   0   3  -2    0.74    0.17
   0  -3   2    0.70    0.18
   0  -3   2    0.88    0.17
   0  -3   2    0.66    0.16
   0  -3   2    0.96    0.16
  -1   3  -2  157.12    3.11
  -1   3  -2  161.59    3.08
  -1   3  -2  149.37    3.14
  -1   3  -2  160.23    2.97
   1  -3   2  161.03    3.13
   1  -3   2  157.91    3.22
   1  -3   2  153.61    2.93
  -2   3  -2  124.36    2.44
  -2   3  -2  123.21    2.85
  -2   3  -2  122.31    2.70
  -2   3  -2  123.00    2.65
   2  -3   2  124.24    2.58
   2  -3   2  123.76    2.47
   2  -3   2  126.86    2.95
   2  -3   2  126.60    2.68
  -3   3  -2    3.30    0.61
  -3   3  -2    3.82    0.42
  -3   3  -2    2.60    0.46
   3  -3   2    3.62    0.47
   3  -3   2    2.82    0.37
   3  -3   2    2.67    0.63
  -4   3  -2    0.70    0.50
  -4   3  -2    0.44    0.34
  -4   3  -2    1.09    0.54
  -4   3  -2    0.53    0.48
   4  -3   2    0.15    0.66
  -5   3  -2    1.25    0.93
  -5   3  -2    1.20    0.79
  -5   3  -2    0.34    0.83
  -5   3  -2    0.29    0.89
  -5  -2   2   -0.79    0.71
  -5  -2   2    0.29    0.56
  -5  -2   2   -0.32    0.68
  -4  -2   2    3.93    0.66
  -3  -2   2   56.93    1.63
  -2  -2   2   43.27    1.16
  -1  -2   2    0.48    0.16
   0   2  -2  264.29    4.65
   0   2  -2  263.48    4.57
   0   2  -2  255.40    4.55
   0   2  -2  262.12    4.59
   0  -2   2  259.20    4.63
   0  -2   2  257.63    4.57
   0  -2   2  265.33    4.61
   0  -2   2  263.21    4.59
  -1   2  -2   87.62    1.84
  -1   2  -2   88.65    1.82
  -1   2  -2   87.99    1.73
   1  -2   2   88.61    1.85
   1  -2   2   86.97    1.72
   1  -2   2   87.37    1.81
   1  -2   2   87.48    1.94
  -2   2  -2    6.81    0.46
  -2   2  -2    6.86    0.39
  -2   2  -2    6.06    0.46
  -2   2  -2    7.33    0.56
   2  -2   2    7.08    0.61
   2  -2   2    6.48    0.40
   2  -2   2    7.75    0.51
  -3   2  -2   36.93    1.06
  -3   2  -2   35.28    1.19
  -3   2  -2   35.56    1.18
  -3   2  -2   34.86    1.38
   3  -2   2   36.25    0.99
   3  -2   2   38.36    1.56
   3  -2   2   36.07    1.08
  -4   2  -2    0.54    0.46
  -4   2  -2    0.98    0.39
  -4   2  -2    0.65    0.56
  -4   2  -2    0.40    0.46
   4  -2   2    1.05    0.66
  -5   2  -2    5.70    1.06
  -5   2  -2    4.93    0.89
  -5   2  -2    6.24    0.77
   5  -2   2    4.15    1.18
  -5  -1   2    1.71    0.83
  -5  -1   2    0.76    0.55
  -5  -1   2    0.36    0.50
  -5  -1   2    1.06    0.68
  -5  -1   2    0.72    0.63
  -4  -1   2    1.84    0.36
  -4  -1   2    1.50    0.59
  -3  -1   2   21.57    1.02
  -2  -1   2   24.39    0.86
  -1  -1   2    3.80    0.25
   0   1  -2   77.30    1.46
   0   1  -2   77.33    1.43
   0   1  -2   75.84    1.41
   0  -1   2   78.30    1.43
   0  -1   2   74.37    1.44
  -1   1  -2  499.38    8.62
  -1   1  -2  493.15    8.63
  -1   1  -2  504.90    8.69
   1  -1   2  504.01    8.73
   1  -1   2  506.26    8.64
   1  -1   2  492.43    8.61
  -2   1  -2   69.36    1.55
  -2   1  -2   69.11    1.56
  -2   1  -2   66.03    1.69
  -2   1  -2   69.00    1.58
   2  -1   2   68.32    1.77
   2  -1   2   68.82    1.47
   2  -1   2   70.36    1.54
  -3   1  -2    2.51    0.48
  -3   1  -2    2.22    0.35
  -3   1  -2    2.01    0.36
  -3   1  -2    2.47    0.38
   3  -1   2    2.08    0.46
  -4   1  -2    1.74    0.48
  -4   1  -2    2.14    0.51
  -4   1  -2    2.40    0.58
   4  -1   2    1.54    0.65
  -5   1  -2   15.63    1.36
  -5   1  -2   14.70    1.53
  -5   1  -2   14.52    1.28
  -5   1  -2   12.93    1.18
   5  -1   2   13.84    1.78
  -5   0   2    2.25    0.64
  -5   0   2    2.65    1.08
  -5   0   2    2.32    0.64
  -5   0   2    2.52    0.63
  -5   0   2    3.12    0.66
  -4   0   2   21.17    1.28
  -4   0   2   20.95    0.90
  -4   0   2   23.03    0.88
   3   0  -2  238.20    4.82
  -3   0   2  232.25    4.91
  -3   0   2  237.83    4.30
  -3   0   2  240.87    4.34
   2   0  -2    0.64    0.25
  -2   0   2    0.51    0.24
  -1   0   2  350.37    5.97
   0   0  -2  106.90    1.85
   0   0  -2  105.03    1.89
   0   0  -2  104.10    1.89
   0   0   2  103.17    1.89
   0   0   2  104.16    1.85
   0   0   2  104.56    1.89
  -1   0  -2  367.60    6.43
  -1   0  -2  372.08    6.42
  -1   0  -2  376.77    6.44
   1   0   2  378.06    6.48
   1   0   2  373.30    6.43
   1   0   2  358.97    6.41
  -2   0  -2    0.15    0.17
  -2   0  -2    0.35    0.18
  -2   0  -2    0.26    0.16
   2   0   2    0.28    0.24
   2   0   2    0.11    0.16
  -3   0  -2    7.81    0.63
  -3   0  -2    8.34    0.57
  -3   0  -2    8.24    0.66
  -3   0  -2    7.72    0.56
   3   0   2    7.89    0.75
  -4   0  -2   11.08    0.91
  -4   0  -2   10.49    0.80
  -4   0  -2   11.39    0.86
  -4   0  -2   11.26    0.93
   4   0   2    9.36    1.08
  -5   0  -2   36.57    1.66
  -5   0  -2   33.18    1.49
  -5   0  -2   32.97    1.75
  -5   0  -2   33.60    1.64
   5   0   2   32.80    1.98
  -5   1   2   -0.29    0.79
  -5   1   2   -0.11    0.47
  -5   1   2   -0.12    0.62
  -5   1   2    0.53    0.45
  -5   1   2    1.04    0.64
   4  -1  -2   36.66    1.64
  -4   1   2   33.84    1.00
  -4   1   2   34.56    1.65
  -4   1   2   34.07    1.16
  -4   1   2   31.86    1.19
   3  -1  -2   10.41    0.89
  -3   1   2   10.39    0.85
  -3   1   2   11.03    0.56
  -3   1   2   10.67    0.55
  -3   1   2   10.81    0.47
   2  -1  -2   86.57    2.08
  -2   1   2   83.27    2.11
  -2   1   2   85.01    1.76
  -2   1   2   84.93    1.72
   1  -1  -2  133.49    2.41
   1  -1  -2  126.14    2.48
   1  -1  -2  134.32    2.64
  -1   1   2  136.61    2.43
  -1   1   2  136.44    2.47
  -1   1   2  131.76    2.67
   0  -1  -2    1.04    0.14
   0  -1  -2    1.05    0.12
   0   1   2    0.91    0.14
   0   1   2    1.27    0.12
  -1  -1  -2 9999.00  170.34
   1   1   2 9422.11  169.44
  -2  -1  -2   31.42    0.88
  -2  -1  -2   33.80    0.86
  -2  -1  -2   33.64    0.90
   2   1   2   32.09    0.79
   2   1   2   31.38    0.78
   2   1   2   32.67    0.96
  -3  -1  -2    2.54    0.36
  -3  -1  -2    1.53    0.34
  -3  -1  -2    1.51    0.30
   3   1   2    1.90    0.40
  -4  -1  -2   13.03    1.04
  -4  -1  -2   10.43    0.75
  -4  -1  -2   11.51    1.16
  -4  -1  -2   11.58    0.89
  -5  -1  -2    4.90    0.92
  -5  -1  -2    2.33    0.77
  -5  -1  -2    4.77    0.83
  -5  -1  -2    3.01    0.67
   5   1   2    5.12    0.97
   5  -2  -2   23.84    1.95
  -5   2   2   26.41    1.41
  -5   2   2   22.61    1.46
  -5   2   2   24.49    1.88
   4  -2  -2   29.95    1.59
  -4   2   2   28.88    1.22
  -4   2   2   29.34    1.27
  -4   2   2   30.59    1.59
   3  -2  -2  161.97    3.74
  -3   2   2  159.13    3.80
  -3   2   2  158.41    3.31
  -3   2   2  163.59    3.24
   2  -2  -2   18.12    0.88
   2  -2  -2   18.22    0.56
   2  -2  -2   17.85    0.59
  -2   2   2   18.24    0.65
  -2   2   2   17.78    0.89
  -2   2   2   18.61    0.70
   1  -2  -2   62.10    1.35
   1  -2  -2   59.63    1.48
   1  -2  -2   61.36    1.31
  -1   2   2   59.81    1.51
  -1   2   2   60.45    1.30
  -1   2   2   58.02    1.36
   0  -2  -2    7.45    0.38
   0  -2  -2    7.35    0.30
   0   2   2    6.82    0.36
   0   2   2    7.44    0.30
   0   2   2    6.85    0.33
  -1  -2  -2    3.52    0.23
  -1  -2  -2    3.79    0.32
   1   2   2    3.35    0.24
   1   2   2    2.91    0.28
  -2  -2  -2   85.63    1.68
  -2  -2  -2   84.04    1.74
  -2  -2  -2   85.05    1.84
   2   2   2   86.34    1.66
   2   2   2   86.04    1.76
  -3  -2  -2   51.16    1.39
  -3  -2  -2   53.21    1.33
  -3  -2  -2   52.17    1.31
   3   2   2   53.50    1.43
  -4  -2  -2    0.28    0.33
  -4  -2  -2    0.05    0.38
  -4  -2  -2    0.45    0.49
   4   2   2    0.11    0.46
  -5  -2  -2   30.30    1.64
  -5  -2  -2   33.84    1.35
  -5  -2  -2   32.76    1.46
  -5  -2  -2   33.16    1.93
  -5   3   2   76.67    2.38
  -5   3   2   78.82    3.08
  -5   3   2   75.89    2.46
   4  -3  -2   51.10    2.17
  -4   3   2   55.38    1.69
  -4   3   2   51.52    1.75
  -4   3   2   54.28    2.19
   3  -3  -2   11.21    1.00
   3  -3  -2   11.35    0.57
   3  -3  -2   12.11    0.51
  -3   3   2   11.71    0.70
  -3   3   2   11.38    0.77
  -3   3   2   10.85    0.97
   2  -3  -2    0.34    0.31
   2  -3  -2    0.03    0.22
   2  -3  -2    0.30    0.17
  -2   3   2    0.17    0.20
  -2   3   2    0.07    0.23
  -2   3   2    0.02    0.33
   1  -3  -2    0.54    0.24
   1  -3  -2    0.70    0.21
   1  -3  -2    0.81    0.16
   1  -3  -2    0.92    0.19
  -1   3   2    0.50    0.20
  -1   3   2    0.95    0.19
  -1   3   2    1.07    0.23
   0  -3  -2  117.74    2.28
   0  -3  -2  113.55    2.29
   0  -3  -2  118.64    2.42
   0   3   2  116.00    2.31
   0   3   2  118.41    2.25
   0   3   2  119.97    2.42
  -1  -3  -2  232.71    4.34
  -1  -3  -2  230.56    4.16
   1   3   2  230.50    4.28
   1   3   2  232.74    4.13
  -2  -3  -2  110.57    2.30
  -2  -3  -2  105.45    2.12
   2   3   2  106.14    2.04
  -3  -3  -2    0.41    0.23
  -3  -3  -2    0.32    0.18
  -3  -3  -2    0.18    0.32
  -4  -3  -2    7.19    0.64
  -4  -3  -2    6.76    0.62
  -4  -3  -2    7.35    0.89
  -5  -3  -2    2.49    0.58
  -5  -3  -2   -0.13    0.87
  -5  -3  -2    1.68    0.54
  -5   4   2    6.22    1.25
  -5   4   2    4.33    0.91
  -5   4   2    4.52    0.95
   4  -4  -2   10.34    1.23
  -4   4   2   10.82    1.09
  -4   4   2   10.73    1.28
  -4   4   2   10.35    0.96
   3  -4  -2   -0.24    0.26
   3  -4  -2    0.51    0.33
   3  -4  -2    0.84    0.50
  -3   4   2    0.25    0.38
  -3   4   2    0.58    0.33
  -3   4   2   -0.06    0.41
   2  -4  -2   12.86    0.89
   2  -4  -2   11.90    0.68
   2  -4  -2   11.50    0.62
  -2   4   2   12.03    0.64
  -2   4   2   13.59    0.91
  -2   4   2   12.79    0.76
   1  -4  -2   41.21    1.03
   1  -4  -2   41.41    1.22
   1  -4  -2   41.04    1.15
   1  -4  -2   38.62    1.27
  -1   4   2   40.90    1.30
  -1   4   2   39.94    1.24
  -1   4   2   41.87    1.12
   0  -4  -2   15.86    0.61
   0  -4  -2   17.01    0.72
   0  -4  -2   16.41    0.62
   0   4   2   15.48    0.62
   0   4   2   15.91    0.71
   0   4   2   15.89    0.57
  -1  -4  -2   53.15    1.40
  -1  -4  -2   51.48    1.22
   1   4   2   52.56    1.17
   1   4   2   50.23    1.33
  -2  -4  -2   48.75    1.36
  -2  -4  -2   48.19    1.17
   2   4   2   48.18    1.15
  -3  -4  -2    5.22    0.55
  -3  -4  -2    4.09    0.45
  -4  -4  -2    0.27    0.54
  -4  -4  -2   -0.25    0.33
  -5  -4  -2    0.05    0.57
  -5   5   2    0.98    1.26
  -5   5   2    0.79    1.00
  -5   5   2    0.59    0.99
   4  -5  -2    0.20    0.37
   4  -5  -2    0.48    0.85
   4  -5  -2   -0.14    0.43
  -4   5   2   -0.47    0.66
  -4   5   2   -0.63    0.54
  -4   5   2    0.09    0.61
   3  -5  -2    0.05    0.56
   3  -5  -2    0.55    0.34
   3  -5  -2    0.56    0.39
  -3   5   2    0.06    0.45
  -3   5   2   -0.15    0.35
  -3   5   2    0.91    0.56
   2  -5  -2    6.97    0.64
   2  -5  -2    7.08    0.58
   2  -5  -2    5.37    0.32
   2  -5  -2    5.39    0.72
  -2   5   2    5.86    0.57
  -2   5   2    5.75    0.69
  -2   5   2    6.18    0.77
   1  -5  -2    0.23    0.30
   1  -5  -2    0.91    0.31
   1  -5  -2    0.89    0.23
   1  -5  -2    0.26    0.22
  -1   5   2    0.17    0.20
  -1   5   2    0.15    0.28
  -1   5   2   -0.09    0.27
   0  -5  -2  208.75    3.95
   0  -5  -2  207.57    4.15
   0  -5  -2  203.32    3.99
   0   5   2  202.49    3.94
   0   5   2  204.10    4.14
   0   5   2  206.50    3.88
  -1  -5  -2   56.99    1.41
  -1  -5  -2   59.11    1.60
   1   5   2   55.58    1.30
   1   5   2   56.40    1.52
  -2  -5  -2    2.04    0.30
  -2  -5  -2    1.79    0.41
   2   5   2    3.19    0.42
   2   5   2    2.70    0.35
  -3  -5  -2    1.94    0.33
  -4  -5  -2    7.24    0.71
  -4  -5  -2    9.12    1.09
  -5  -5  -2    0.33    0.61
  -5   6   2    1.20    1.27
  -5   6   2    0.06    1.07
   4  -6  -2    8.12    0.87
   4  -6  -2   10.25    1.09
  -4   6   2    7.51    0.96
  -4   6   2    8.95    1.21
  -4   6   2    7.25    0.91
   3  -6  -2  231.54    5.41
   3  -6  -2  234.77    4.78
   3  -6  -2  236.38    4.86
  -3   6   2  237.02    5.46
  -3   6   2  233.64    4.88
  -3   6   2  230.74    5.10
   2  -6  -2  147.45    3.30
   2  -6  -2  139.02    3.18
   2  -6  -2  142.99    2.77
   2  -6  -2  140.37    3.54
  -2   6   2  142.56    3.56
  -2   6   2  144.68    3.18
  -2   6   2  139.55    3.40
   1  -6  -2   23.61    0.90
   1  -6  -2   23.70    1.10
   1  -6  -2   23.38    0.98
   1  -6  -2   24.82    1.09
  -1   6   2   22.24    1.08
  -1   6   2   24.11    0.93
  -1   6   2   21.21    1.07
   0  -6  -2   42.03    1.66
   0  -6  -2   46.40    1.32
   0  -6  -2   45.37    1.35
   0   6   2   43.23    1.46
   0   6   2   45.80    1.29
   0   6   2   46.65    1.23
  -1  -6  -2   16.81    0.74
  -1  -6  -2   14.44    1.12
   1   6   2   17.56    0.65
   1   6   2   16.09    0.86
  -2  -6  -2    2.89    0.51
  -2  -6  -2    4.07    0.48
   2   6   2    3.32    0.41
   2   6   2    2.93    0.40
  -3  -6  -2    1.88    0.40
  -3  -6  -2    3.87    0.61
  -4  -6  -2    8.06    0.96
  -4  -6  -2    7.43    0.81
  -5   7   2    1.48    1.36
  -5   7   2   -2.65    1.15
   4  -7  -2    0.05    0.54
   4  -7  -2   -0.35    0.73
  -4   7   2    1.50    0.88
  -4   7   2   -0.29    0.95
   3  -7  -2   11.44    1.13
   3  -7  -2   12.44    1.44
   3  -7  -2    8.20    0.88
  -3   7   2    9.31    0.97
  -3   7   2    6.97    1.45
  -3   7   2    9.74    1.26
   2  -7  -2   40.28    1.57
   2  -7  -2   38.78    1.46
   2  -7  -2   43.90    1.82
   2  -7  -2   41.72    1.16
  -2   7   2   38.67    1.63
  -2   7   2   40.53    1.73
  -2   7   2   40.35    1.43
   1  -7  -2   26.56    1.14
   1  -7  -2   28.31    1.10
   1  -7  -2   28.29    1.27
  -1   7   2   27.93    1.32
  -1   7   2   27.54    1.07
  -1   7   2   28.49    1.27
   0  -7  -2    1.62    0.40
   0  -7  -2    1.84    0.48
   0  -7  -2    1.60    0.38
   0   7   2    2.08    0.48
   0   7   2    1.52    0.32
   0   7   2    2.05    0.38
  -1  -7  -2   50.83    1.54
  -1  -7  -2   55.67    1.76
   1   7   2   51.20    1.64
   1   7   2   53.75    1.36
  -2  -7  -2   33.10    1.18
  -2  -7  -2   33.59    1.42
   2   7   2   35.59    1.16
   2   7   2   32.74    0.98
  -3  -7  -2    5.77    0.80
  -3  -7  -2    5.39    0.71
  -4  -7  -2    6.62    0.99
  -4  -7  -2    4.96    0.83
   4  -8  -2   18.09    1.70
  -4   8   2   20.63    1.92
  -4   8   2   18.02    1.94
   3  -8  -2   -0.62    0.85
   3  -8  -2    0.51    0.71
   3  -8  -2   -0.18    0.54
  -3   8   2    1.11    0.65
  -3   8   2    1.05    0.74
   2  -8  -2  136.74    3.31
   2  -8  -2  130.05    3.58
   2  -8  -2  130.16    3.39
   2  -8  -2  134.85    2.87
  -2   8   2  135.90    3.59
  -2   8   2  134.50    3.21
   1  -8  -2   -0.32    0.50
   1  -8  -2    0.33    0.52
   1  -8  -2    0.20    0.38
   1  -8  -2    0.23    0.34
  -1   8   2    0.02    0.44
  -1   8   2    0.43    0.38
  -1   8   2   -0.14    0.47
   0  -8  -2   45.30    1.73
   0  -8  -2   46.90    1.71
   0  -8  -2   46.49    1.57
   0  -8  -2   46.39    1.49
   0   8   2   47.89    1.45
   0   8   2   45.40    1.70
   0   8   2   46.29    1.37
  -1  -8  -2    1.29    0.56
  -1  -8  -2    1.57    0.40
   1   8   2    1.94    0.35
   1   8   2    2.50    0.56
  -2  -8  -2   24.58    1.35
  -2  -8  -2   21.47    1.07
   2   8   2   20.55    1.06
   2   8   2   21.13    0.83
  -3  -8  -2    0.46    0.76
  -4  -8  -2   -0.73    0.69
   4  -9  -2    1.64    0.90
   4  -9  -2    1.34    1.19
  -4   9   2    1.87    1.22
  -4   9   2    1.51    1.15
   3  -9  -2    1.92    0.40
   3  -9  -2    1.28    0.89
   3  -9  -2    1.36    0.64
  -3   9   2    2.26    0.91
  -3   9   2    2.01    0.91
   2  -9  -2   29.15    1.15
   2  -9  -2   28.05    1.45
   2  -9  -2   29.80    1.78
   2  -9  -2   29.05    1.67
  -2   9   2   27.46    1.66
  -2   9   2   26.74    1.36
   1  -9  -2    5.59    0.84
   1  -9  -2    5.42    0.85
   1  -9  -2    4.01    0.64
   1  -9  -2    5.64    0.72
  -1   9   2    5.53    0.69
  -1   9   2    5.03    0.80
  -1   9   2    3.70    0.67
   0  -9  -2    5.82    0.82
   0  -9  -2    6.32    0.81
   0  -9  -2    6.57    0.86
   0  -9  -2    5.49    0.85
   0   9   2    5.61    0.69
   0   9   2    6.03    0.82
   0   9   2    5.56    0.62
  -1  -9  -2    0.36    0.64
  -1  -9  -2    0.41    0.42
   1   9   2    0.23    0.36
   1   9   2    0.80    0.59
  -2  -9  -2    1.49    0.76
  -2  -9  -2    0.35    0.45
   2   9   2   -0.21    0.53
   2   9   2   -0.56    0.39
  -3  -9  -2    2.59    1.02
  -3  -9  -2    4.71    0.76
   4 -10  -2    5.83    1.20
  -4  10   2    8.16    1.66
  -4  10   2    7.39    1.50
   3 -10  -2   36.10    1.90
   3 -10  -2   35.34    1.23
  -3  10   2   33.66    2.27
  -3  10   2   34.05    2.27
   2 -10  -2   -0.33    0.61
   2 -10  -2    0.52    0.49
   2 -10  -2    0.56    0.96
  -2  10   2    0.29    0.73
  -2  10   2    0.76    0.89
   1 -10  -2    2.34    0.80
   1 -10  -2    1.15    0.67
   1 -10  -2    2.16    0.62
   1 -10  -2    2.59    1.00
  -1  10   2    1.83    0.78
  -1  10   2    1.86    0.67
  -1  10   2    2.60    0.65
   0 -10  -2    4.02    0.70
   0 -10  -2    2.70    0.88
   0 -10  -2    3.20    0.71
   0 -10  -2    4.40    1.16
   0  10   2    2.93    0.75
   0  10   2    3.32    0.60
   0  10   2    3.39    0.59
  -1 -10  -2    8.04    1.01
  -1 -10  -2    6.13    1.06
  -1 -10  -2    6.90    1.00
   1  10   2    6.10    0.81
   1  10   2    6.76    0.90
  -2 -10  -2    1.66    0.65
  -2 -10  -2    1.48    0.83
   2  10   2   -0.24    0.68
  -3 -10  -2   11.53    1.57
  -3 -10  -2    8.70    1.07
   3 -11  -2   33.77    2.10
  -3  11   2   27.18    2.33
  -3  11   2   30.27    2.49
   2 -11  -2    0.48    0.63
   2 -11  -2    0.23    0.80
  -2  11   2    2.08    0.96
  -2  11   2    2.02    1.08
   1 -11  -2    7.09    0.94
   1 -11  -2    7.53    1.02
   1 -11  -2    5.58    1.05
  -1  11   2    6.24    1.14
  -1  11   2    6.65    0.90
   0 -11  -2    1.41    0.73
   0 -11  -2    4.93    0.91
   0  11   2    3.31    0.96
   0  11   2    2.82    0.65
   0  11   2    4.51    0.71
  -1 -11  -2   72.71    2.80
  -1 -11  -2   69.03    2.47
   1  11   2   71.13    2.01
   1  11   2   70.12    2.80
  -2 -11  -2   12.32    1.46
  -2 -11  -2   10.79    1.50
   2  11   2   12.26    1.43
   2 -12  -2   26.52    2.01
   2 -12  -2   28.16    1.66
  -2  12   2   29.49    2.48
  -2  12   2   23.72    2.19
   1 -12  -2   -0.12    0.87
   1 -12  -2    1.49    0.86
   1 -12  -2    1.87    1.16
  -1  12   2    1.91    1.12
  -1  12   2    1.13    0.90
   0 -12  -2    3.19    0.99
   0 -12  -2    1.80    0.91
   0  12   2    2.41    0.71
   0  12   2    2.18    1.16
  -1 -12  -2   -1.61    0.87
  -1 -12  -2    0.47    1.07
   1  12   2    0.07    1.09
   1 -13  -2    1.33    1.16
  -1  13   2    3.44    1.43
  -1  13   2    0.26    1.14
   0 -13  -2    2.21    1.21
  -1 -13   3    5.73    1.30
  -1 -13   3    3.55    1.13
   0  13  -3    2.01    1.20
   0 -13   3    3.08    1.08
   0 -13   3    4.03    1.09
  -1  13  -3    6.05    1.36
  -1  13  -3    6.40    1.08
   1 -13   3    8.79    1.34
   1 -13   3    5.89    1.10
  -2  13  -3    7.34    1.53
  -2  13  -3    7.58    1.33
   2 -13   3    7.13    1.16
   2 -13   3    8.73    1.50
  -2 -12   3   12.90    1.66
  -2 -12   3   13.06    1.57
   1  12  -3    0.84    0.83
  -1 -12   3    2.35    0.93
  -1 -12   3    0.08    0.82
   0  12  -3    1.51    0.68
   0  12  -3    0.10    0.84
   0 -12   3    1.22    0.82
   0 -12   3    1.06    0.82
   0 -12   3    0.08    0.99
  -1  12  -3    2.48    0.77
  -1  12  -3    0.16    0.95
   1 -12   3    1.59    0.86
   1 -12   3    1.70    0.73
   1 -12   3   -0.33    1.16
  -2  12  -3    9.58    1.41
  -2  12  -3    9.17    1.23
   2 -12   3    9.95    1.27
   2 -12   3    9.87    1.26
  -3  12  -3    7.58    1.60
  -3  12  -3    3.62    1.32
   3 -12   3    4.53    1.17
  -3 -11   3   98.35    3.02
  -3 -11   3   92.48    3.55
  -2 -11   3    1.49    0.73
  -2 -11   3    2.55    0.94
   1  11  -3    9.17    1.19
   1  11  -3    8.73    0.83
  -1 -11   3    8.78    0.93
  -1 -11   3    8.62    1.33
  -1 -11   3    8.61    1.01
  -1 -11   3   11.29    1.32
   0  11  -3   -0.01    0.53
   0 -11   3    0.51    0.80
   0 -11   3   -0.62    0.60
   0 -11   3    0.79    0.63
  -1  11  -3    0.84    0.69
  -1  11  -3    2.39    0.86
  -1  11  -3    0.14    0.66
   1 -11   3    2.13    0.64
   1 -11   3    1.24    0.74
   1 -11   3    1.56    0.96
  -2  11  -3   -1.00    0.74
  -2  11  -3    1.28    0.93
   2 -11   3    0.42    0.61
   2 -11   3    0.37    0.74
  -3  11  -3    0.00    1.14
  -3  11  -3    2.42    1.08
   3 -11   3   -0.02    0.87
   3 -11   3   -0.11    0.66
  -3 -10   3   40.32    2.09
  -3 -10   3   43.81    2.38
  -3 -10   3   41.02    1.79
  -2 -10   3   19.96    1.59
  -2 -10   3   15.96    1.44
  -2 -10   3   19.39    1.50
   1  10  -3   38.15    1.19
   1  10  -3   37.07    1.46
  -1 -10   3   37.81    1.81
  -1 -10   3   38.85    1.83
  -1 -10   3   40.38    1.49
  -1 -10   3   35.33    1.65
   0  10  -3   44.86    1.76
   0  10  -3   45.91    1.50
   0  10  -3   42.96    1.42
   0 -10   3   46.55    1.82
   0 -10   3   43.12    1.74
   0 -10   3   46.08    1.85
   0 -10   3   42.67    1.92
  -1  10  -3   44.29    1.68
  -1  10  -3   48.78    1.94
  -1  10  -3   42.81    1.66
   1 -10   3   44.53    2.05
   1 -10   3   43.29    1.99
   1 -10   3   45.83    1.82
   1 -10   3   42.55    1.64
  -2  10  -3   14.65    1.47
  -2  10  -3   10.55    1.27
   2 -10   3   11.32    1.19
   2 -10   3   10.55    0.89
   2 -10   3    8.66    1.35
  -3  10  -3    1.55    0.93
  -3  10  -3    3.53    1.03
   3 -10   3    1.59    0.79
   3 -10   3    1.20    0.57
  -4  10  -3   16.60    2.19
  -4  10  -3   16.08    1.79
   4 -10   3   16.22    1.54
  -4  -9   3   14.82    1.98
  -4  -9   3   16.22    1.33
  -3  -9   3   27.70    1.89
  -3  -9   3   28.43    1.61
  -3  -9   3   29.46    1.34
  -2  -9   3   19.68    1.42
  -2  -9   3   18.17    1.28
  -2  -9   3   21.29    1.13
   1   9  -3    6.41    0.78
   1   9  -3    6.57    0.57
  -1  -9   3    6.89    0.95
  -1  -9   3    6.59    0.72
  -1  -9   3    7.34    0.79
  -1  -9   3    7.50    0.98
   0   9  -3   96.55    2.30
   0   9  -3   96.02    2.56
   0   9  -3   91.93    2.23
   0  -9   3   90.91    2.86
   0  -9   3   93.42    2.71
   0  -9   3   96.73    2.58
   0  -9   3   94.67    2.63
  -1   9  -3    1.04    0.59
  -1   9  -3    0.33    0.44
  -1   9  -3    0.11    0.45
   1  -9   3   -0.93    0.56
   1  -9   3    0.04    0.39
   1  -9   3    0.06    0.37
   1  -9   3    0.55    0.64
  -2   9  -3  158.77    3.98
  -2   9  -3  157.05    4.23
   2  -9   3  157.17    4.01
   2  -9   3  155.62    3.48
   2  -9   3  158.28    3.85
   2  -9   3  160.63    4.25
  -3   9  -3    1.85    0.85
  -3   9  -3   -1.39    0.72
   3  -9   3    0.73    0.92
   3  -9   3    0.34    0.46
   3  -9   3    0.55    0.62
  -4   9  -3   -0.36    1.04
  -4   9  -3    0.72    1.11
   4  -9   3    0.36    0.65
   4  -9   3    0.87    0.89
  -4  -8   3    1.70    0.90
  -4  -8   3   -0.13    0.56
  -3  -8   3   -0.88    0.56
  -3  -8   3   -0.21    0.61
  -3  -8   3    0.20    0.40
  -2  -8   3   45.23    1.83
  -2  -8   3   44.55    1.59
  -2  -8   3   43.04    1.40
   1   8  -3    5.68    0.45
   1   8  -3    4.93    0.54
  -1  -8   3    4.82    0.64
  -1  -8   3    4.95    0.64
  -1  -8   3    3.72    0.60
  -1  -8   3    4.47    0.67
   0   8  -3   31.61    1.30
   0   8  -3   31.87    1.11
   0   8  -3   31.42    1.08
   0  -8   3   31.97    1.32
   0  -8   3   29.58    1.24
   0  -8   3   33.52    1.39
   0  -8   3   33.22    1.33
  -1   8  -3    2.14    0.57
  -1   8  -3    3.26    0.52
  -1   8  -3    2.38    0.50
   1  -8   3    3.21    0.67
   1  -8   3    1.52    0.56
   1  -8   3    2.78    0.52
   1  -8   3    3.20    0.51
  -2   8  -3   31.67    1.51
  -2   8  -3   32.87    1.34
  -2   8  -3   31.25    1.38
  -2   8  -3   33.02    1.57
   2  -8   3   31.25    1.53
   2  -8   3   29.97    1.16
   2  -8   3   30.30    1.38
   2  -8   3   31.96    1.76
  -3   8  -3   35.11    1.66
  -3   8  -3   38.38    1.84
  -3   8  -3   36.30    1.85
  -3   8  -3   39.01    1.52
   3  -8   3   33.85    1.24
   3  -8   3   34.58    1.80
   3  -8   3   36.10    1.57
   3  -8   3   35.23    2.14
  -4   8  -3    4.19    1.04
  -4   8  -3    4.27    1.07
  -4   8  -3    3.76    1.33
   4  -8   3    5.55    1.12
   4  -8   3    4.80    0.82
  -4  -7   3   11.65    0.84
  -4  -7   3   11.85    1.52
  -4  -7   3   11.77    1.29
  -3  -7   3    3.56    0.46
  -3  -7   3    3.39    0.55
  -3  -7   3    2.54    0.67
  -2  -7   3   10.26    0.91
  -2  -7   3    9.67    0.62
  -2  -7   3   10.45    0.80
   1   7  -3    5.25    0.39
   1   7  -3    4.85    0.52
  -1  -7   3    5.42    0.71
  -1  -7   3    6.01    0.67
  -1  -7   3    5.48    0.56
  -1  -7   3    5.47    0.54
   0   7  -3   11.48    0.64
   0   7  -3   11.81    0.66
   0   7  -3   11.16    0.78
   0  -7   3   11.11    0.74
   0  -7   3   10.68    0.83
   0  -7   3   12.99    0.80
   0  -7   3   10.71    0.75
  -1   7  -3   23.98    1.14
  -1   7  -3   24.58    1.08
  -1   7  -3   24.65    1.04
  -1   7  -3   24.49    1.08
   1  -7   3   22.91    1.16
   1  -7   3   23.89    1.07
   1  -7   3   25.12    1.00
   1  -7   3   24.52    1.24
  -2   7  -3   26.73    1.11
  -2   7  -3   25.31    1.28
  -2   7  -3   24.65    1.17
  -2   7  -3   24.92    1.28
   2  -7   3   25.97    1.51
   2  -7   3   25.37    0.97
   2  -7   3   23.62    1.27
   2  -7   3   25.75    1.19
  -3   7  -3   49.35    2.01
  -3   7  -3   50.88    1.57
  -3   7  -3   48.74    1.82
  -3   7  -3   49.12    1.96
   3  -7   3   50.98    1.48
   3  -7   3   47.61    2.22
   3  -7   3   48.12    1.90
   3  -7   3   53.14    1.77
  -4   7  -3    1.98    0.59
  -4   7  -3    3.27    0.87
  -4   7  -3    1.98    0.87
   4  -7   3    1.43    0.61
   4  -7   3    1.82    0.89
  -5   7  -3    1.53    1.21
  -5   7  -3   -0.52    1.15
   5  -7   3   -0.09    0.89
  -5  -6   3   -0.45    1.07
  -4  -6   3    4.39    0.88
  -3  -6   3   67.75    2.22
  -3  -6   3   67.23    1.54
  -3  -6   3   66.13    1.70
  -2  -6   3   81.55    1.93
  -2  -6   3   78.86    1.77
  -2  -6   3   77.15    2.27
   1   6  -3    0.25    0.15
   1   6  -3    0.11    0.19
  -1  -6   3    0.26    0.29
  -1  -6   3   -0.09    0.20
  -1  -6   3    0.05    0.27
  -1  -6   3    0.31    0.22
   0   6  -3    5.51    0.44
   0   6  -3    4.91    0.53
   0   6  -3    5.36    0.44
   0  -6   3    4.68    0.57
   0  -6   3    4.96    0.49
   0  -6   3    4.57    0.54
   0  -6   3    5.07    0.52
  -1   6  -3   46.93    1.40
  -1   6  -3   44.25    1.46
  -1   6  -3   46.05    1.43
  -1   6  -3   46.56    1.97
   1  -6   3   40.60    1.82
   1  -6   3   48.70    1.60
   1  -6   3   44.48    1.31
   1  -6   3   45.07    1.42
  -2   6  -3    2.32    0.49
  -2   6  -3    2.53    0.41
  -2   6  -3    1.93    0.42
  -2   6  -3    1.84    0.48
   2  -6   3    2.21    0.55
   2  -6   3    2.72    0.37
   2  -6   3    1.76    0.41
   2  -6   3    2.11    0.53
  -3   6  -3  104.23    2.37
  -3   6  -3  100.66    2.90
  -3   6  -3  101.00    2.78
  -3   6  -3  100.85    2.68
   3  -6   3   97.85    2.68
   3  -6   3   98.63    2.56
   3  -6   3   96.13    3.06
   3  -6   3  102.78    2.31
  -4   6  -3   -0.16    0.69
  -4   6  -3    0.03    0.45
  -4   6  -3    0.17    0.75
  -4   6  -3   -0.01    0.70
   4  -6   3    0.37    0.72
   4  -6   3   -0.12    0.48
  -5   6  -3   -1.23    1.03
  -5   6  -3   -1.18    1.07
   5  -6   3   -0.06    0.75
  -5  -5   3    1.30    1.00
  -4  -5   3   -0.25    0.43
  -4  -5   3   -0.43    0.69
  -3  -5   3   69.32    2.18
  -3  -5   3   73.88    1.74
  -2  -5   3   -0.23    0.23
  -2  -5   3    0.03    0.29
  -2  -5   3    0.12    0.14
   1   5  -3    7.27    0.30
   1   5  -3    6.70    0.37
  -1  -5   3    7.53    0.43
  -1  -5   3    7.44    0.43
  -1  -5   3    7.32    0.50
  -1  -5   3    7.14    0.59
   0   5  -3    4.02    0.46
   0   5  -3    3.86    0.41
   0   5  -3    3.83    0.34
   0   5  -3    3.98    0.37
   0  -5   3    3.50    0.42
   0  -5   3    3.92    0.46
   0  -5   3    3.30    0.43
   0  -5   3    3.95    0.40
  -1   5  -3  325.84    6.13
  -1   5  -3  325.78    6.02
  -1   5  -3  326.11    6.05
  -1   5  -3  323.04    6.13
   1  -5   3  320.98    6.24
   1  -5   3  325.70    6.17
   1  -5   3  318.62    5.94
   1  -5   3  326.07    6.10
  -2   5  -3    0.52    0.26
  -2   5  -3    0.35    0.35
  -2   5  -3    0.81    0.36
  -2   5  -3   -0.10    0.30
   2  -5   3    0.10    0.20
   2  -5   3    0.05    0.28
   2  -5   3   -0.77    0.35
  -3   5  -3    4.72    0.63
  -3   5  -3    3.77    0.46
  -3   5  -3    3.14    0.63
  -3   5  -3    3.97    0.61
   3  -5   3    3.89    0.54
   3  -5   3    3.70    0.61
   3  -5   3    3.19    0.46
   3  -5   3    3.95    0.79
  -4   5  -3    4.04    0.82
  -4   5  -3    4.86    0.82
  -4   5  -3    4.95    0.84
  -4   5  -3    6.50    0.75
   4  -5   3    5.41    1.08
   4  -5   3    6.05    0.80
   4  -5   3    4.33    0.75
  -5   5  -3   58.56    2.54
  -5   5  -3   60.83    2.76
  -5  -4   3    1.03    0.76
  -5  -4   3    0.60    0.85
  -4  -4   3    3.27    0.60
  -4  -4   3    2.13    0.59
  -3  -4   3   15.01    0.95
  -3  -4   3   16.58    0.80
  -2  -4   3   85.68    2.18
  -1  -4   3    7.53    0.35
  -1  -4   3    6.67    0.51
  -1  -4   3    7.09    0.43
  -1  -4   3    6.97    0.34
   0   4  -3   36.04    0.99
   0   4  -3   36.16    0.93
   0   4  -3   38.17    1.11
   0   4  -3   36.85    0.97
   0  -4   3   37.43    1.06
   0  -4   3   37.15    1.01
   0  -4   3   36.21    1.05
   0  -4   3   37.67    1.03
  -1   4  -3   60.18    1.52
  -1   4  -3   59.39    1.56
  -1   4  -3   58.02    1.55
  -1   4  -3   61.72    1.47
   1  -4   3   60.27    1.53
   1  -4   3   62.87    1.67
   1  -4   3   59.96    1.58
   1  -4   3   60.20    1.41
  -2   4  -3   11.44    0.78
  -2   4  -3   11.27    0.73
  -2   4  -3   13.54    0.60
  -2   4  -3   11.50    0.70
   2  -4   3   10.86    0.87
   2  -4   3   11.91    0.66
   2  -4   3   13.95    0.78
   2  -4   3   11.45    0.55
  -3   4  -3    3.06    0.60
  -3   4  -3    2.86    0.51
  -3   4  -3    3.45    0.47
  -3   4  -3    2.19    0.48
   3  -4   3    2.54    0.50
   3  -4   3    2.41    0.67
   3  -4   3    4.36    0.57
  -4   4  -3   18.59    1.26
  -4   4  -3   20.17    0.95
  -4   4  -3   20.75    1.30
  -4   4  -3   21.55    1.45
   4  -4   3   19.89    1.13
   4  -4   3   21.73    1.69
   4  -4   3   20.19    0.97
  -5   4  -3   58.32    1.83
  -5   4  -3   59.38    2.38
  -5   4  -3   55.62    2.56
  -5  -3   3   -0.67    0.69
  -5  -3   3    0.11    0.76
  -4  -3   3    1.06    0.50
  -4  -3   3    0.54    0.49
  -3  -3   3   55.45    1.60
  -3  -3   3   56.32    1.70
  -2  -3   3    1.04    0.28
  -2  -3   3    0.91    0.23
  -1  -3   3   87.15    1.69
  -1  -3   3   87.64    1.66
  -1  -3   3   88.92    1.98
   0   3  -3    7.02    0.41
   0  -3   3    8.03    0.40
  -1   3  -3  106.03    2.13
  -1   3  -3  105.21    2.22
  -1   3  -3  104.22    2.26
  -1   3  -3  103.24    2.23
   1  -3   3  103.84    2.25
   1  -3   3  106.65    2.34
   1  -3   3  104.16    2.11
   1  -3   3  105.25    2.21
  -2   3  -3  174.11    3.72
  -2   3  -3  173.93    3.59
  -2   3  -3  179.43    3.39
  -2   3  -3  181.33    3.59
   2  -3   3  176.12    3.43
   2  -3   3  169.48    3.47
   2  -3   3  182.41    3.86
   2  -3   3  174.75    3.57
  -3   3  -3   42.57    1.43
  -3   3  -3   43.29    1.20
  -3   3  -3   39.79    1.53
  -3   3  -3   43.47    1.42
   3  -3   3   40.41    1.23
   3  -3   3   43.03    1.70
   3  -3   3   44.63    1.37
  -4   3  -3    1.01    0.55
  -4   3  -3    0.02    0.48
  -4   3  -3    0.75    0.54
  -4   3  -3    0.18    0.36
   4  -3   3   -0.13    0.34
   4  -3   3   -0.13    0.69
   4  -3   3    0.14    0.43
  -5   3  -3   28.22    1.36
  -5   3  -3   25.32    1.92
  -5   3  -3   28.37    1.74
  -5   3  -3   27.70    1.83
  -5  -2   3    0.89    0.77
  -5  -2   3    0.37    0.66
  -4  -2   3    3.60    0.69
  -4  -2   3    3.32    0.57
  -3  -2   3    0.77    0.30
  -3  -2   3    0.60    0.37
  -2  -2   3    0.11    0.18
  -2  -2   3   -0.19    0.16
   1   2  -3   35.89    0.98
  -1  -2   3   35.31    0.94
   0   2  -3   33.97    0.84
   0   2  -3   32.71    0.78
   0   2  -3   32.68    0.79
   0  -2   3   33.77    0.79
   0  -2   3   33.16    0.81
   0  -2   3   32.86    0.80
   0  -2   3   33.63    0.83
  -1   2  -3  107.62    2.23
  -1   2  -3  110.01    2.16
  -1   2  -3  109.77    2.25
   1  -2   3  110.75    2.25
   1  -2   3  106.73    2.15
   1  -2   3  109.58    2.31
   1  -2   3  111.13    2.21
  -2   2  -3  109.35    2.23
  -2   2  -3  104.97    2.44
  -2   2  -3  108.45    2.33
  -2   2  -3  106.37    2.35
   2  -2   3  107.53    2.25
   2  -2   3  107.67    2.55
   2  -2   3  109.91    2.34
  -3   2  -3    0.15    0.32
  -3   2  -3    0.05    0.32
  -3   2  -3   -0.08    0.30
  -3   2  -3    0.45    0.25
   3  -2   3    0.55    0.46
   3  -2   3    0.07    0.23
   3  -2   3   -0.21    0.30
  -4   2  -3   23.53    1.33
  -4   2  -3   22.48    1.16
  -4   2  -3   23.05    1.07
  -4   2  -3   22.57    1.17
   4  -2   3   19.66    1.51
  -5   2  -3   -1.37    0.62
  -5   2  -3   -0.02    0.81
  -5   2  -3   -0.13    0.80
  -5   2  -3   -0.32    0.73
   5  -2   3    3.86    1.20
  -5  -1   3    2.08    0.56
  -5  -1   3    0.85    0.61
  -5  -1   3    0.55    0.86
  -4  -1   3   18.42    1.18
  -4  -1   3   16.70    0.90
  -3  -1   3   97.14    2.47
  -3  -1   3   95.56    2.17
  -2  -1   3   32.19    0.89
  -2  -1   3   31.25    1.02
   1   1  -3   56.97    1.23
  -1  -1   3   57.20    1.22
   0   1  -3  202.64    3.58
   0   1  -3  203.46    3.60
   0   1  -3  202.64    3.53
   0  -1   3  202.12    3.55
   0  -1   3  197.86    3.58
  -1   1  -3   20.99    0.64
  -1   1  -3   21.31    0.65
  -1   1  -3   21.97    0.64
  -1   1  -3   20.84    0.65
   1  -1   3   21.26    0.64
   1  -1   3   21.36    0.66
   1  -1   3   20.73    0.64
   1  -1   3   21.49    0.70
  -2   1  -3   46.70    1.29
  -2   1  -3   45.64    1.22
  -2   1  -3   46.22    1.22
  -2   1  -3   46.80    1.22
   2  -1   3   45.36    1.14
   2  -1   3   47.17    1.21
   2  -1   3   49.37    1.41
  -3   1  -3    9.82    0.73
  -3   1  -3    8.16    0.65
  -3   1  -3   10.11    0.66
  -3   1  -3    9.75    0.66
   3  -1   3   11.16    0.62
   3  -1   3   10.31    0.86
   3  -1   3   10.77    0.52
  -4   1  -3   18.12    1.02
  -4   1  -3   18.43    1.13
  -4   1  -3   18.54    1.09
  -4   1  -3   19.09    1.07
   4  -1   3   19.18    1.36
  -5   1  -3    1.73    0.73
  -5   1  -3    1.20    0.79
  -5   1  -3    2.60    0.85
   5  -1   3    0.48    1.02
  -5   0   3    0.37    0.51
  -5   0   3    0.96    0.84
  -5   0   3    1.08    0.57
  -5   0   3   -0.09    0.52
  -4   0   3   12.93    0.68
  -4   0   3   12.66    1.13
  -4   0   3   12.34    0.72
  -4   0   3   12.75    0.71
  -3   0   3   15.92    0.61
  -3   0   3   15.36    0.97
  -2   0   3   62.90    1.68
  -2   0   3   62.94    1.32
   1   0  -3  173.52    3.06
  -1   0   3  173.47    3.02
  -1   0   3  169.58    3.04
  -1   0   3  175.65    3.01
   0   0  -3  694.85   17.42
   0   0   3  733.53   17.70
  -1   0  -3  379.64    6.53
  -1   0  -3  370.14    6.68
  -1   0  -3  373.73    6.61
  -1   0  -3  380.08    6.58
   1   0   3  379.35    6.59
   1   0   3  369.56    6.59
   1   0   3  387.68    6.61
  -2   0  -3   74.05    1.70
  -2   0  -3   75.80    1.70
  -2   0  -3   76.09    1.68
  -2   0  -3   74.71    1.80
   2   0   3   77.44    1.84
   2   0   3   73.83    1.61
   2   0   3   76.64    1.66
  -3   0  -3    2.21    0.39
  -3   0  -3    2.53    0.38
  -3   0  -3    2.77    0.43
  -3   0  -3    2.65    0.40
   3   0   3    2.96    0.50
  -4   0  -3    8.06    0.88
  -4   0  -3   10.73    0.82
  -4   0  -3    9.87    0.94
  -4   0  -3    7.99    0.88
   4   0   3    9.50    1.10
  -5   0  -3   11.61    1.39
  -5   0  -3    9.60    1.13
  -5   0  -3    9.48    1.05
  -5   0  -3   10.49    1.34
   5   0   3    8.30    1.21
  -5   1   3    0.60    0.61
  -5   1   3   -0.50    0.89
  -5   1   3    0.72    0.62
  -4   1   3    6.07    0.64
  -4   1   3    6.77    0.88
  -4   1   3    6.72    0.69
  -4   1   3    6.93    0.49
   3  -1  -3   27.91    1.48
  -3   1   3   30.22    1.35
  -3   1   3   31.40    0.77
  -3   1   3   32.25    0.96
  -3   1   3   32.66    0.93
   2  -1  -3   44.19    1.35
  -2   1   3   44.42    1.03
  -2   1   3   43.71    1.39
  -2   1   3   45.53    1.07
   1  -1  -3   41.74    0.92
   1  -1  -3   42.70    0.91
  -1   1   3   42.68    0.92
  -1   1   3   42.21    0.98
  -1   1   3   42.27    1.14
   0  -1  -3    2.59    0.23
   0   1   3    2.48    0.17
   0   1   3    2.32    0.22
  -1  -1  -3  151.48    2.86
  -1  -1  -3  148.42    2.77
   1   1   3  144.81    2.84
   1   1   3  152.59    2.73
   1   1   3  153.21    2.79
  -2  -1  -3  189.26    3.54
  -2  -1  -3  186.26    3.49
  -2  -1  -3  187.12    3.60
   2   1   3  190.02    3.51
   2   1   3  187.91    3.63
   2   1   3  187.37    3.50
  -3  -1  -3   31.10    1.03
  -3  -1  -3   31.80    1.07
  -3  -1  -3   30.45    1.00
   3   1   3   32.75    1.20
  -4  -1  -3    3.96    0.61
  -4  -1  -3    4.38    0.52
  -4  -1  -3    4.40    0.60
  -4  -1  -3    3.13    0.68
  -5  -1  -3    4.28    0.71
  -5  -1  -3    2.23    0.87
  -5  -1  -3    3.04    0.93
  -5  -1  -3    3.32    0.74
   5   1   3    3.97    1.00
  -5   2   3   20.95    1.94
  -5   2   3   22.08    1.34
  -5   2   3   24.02    1.42
   4  -2  -3   36.81    1.72
  -4   2   3   36.32    1.36
  -4   2   3   37.19    1.28
  -4   2   3   38.63    1.84
   3  -2  -3   22.46    1.18
  -3   2   3   21.78    1.22
  -3   2   3   23.14    0.92
  -3   2   3   23.30    0.85
   2  -2  -3  309.51    5.44
   2  -2  -3  310.25    5.96
   2  -2  -3  302.91    5.42
  -2   2   3  301.41    5.55
  -2   2   3  310.45    6.06
  -2   2   3  311.97    5.65
   1  -2  -3    2.16    0.31
   1  -2  -3    2.55    0.24
   1  -2  -3    2.78    0.30
  -1   2   3    1.74    0.26
  -1   2   3    2.66    0.29
  -1   2   3    2.22    0.24
   0  -2  -3  148.37    2.76
   0   2   3  149.60    2.81
   0   2   3  148.84    2.75
   0   2   3  150.99    2.89
  -1  -2  -3    6.13    0.31
  -1  -2  -3    5.74    0.41
   1   2   3    6.32    0.25
   1   2   3    6.40    0.34
   1   2   3    6.53    0.39
  -2  -2  -3    1.88    0.30
  -2  -2  -3    1.60    0.23
   2   2   3    1.62    0.25
   2   2   3    1.37    0.23
   2   2   3    1.70    0.24
  -3  -2  -3   27.41    1.02
  -3  -2  -3   27.88    0.83
  -3  -2  -3   25.69    0.88
   3   2   3   26.64    1.00
  -4  -2  -3    5.85    0.71
  -4  -2  -3    6.63    0.68
  -4  -2  -3    6.36    0.68
   4   2   3    6.55    0.89
  -5  -2  -3    5.89    0.73
  -5  -2  -3    6.33    1.00
  -5  -2  -3    4.51    0.70
  -5  -2  -3    2.71    1.01
  -5   3   3   32.79    1.73
  -5   3   3   31.85    2.27
  -5   3   3   32.24    1.61
   4  -3  -3    0.91    0.70
  -4   3   3    0.65    0.46
  -4   3   3    0.78    0.54
   3  -3  -3    8.55    0.47
   3  -3  -3    8.74    0.95
  -3   3   3    8.28    0.91
  -3   3   3    8.59    0.72
  -3   3   3    7.88    0.61
   2  -3  -3  179.95    3.47
   2  -3  -3  182.59    3.51
   2  -3  -3  184.56    3.93
  -2   3   3  182.41    3.54
  -2   3   3  176.01    3.97
  -2   3   3  180.18    3.67
   1  -3  -3   42.51    1.15
   1  -3  -3   41.37    1.23
   1  -3  -3   41.99    1.08
  -1   3   3   41.19    1.07
  -1   3   3   41.00    1.27
  -1   3   3   41.13    1.17
   0  -3  -3   17.19    0.68
   0  -3  -3   16.46    0.57
   0   3   3   17.05    0.61
   0   3   3   17.28    0.56
   0   3   3   17.15    0.68
  -1  -3  -3   49.90    1.15
  -1  -3  -3   49.22    1.30
   1   3   3   48.42    1.26
   1   3   3   50.92    1.14
  -2  -3  -3  343.96    6.20
   2   3   3  352.24    6.23
   2   3   3  347.34    6.16
  -3  -3  -3  164.15    3.41
  -3  -3  -3  160.39    3.21
  -4  -3  -3    0.36    0.27
  -4  -3  -3    0.37    0.53
  -4  -3  -3    0.07    0.35
  -5  -3  -3    0.53    0.93
  -5   4   3    1.00    0.87
  -5   4   3   -0.28    1.03
  -5   4   3   -0.50    0.81
   4  -4  -3   15.91    1.54
  -4   4   3   18.52    1.20
  -4   4   3   15.22    1.08
  -4   4   3   18.34    1.53
   3  -4  -3  203.27    4.67
   3  -4  -3  205.09    3.96
   3  -4  -3  201.03    3.92
  -3   4   3  205.13    4.14
  -3   4   3  201.30    4.31
  -3   4   3  198.48    4.72
   2  -4  -3   76.62    1.82
   2  -4  -3   76.41    1.87
  -2   4   3   75.28    1.82
  -2   4   3   73.38    1.97
  -2   4   3   73.95    2.19
   1  -4  -3  230.22    4.44
   1  -4  -3  233.72    4.53
   1  -4  -3  235.39    4.63
  -1   4   3  231.88    4.68
  -1   4   3  235.80    4.61
  -1   4   3  231.55    4.39
   0  -4  -3    2.29    0.36
   0  -4  -3    2.22    0.29
   0   4   3    2.22    0.30
   0   4   3    2.71    0.38
   0   4   3    2.53    0.28
  -1  -4  -3   19.36    0.82
  -1  -4  -3   18.41    0.65
   1   4   3   18.72    0.79
   1   4   3   19.55    0.64
  -2  -4  -3    0.24    0.28
  -2  -4  -3   -0.09    0.17
   2   4   3   -0.17    0.24
   2   4   3    0.29    0.22
  -3  -4  -3    6.14    0.51
  -3  -4  -3    5.51    0.64
  -4  -4  -3   -0.19    0.58
  -4  -4  -3    1.31    0.41
  -5  -4  -3    8.33    0.84
  -5   5   3    0.83    0.91
  -5   5   3    0.73    0.94
  -5   5   3   -0.40    1.11
   4  -5  -3    2.03    0.96
   4  -5  -3    1.65    0.40
  -4   5   3    2.00    0.63
  -4   5   3    1.44    0.63
  -4   5   3    1.98    0.83
   3  -5  -3  140.38    3.70
   3  -5  -3  140.22    3.06
   3  -5  -3  141.59    3.11
  -3   5   3  146.29    3.23
  -3   5   3  143.05    3.43
  -3   5   3  139.19    3.75
   2  -5  -3   59.75    1.70
   2  -5  -3   57.85    1.94
   2  -5  -3   58.91    1.63
   2  -5  -3   57.91    1.24
  -2   5   3   59.67    1.99
  -2   5   3   61.60    1.65
  -2   5   3   58.06    1.80
   1  -5  -3   17.45    0.79
   1  -5  -3   17.72    0.87
   1  -5  -3   18.24    0.91
  -1   5   3   17.27    0.93
  -1   5   3   17.83    0.91
  -1   5   3   18.26    0.75
   0  -5  -3   48.48    1.46
   0   5   3   49.31    1.24
   0   5   3   47.39    1.47
   0   5   3   48.01    1.31
  -1  -5  -3   98.87    2.35
  -1  -5  -3   94.76    2.12
   1   5   3   97.42    2.02
   1   5   3   95.77    2.28
  -2  -5  -3    4.97    0.45
   2   5   3    4.76    0.57
   2   5   3    4.86    0.44
  -3  -5  -3    1.02    0.49
  -3  -5  -3    1.15    0.31
  -4  -5  -3    1.02    0.43
  -4  -5  -3   -0.26    0.66
  -5  -5  -3   -0.90    0.66
  -5   6   3    0.95    1.26
  -5   6   3    0.97    1.13
   4  -6  -3    3.59    0.58
  -4   6   3    4.64    0.80
  -4   6   3    4.11    0.86
  -4   6   3    4.18    1.00
   3  -6  -3    5.75    0.71
   3  -6  -3    6.03    0.94
   3  -6  -3    7.40    0.78
  -3   6   3    5.86    0.89
  -3   6   3    5.67    0.78
  -3   6   3    5.66    0.68
   2  -6  -3  211.13    3.90
   2  -6  -3  210.31    4.44
   2  -6  -3  209.61    4.72
   2  -6  -3  213.50    4.37
  -2   6   3  205.24    4.28
  -2   6   3  211.19    4.77
  -2   6   3  208.00    4.58
   1  -6  -3   38.27    1.30
   1  -6  -3   37.74    1.20
   1  -6  -3   37.66    1.40
   1  -6  -3   39.00    1.40
  -1   6   3   38.47    1.22
  -1   6   3   39.43    1.44
  -1   6   3   38.18    1.43
   0  -6  -3   25.34    1.11
   0  -6  -3   25.68    0.98
   0  -6  -3   26.94    0.94
   0   6   3   25.37    1.12
   0   6   3   23.83    0.98
   0   6   3   26.55    0.96
  -1  -6  -3   62.49    1.84
  -1  -6  -3   61.20    1.63
   1   6   3   63.22    1.50
   1   6   3   62.37    1.78
  -2  -6  -3    6.58    0.57
  -2  -6  -3    9.48    0.82
   2   6   3    8.64    0.55
   2   6   3    7.25    0.70
  -3  -6  -3    2.24    0.42
  -4  -6  -3   -0.49    0.74
  -4  -6  -3    1.36    0.83
  -5   7   3   53.84    2.83
  -5   7   3   44.32    3.02
   4  -7  -3    0.19    0.55
   4  -7  -3    1.30    0.76
  -4   7   3    0.78    0.84
  -4   7   3    0.62    0.91
   3  -7  -3   15.15    1.19
   3  -7  -3   18.69    1.57
   3  -7  -3   16.00    1.05
  -3   7   3   15.33    1.11
  -3   7   3   14.12    1.44
  -3   7   3   18.25    1.36
   2  -7  -3   34.95    1.50
   2  -7  -3   34.22    1.38
   2  -7  -3   35.66    1.07
   2  -7  -3   34.69    1.67
  -2   7   3   37.58    1.37
  -2   7   3   37.39    1.60
  -2   7   3   34.92    1.65
   1  -7  -3   20.87    1.02
   1  -7  -3   22.38    0.99
   1  -7  -3   21.38    1.16
   1  -7  -3   18.63    1.31
  -1   7   3   20.79    1.18
  -1   7   3   22.18    0.97
  -1   7   3   20.87    1.16
   0  -7  -3   14.96    0.80
   0  -7  -3   13.98    0.82
   0  -7  -3   13.95    0.96
   0   7   3   13.27    0.80
   0   7   3   15.49    0.73
   0   7   3   14.61    1.00
  -1  -7  -3    3.80    0.61
  -1  -7  -3    3.84    0.51
   1   7   3    4.55    0.50
   1   7   3    4.23    0.62
  -2  -7  -3   63.91    1.77
  -2  -7  -3   60.10    1.99
   2   7   3   64.81    1.77
   2   7   3   64.34    1.56
  -3  -7  -3   12.41    1.24
  -3  -7  -3   13.94    0.91
  -4  -7  -3    0.81    0.62
  -4  -7  -3    0.53    0.97
   4  -8  -3    3.45    1.00
   4  -8  -3    5.08    1.03
  -4   8   3    4.76    1.21
  -4   8   3    5.28    1.17
   3  -8  -3    2.43    1.07
   3  -8  -3    4.98    0.86
  -3   8   3    5.14    0.94
  -3   8   3    2.88    0.70
  -3   8   3    3.95    0.98
   2  -8  -3  189.72    4.45
   2  -8  -3  194.67    4.67
   2  -8  -3  194.79    3.90
   2  -8  -3  193.52    4.36
  -2   8   3  193.37    4.65
  -2   8   3  197.28    4.24
  -2   8   3  195.28    4.64
   1  -8  -3   52.73    1.76
   1  -8  -3   51.45    1.90
   1  -8  -3   52.73    1.69
   1  -8  -3   52.28    1.86
  -1   8   3   52.01    1.95
  -1   8   3   50.46    1.59
  -1   8   3   51.89    1.85
   0  -8  -3   27.84    1.40
   0  -8  -3   29.65    1.24
   0   8   3   27.78    1.13
   0   8   3   28.43    1.08
   0   8   3   29.20    1.42
  -1  -8  -3    1.77    0.42
  -1  -8  -3    1.73    0.61
   1   8   3    2.39    0.57
   1   8   3    2.25    0.38
  -2  -8  -3   32.22    1.35
  -2  -8  -3   32.04    1.59
   2   8   3   33.43    1.35
   2   8   3   31.67    1.09
  -3  -8  -3   -0.61    0.80
  -3  -8  -3   -0.23    0.50
  -4  -8  -3    0.22    0.77
   4  -9  -3    2.67    1.26
   4  -9  -3    1.02    0.89
  -4   9   3    3.27    1.25
  -4   9   3    2.57    1.30
   3  -9  -3   11.42    1.27
   3  -9  -3   12.67    1.26
  -3   9   3   14.73    1.71
  -3   9   3   12.73    1.72
   2  -9  -3    1.35    0.59
   2  -9  -3    1.79    0.47
   2  -9  -3    1.51    0.83
   2  -9  -3    3.64    0.80
  -2   9   3    1.64    0.75
  -2   9   3    1.71    0.71
  -2   9   3    1.58    0.61
   1  -9  -3    0.30    0.45
   1  -9  -3    1.17    0.68
   1  -9  -3    0.50    0.62
   1  -9  -3    0.72    0.47
  -1   9   3    0.63    0.60
  -1   9   3    0.24    0.56
  -1   9   3   -0.02    0.45
   0  -9  -3   31.38    1.53
   0  -9  -3   29.81    1.37
   0  -9  -3   31.39    1.63
   0   9   3   31.00    1.55
   0   9   3   30.97    1.22
   0   9   3   30.70    1.24
  -1  -9  -3    3.70    0.64
  -1  -9  -3    4.63    0.83
   1   9   3    4.13    0.72
   1   9   3    3.88    0.51
  -2  -9  -3    4.06    0.93
  -2  -9  -3    4.84    0.72
   2   9   3    5.25    0.77
   2   9   3    5.29    0.60
  -3  -9  -3   -0.42    0.65
   4 -10  -3   -0.79    1.00
  -4  10   3    2.59    1.37
  -4  10   3   -0.13    1.41
   3 -10  -3    4.73    0.98
   3 -10  -3    4.19    0.53
  -3  10   3    3.07    1.14
  -3  10   3    2.19    1.08
   2 -10  -3    7.53    0.98
   2 -10  -3    9.91    1.30
   2 -10  -3    9.40    0.91
  -2  10   3    8.42    1.11
  -2  10   3    7.70    1.16
   1 -10  -3   17.49    1.45
   1 -10  -3   17.70    1.29
   1 -10  -3   14.69    1.18
  -1  10   3   15.83    1.54
  -1  10   3   14.43    1.13
  -1  10   3   16.02    1.29
   0 -10  -3   86.13    2.72
   0 -10  -3   87.42    2.66
   0  10   3   87.22    2.30
   0  10   3   84.98    2.28
   0  10   3   89.63    2.79
  -1 -10  -3    3.37    0.84
  -1 -10  -3    2.45    0.70
   1  10   3    4.17    0.61
   1  10   3    4.51    0.87
  -2 -10  -3    1.08    0.66
   2  10   3    0.44    0.75
   2  10   3   -0.48    0.64
  -3 -10  -3    0.15    0.84
   3 -11  -3   -0.05    0.96
  -3  11   3    3.68    1.42
  -3  11   3    1.51    1.20
   2 -11  -3    0.71    0.78
   2 -11  -3   -0.85    0.57
  -2  11   3   -0.21    0.94
   1 -11  -3    3.05    0.80
   1 -11  -3    4.80    1.07
   1 -11  -3    2.94    0.80
  -1  11   3    3.51    0.85
  -1  11   3    3.76    1.07
   0 -11  -3    7.74    1.10
   0 -11  -3    7.64    0.99
   0  11   3    7.10    1.19
   0  11   3    8.02    1.08
  -1 -11  -3    0.67    0.73
  -1 -11  -3    1.46    0.86
   1  11   3    1.27    0.64
   1  11   3    0.15    0.91
  -2 -11  -3    1.59    0.87
  -2 -11  -3    3.00    1.10
   2  11   3    1.82    1.34
   2 -12  -3   14.21    1.45
   2 -12  -3   11.36    1.35
  -2  12   3   17.02    2.17
  -2  12   3   14.80    1.76
   1 -12  -3    1.73    0.95
   1 -12  -3   -1.01    0.83
  -1  12   3    1.25    1.21
  -1  12   3   -0.36    0.95
   0 -12  -3    0.65    0.88
   0 -12  -3   -0.16    0.96
   0  12   3    0.25    1.14
   0  12   3    0.64    0.68
  -1 -12  -3   28.16    2.23
  -1 -12  -3   29.94    1.95
   1  12   3   30.24    2.38
  -1 -13   4   -0.89    1.00
  -1 -13   4   -0.01    1.09
   0  13  -4    9.92    1.37
   0 -13   4    8.45    1.21
   0 -13   4    9.56    1.28
  -1  13  -4   -1.23    0.86
  -1  13  -4   -0.06    1.12
   1 -13   4   -0.60    0.92
   1 -13   4    0.33    0.84
  -2  13  -4   10.08    1.54
  -2  13  -4    6.57    1.22
   2 -13   4    6.40    1.73
   2 -13   4    7.25    1.11
  -2 -12   4    4.87    1.17
  -2 -12   4    0.58    0.99
   1  12  -4   13.05    1.40
  -1 -12   4   10.05    1.18
  -1 -12   4   11.34    1.39
   0  12  -4    7.03    1.08
   0  12  -4    6.33    0.84
   0 -12   4    7.98    1.09
   0 -12   4    5.33    1.12
   0 -12   4    6.01    1.01
  -1  12  -4    2.75    1.03
  -1  12  -4    4.14    0.82
   1 -12   4    4.18    1.31
   1 -12   4    4.05    0.86
   1 -12   4    2.40    0.88
  -2  12  -4   18.66    1.75
  -2  12  -4   15.37    2.06
   2 -12   4   15.35    1.36
   2 -12   4   15.53    1.70
  -3  12  -4    1.24    1.49
  -3  12  -4   -1.01    1.20
   3 -12   4    0.72    1.12
   3 -12   4    0.95    0.89
  -3 -11   4   14.75    1.61
  -3 -11   4   13.79    1.69
  -2 -11   4    2.58    0.82
  -2 -11   4    1.97    1.09
  -2 -11   4    2.86    0.98
   1  11  -4    9.33    1.10
   1  11  -4   10.63    0.82
  -1 -11   4    7.83    1.14
  -1 -11   4   10.15    1.33
  -1 -11   4   11.22    1.24
   0  11  -4    5.74    0.71
   0  11  -4    5.95    0.98
   0 -11   4   10.09    1.42
   0 -11   4    5.32    0.85
   0 -11   4    5.92    0.90
  -1  11  -4   10.50    1.15
  -1  11  -4    9.34    1.09
  -1  11  -4   11.69    1.23
   1 -11   4    7.98    1.00
   1 -11   4    8.64    1.24
   1 -11   4    9.85    1.09
  -2  11  -4    2.09    0.82
  -2  11  -4    2.61    0.98
   2 -11   4   -0.76    0.68
   2 -11   4    1.52    0.57
  -3  11  -4    9.37    1.41
   3 -11   4    7.33    1.17
  -3 -10   4   27.14    2.07
  -3 -10   4   23.08    1.57
  -3 -10   4   24.33    1.80
  -2 -10   4   10.22    1.38
  -2 -10   4    7.02    0.99
   1  10  -4  185.70    3.87
  -1 -10   4  185.81    4.07
  -1 -10   4  188.87    4.56
  -1 -10   4  184.64    4.44
   0  10  -4    1.02    0.49
   0  10  -4    2.58    0.61
   0 -10   4    1.22    0.55
   0 -10   4    3.72    0.76
   0 -10   4    1.41    0.62
   0 -10   4    4.22    0.83
  -1  10  -4    3.16    0.64
  -1  10  -4    3.94    0.74
  -1  10  -4    3.86    0.63
   1 -10   4    2.44    0.66
   1 -10   4    3.55    0.84
   1 -10   4    4.16    0.92
   1 -10   4    2.59    0.58
  -2  10  -4   17.10    1.41
  -2  10  -4   15.70    1.52
   2 -10   4   17.50    1.08
   2 -10   4   17.86    1.89
   2 -10   4   14.01    1.26
  -3  10  -4   -0.48    0.95
  -3  10  -4    1.27    0.85
   3 -10   4    1.08    0.79
   3 -10   4    0.93    0.55
  -4  10  -4    1.41    1.17
  -4  10  -4    2.27    1.26
   4 -10   4    3.41    1.07
  -4  -9   4    1.01    1.09
  -4  -9   4    1.18    0.73
  -3  -9   4   27.13    1.32
  -3  -9   4   30.71    1.58
  -3  -9   4   27.73    1.83
  -2  -9   4  161.33    3.58
  -2  -9   4  156.64    4.09
  -2  -9   4  156.12    3.73
   1   9  -4   46.23    1.22
   1   9  -4   44.22    1.38
  -1  -9   4   46.84    1.76
  -1  -9   4   44.24    1.52
  -1  -9   4   43.40    1.82
  -1  -9   4   45.94    1.61
   0   9  -4    0.35    0.49
   0   9  -4    0.40    0.39
   0  -9   4   -0.27    0.54
   0  -9   4   -0.93    0.47
   0  -9   4    0.50    0.43
   0  -9   4    0.75    0.47
  -1   9  -4  126.13    3.21
  -1   9  -4  120.07    2.96
  -1   9  -4  120.14    2.97
   1  -9   4  126.10    3.04
   1  -9   4  116.54    3.63
   1  -9   4  126.83    3.38
   1  -9   4  119.48    3.27
  -2   9  -4   12.48    1.15
  -2   9  -4   13.12    1.19
  -2   9  -4   13.27    1.28
  -2   9  -4   13.85    1.13
   2  -9   4   12.94    0.89
   2  -9   4   11.34    1.33
   2  -9   4   10.88    1.08
   2  -9   4   10.50    1.33
  -3   9  -4   -0.38    0.82
  -3   9  -4   -0.91    0.65
  -3   9  -4   -0.69    0.77
   3  -9   4    0.49    0.48
   3  -9   4    0.16    0.93
   3  -9   4   -0.36    0.62
  -4   9  -4    4.26    1.09
  -4   9  -4    6.12    1.28
   4  -9   4    2.23    0.76
   4  -9   4    2.63    0.89
  -4  -8   4   -0.24    0.57
  -4  -8   4   -0.11    1.03
  -3  -8   4    6.23    0.78
  -3  -8   4    5.08    0.59
  -3  -8   4    5.88    1.03
  -2  -8   4    7.02    0.71
  -2  -8   4    7.80    0.93
  -2  -8   4    7.33    0.63
  -2  -8   4    7.45    0.87
   1   8  -4    2.59    0.40
   1   8  -4    2.42    0.31
  -1  -8   4    2.17    0.52
  -1  -8   4    2.36    0.57
  -1  -8   4    2.32    0.45
  -1  -8   4    1.93    0.46
   0   8  -4    3.60    0.45
   0   8  -4    2.82    0.54
   0   8  -4    3.54    0.46
   0  -8   4    3.06    0.58
   0  -8   4    3.17    0.52
   0  -8   4    3.87    0.57
   0  -8   4    2.88    0.55
  -1   8  -4   80.85    2.32
  -1   8  -4   79.12    2.16
  -1   8  -4   79.39    2.19
  -1   8  -4   83.27    2.34
   1  -8   4   81.81    2.19
   1  -8   4   80.53    2.45
   1  -8   4   80.21    2.40
   1  -8   4   80.67    2.28
  -2   8  -4   46.74    1.83
  -2   8  -4   42.91    1.65
  -2   8  -4   48.65    1.80
  -2   8  -4   47.75    1.66
   2  -8   4   43.40    1.67
   2  -8   4   44.05    1.83
   2  -8   4   45.06    2.03
   2  -8   4   45.62    1.47
  -3   8  -4   -0.65    0.62
  -3   8  -4   -0.74    0.63
  -3   8  -4    0.71    0.55
  -3   8  -4   -0.56    0.62
   3  -8   4    0.54    0.55
   3  -8   4    0.57    0.40
   3  -8   4    0.35    0.84
   3  -8   4    0.47    0.80
  -4   8  -4    2.93    1.03
  -4   8  -4    2.96    1.03
  -4   8  -4    1.79    0.77
   4  -8   4    0.55    0.74
   4  -8   4    2.71    1.12
  -4  -7   4    1.02    0.44
  -4  -7   4    0.73    0.84
  -3  -7   4   23.43    1.09
  -3  -7   4   24.31    1.44
  -3  -7   4   25.24    0.93
  -2  -7   4    1.48    0.32
  -2  -7   4    1.23    0.47
  -2  -7   4    1.02    0.33
  -2  -7   4    1.19    0.43
   1   7  -4    4.61    0.48
   1   7  -4    5.75    0.38
  -1  -7   4    5.32    0.67
  -1  -7   4    5.69    0.56
  -1  -7   4    6.08    0.67
  -1  -7   4    6.03    0.57
   0   7  -4  125.58    2.67
   0   7  -4  127.04    2.82
   0   7  -4  122.63    2.63
   0  -7   4  128.38    2.99
   0  -7   4  124.26    2.94
   0  -7   4  123.32    2.87
   0  -7   4  121.08    2.84
  -1   7  -4    0.24    0.35
  -1   7  -4    0.98    0.37
  -1   7  -4    0.85    0.37
  -1   7  -4    0.27    0.39
   1  -7   4    0.73    0.32
   1  -7   4    0.03    0.40
   1  -7   4    0.76    0.36
   1  -7   4    0.51    0.42
  -2   7  -4    4.68    0.64
  -2   7  -4    4.93    0.62
  -2   7  -4    5.46    0.70
   2  -7   4    5.93    0.67
   2  -7   4    4.69    0.55
   2  -7   4    5.94    0.76
   2  -7   4    4.51    0.80
  -3   7  -4    6.80    0.87
  -3   7  -4    7.02    0.93
  -3   7  -4    8.42    1.05
  -3   7  -4    6.88    0.86
   3  -7   4   10.65    1.43
   3  -7   4    7.94    0.93
   3  -7   4    8.74    0.73
   3  -7   4    8.11    0.94
  -4   7  -4   14.10    1.63
  -4   7  -4   13.53    1.15
  -4   7  -4   15.01    1.62
   4  -7   4   14.36    1.60
  -5   7  -4    1.94    1.17
  -5   7  -4    3.35    1.32
   5  -7   4   -0.74    0.93
  -5  -6   4    1.25    1.12
  -4  -6   4   15.64    1.34
  -3  -6   4    8.11    0.93
  -3  -6   4    8.07    0.67
  -3  -6   4    8.35    0.51
  -3  -6   4    9.65    0.69
  -2  -6   4   27.42    0.88
  -2  -6   4   28.72    0.84
  -2  -6   4   29.70    1.03
  -2  -6   4   28.96    1.29
   1   6  -4   10.51    0.41
   1   6  -4   11.64    0.49
  -1  -6   4   10.99    0.75
  -1  -6   4   10.56    0.59
  -1  -6   4   10.82    0.67
  -1  -6   4   10.91    0.59
   0   6  -4   79.03    2.09
   0   6  -4   78.18    1.80
   0   6  -4   77.01    1.91
   0   6  -4   79.63    1.84
   0  -6   4   79.59    2.04
   0  -6   4   81.14    2.05
   0  -6   4   79.97    1.97
   0  -6   4   81.33    1.99
  -1   6  -4    1.11    0.33
  -1   6  -4    1.29    0.35
  -1   6  -4    2.00    0.40
   1  -6   4    2.10    0.37
   1  -6   4    2.14    0.37
   1  -6   4    2.72    0.47
   1  -6   4    2.56    0.50
  -2   6  -4   20.00    1.02
  -2   6  -4   19.63    1.07
  -2   6  -4   21.09    0.92
  -2   6  -4   19.97    1.09
   2  -6   4   20.48    1.02
   2  -6   4   19.94    1.25
   2  -6   4   22.48    1.16
   2  -6   4   20.54    0.85
  -3   6  -4    0.68    0.53
  -3   6  -4    0.64    0.40
  -3   6  -4   -0.04    0.51
  -3   6  -4    0.92    0.54
   3  -6   4    0.49    0.56
   3  -6   4    0.13    0.35
   3  -6   4    0.91    0.69
   3  -6   4    0.35    0.41
  -4   6  -4    3.35    0.80
  -4   6  -4    3.30    0.86
  -4   6  -4    2.50    0.84
  -4   6  -4    2.87    0.63
   4  -6   4    2.73    0.63
   4  -6   4    1.89    0.79
  -5   6  -4   27.14    2.26
  -5   6  -4   23.10    2.08
   5  -6   4   25.53    1.55
  -5  -5   4    2.20    0.91
  -5  -5   4    1.70    1.00
  -4  -5   4    1.91    0.58
  -3  -5   4    4.63    0.63
  -3  -5   4    5.33    0.63
  -2  -5   4  198.35    4.24
  -2  -5   4  196.64    3.72
  -2  -5   4  196.13    3.61
   1   5  -4    1.40    0.20
   1   5  -4    1.75    0.17
  -1  -5   4    1.45    0.25
  -1  -5   4    1.71    0.31
  -1  -5   4    2.28    0.41
  -1  -5   4    1.63    0.26
   0   5  -4   11.46    0.51
   0   5  -4   11.05    0.65
   0   5  -4   10.86    0.54
   0   5  -4   10.64    0.57
   0  -5   4   11.16    0.65
   0  -5   4   10.74    0.57
   0  -5   4   11.56    0.62
   0  -5   4   11.48    0.62
  -1   5  -4    0.35    0.24
  -1   5  -4   -0.28    0.22
  -1   5  -4    0.02    0.22
  -1   5  -4    0.11    0.23
   1  -5   4   -0.09    0.19
   1  -5   4    0.10    0.18
   1  -5   4   -0.07    0.27
   1  -5   4    0.24    0.29
  -2   5  -4    3.39    0.50
  -2   5  -4    2.55    0.45
  -2   5  -4    3.90    0.47
  -2   5  -4    3.23    0.50
   2  -5   4    2.59    0.35
   2  -5   4    2.71    0.49
   2  -5   4    3.67    0.50
   2  -5   4    2.31    0.55
  -3   5  -4   20.34    0.92
  -3   5  -4   18.89    1.13
  -3   5  -4   21.83    1.22
  -3   5  -4   21.87    1.15
   3  -5   4   20.71    1.18
   3  -5   4   19.59    1.40
   3  -5   4   21.66    0.95
   3  -5   4   18.99    1.00
  -4   5  -4    0.35    0.70
  -4   5  -4    1.24    0.66
  -4   5  -4    1.50    0.67
  -4   5  -4    0.09    0.48
   4  -5   4    0.85    0.92
   4  -5   4    0.65    0.67
   4  -5   4    0.17    0.49
  -5   5  -4   54.49    2.43
  -5   5  -4   50.11    2.53
  -5  -4   4    9.03    1.10
  -5  -4   4    9.59    1.15
  -4  -4   4   -0.59    0.49
  -4  -4   4    0.29    0.50
  -3  -4   4   23.51    1.01
  -3  -4   4   24.28    1.14
  -2  -4   4   39.05    1.32
  -1  -4   4  107.52    2.43
  -1  -4   4  108.76    2.18
  -1  -4   4  109.18    2.14
   0   4  -4  191.23    3.81
   0   4  -4  199.59    3.66
   0   4  -4  191.24    3.66
   0  -4   4  196.85    3.76
   0  -4   4  195.53    3.73
   0  -4   4  191.61    3.71
   0  -4   4  192.70    3.77
  -1   4  -4  220.47    4.25
  -1   4  -4  215.77    4.27
  -1   4  -4  217.87    4.27
  -1   4  -4  225.60    4.20
   1  -4   4  217.62    4.25
   1  -4   4  219.39    4.31
   1  -4   4  218.03    4.15
   1  -4   4  218.76    4.39
  -2   4  -4  101.25    2.19
  -2   4  -4   98.33    2.39
  -2   4  -4   97.14    2.37
   2  -4   4   97.47    2.29
   2  -4   4   99.10    2.19
   2  -4   4   97.23    2.37
  -3   4  -4    4.58    0.55
  -3   4  -4    4.30    0.57
  -3   4  -4    4.37    0.62
  -3   4  -4    4.62    0.72
   3  -4   4    3.72    0.77
   3  -4   4    3.61    0.93
   3  -4   4    5.02    0.56
  -4   4  -4   12.45    1.18
  -4   4  -4   11.96    0.90
  -4   4  -4   12.93    1.20
  -4   4  -4    9.95    1.19
   4  -4   4   11.52    1.54
   4  -4   4   12.13    0.90
  -5   4  -4    1.54    0.73
  -5   4  -4    0.89    0.93
  -5   4  -4    1.39    0.95
  -5  -3   4   15.91    1.39
  -5  -3   4   13.39    1.56
  -4  -3   4    0.65    0.57
  -4  -3   4    1.32    0.49
  -3  -3   4    5.93    0.66
  -3  -3   4    5.70    0.62
  -2  -3   4   86.19    2.07
   1   3  -4  178.97    3.50
  -1  -3   4  172.52    3.44
  -1  -3   4  176.18    3.16
  -1  -3   4  174.84    3.16
   0   3  -4   40.85    0.99
   0   3  -4   41.75    1.09
   0   3  -4   38.67    0.97
   0  -3   4   40.56    1.03
   0  -3   4   39.70    1.00
   0  -3   4   39.09    1.01
   0  -3   4   39.30    1.04
  -1   3  -4  118.73    2.51
  -1   3  -4  124.83    2.46
  -1   3  -4  118.49    2.52
   1  -3   4  121.86    2.51
   1  -3   4  121.80    2.44
   1  -3   4  119.85    2.55
   1  -3   4  117.96    2.60
  -2   3  -4    7.67    0.59
  -2   3  -4    7.91    0.63
  -2   3  -4    8.05    0.59
  -2   3  -4    8.53    0.50
   2  -3   4    7.87    0.61
   2  -3   4    7.89    0.69
   2  -3   4    8.34    0.51
   2  -3   4    8.18    0.54
  -3   3  -4   24.81    1.10
  -3   3  -4   24.45    1.11
  -3   3  -4   24.70    0.93
  -3   3  -4   25.51    1.20
   3  -3   4   26.20    1.38
   3  -3   4   24.73    0.97
   3  -3   4   24.89    1.09
  -4   3  -4   -0.66    0.41
  -4   3  -4    0.20    0.52
  -4   3  -4    0.08    0.50
  -4   3  -4   -0.75    0.53
   4  -3   4   -0.11    0.49
   4  -3   4   -0.41    0.37
   4  -3   4    1.11    0.77
  -5   3  -4   48.21    2.52
  -5   3  -4   47.10    2.10
  -5   3  -4   47.00    2.27
  -5   3  -4   44.13    1.76
  -5  -2   4    2.38    0.72
  -5  -2   4    2.52    0.89
  -4  -2   4   49.11    1.58
  -4  -2   4   46.44    1.80
  -3  -2   4   18.86    0.98
  -3  -2   4   18.20    0.83
  -2  -2   4    1.09    0.24
  -2  -2   4    0.87    0.22
   1   2  -4   44.92    1.15
  -1  -2   4   45.39    0.86
  -1  -2   4   44.42    1.11
  -1  -2   4   44.87    0.90
   0   2  -4    2.80    0.25
   0   2  -4    3.21    0.28
   0   2  -4    3.02    0.23
   0  -2   4    3.11    0.25
   0  -2   4    3.14    0.27
   0  -2   4    3.48    0.26
  -1   2  -4    1.15    0.23
  -1   2  -4    1.71    0.25
  -1   2  -4    1.63    0.24
  -1   2  -4    1.34    0.21
   1  -2   4    1.40    0.24
   1  -2   4    1.67    0.22
   1  -2   4    1.71    0.24
   1  -2   4    1.07    0.23
  -2   2  -4  108.62    2.36
  -2   2  -4  103.84    2.34
  -2   2  -4  105.84    2.25
  -2   2  -4  105.10    2.40
   2  -2   4  104.25    2.51
   2  -2   4  105.34    2.34
   2  -2   4  107.01    2.27
   2  -2   4  104.38    2.32
  -3   2  -4   31.91    1.19
  -3   2  -4   30.51    1.25
  -3   2  -4   32.79    1.20
  -3   2  -4   30.55    1.08
   3  -2   4   32.57    1.43
   3  -2   4   33.12    1.14
   3  -2   4   30.79    1.03
  -4   2  -4    3.81    0.62
  -4   2  -4    3.53    0.62
  -4   2  -4    3.53    0.58
  -4   2  -4    2.61    0.63
   4  -2   4    3.71    0.86
   4  -2   4    2.98    0.50
  -5   2  -4    1.23    0.78
  -5   2  -4    0.61    0.95
  -5   2  -4   -0.31    0.73
  -5   2  -4    0.21    0.82
   5  -2   4   -0.59    1.13
  -5  -1   4    7.24    1.27
  -5  -1   4    9.48    0.97
  -4  -1   4    0.76    0.36
  -4  -1   4   -0.26    0.48
  -3  -1   4    7.56    0.74
  -3  -1   4    7.67    0.50
  -2  -1   4  143.15    2.81
  -2  -1   4  147.96    3.09
   1   1  -4  256.71    4.56
  -1  -1   4  253.73    4.54
  -1  -1   4  254.75    4.34
  -1  -1   4  252.88    4.38
   0   1  -4    6.33    0.31
   0   1  -4    6.27    0.27
   0   1  -4    6.28    0.31
   0  -1   4    6.01    0.30
   0  -1   4    6.39    0.31
   0  -1   4    6.63    0.30
  -1   1  -4   89.72    1.87
  -1   1  -4   89.08    1.84
  -1   1  -4   86.18    1.80
  -1   1  -4   89.28    1.86
   1  -1   4   89.46    1.88
   1  -1   4   89.21    1.87
   1  -1   4   87.26    1.88
   1  -1   4   86.34    1.85
  -2   1  -4   17.70    0.72
  -2   1  -4   17.30    0.72
  -2   1  -4   17.54    0.72
  -2   1  -4   18.17    0.73
   2  -1   4   17.40    0.72
   2  -1   4   18.15    0.68
   2  -1   4   16.78    0.82
  -3   1  -4    0.20    0.29
  -3   1  -4   -0.30    0.29
  -3   1  -4    0.27    0.35
  -3   1  -4    0.49    0.32
   3  -1   4    0.13    0.32
   3  -1   4    0.41    0.25
   3  -1   4    0.32    0.41
  -4   1  -4   23.61    1.17
  -4   1  -4   20.59    1.20
  -4   1  -4   19.61    1.17
  -4   1  -4   23.01    1.13
   4  -1   4   21.39    1.48
  -5   1  -4    0.41    0.69
  -5   1  -4    0.30    0.88
  -5   1  -4    0.57    0.77
  -5   1  -4    0.20    0.76
   5  -1   4    0.99    1.08
  -5   0   4   13.70    0.87
  -5   0   4   13.99    0.93
  -5   0   4   14.14    1.07
  -5   0   4   13.53    1.66
  -5   0   4   14.88    1.03
  -4   0   4    5.78    0.52
  -4   0   4    4.94    0.77
  -4   0   4    4.28    0.56
  -4   0   4    6.00    0.59
  -3   0   4    1.03    0.22
  -3   0   4    0.84    0.43
  -2   0   4   81.28    1.58
  -2   0   4   78.22    2.01
   1   0  -4   89.01    1.61
   1   0  -4   88.81    1.68
  -1   0   4   89.74    1.64
  -1   0   4   87.65    1.69
  -1   0   4   86.40    1.66
   0   0  -4   15.27    0.49
   0   0  -4   14.20    0.42
   0   0  -4   15.01    0.48
   0   0   4   14.70    0.48
   0   0   4   14.83    0.45
   0   0   4   14.08    0.48
  -1   0  -4    5.24    0.37
  -1   0  -4    4.91    0.35
  -1   0  -4    4.73    0.30
   1   0   4    4.79    0.32
   1   0   4    4.76    0.34
   1   0   4    5.37    0.34
  -2   0  -4  164.85    3.34
  -2   0  -4  162.09    3.15
  -2   0  -4  161.55    3.18
  -2   0  -4  162.19    3.24
   2   0   4  158.53    3.14
   2   0   4  162.44    3.18
   2   0   4  162.95    3.32
  -3   0  -4   17.87    0.81
  -3   0  -4   18.18    0.86
  -3   0  -4   18.34    0.88
  -3   0  -4   18.23    0.95
   3   0   4   18.32    0.75
   3   0   4   16.77    0.98
   3   0   4   17.45    0.70
  -4   0  -4    1.19    0.52
  -4   0  -4    0.80    0.45
  -4   0  -4    1.55    0.57
  -4   0  -4    0.25    0.41
   4   0   4    0.38    0.64
  -5   0  -4    2.26    0.71
  -5   0  -4    2.41    0.89
  -5   0  -4    3.50    0.77
  -5   0  -4    2.36    0.88
   5   0   4    3.58    1.06
  -5   1   4   18.96    1.24
  -5   1   4   17.97    1.17
  -5   1   4   16.58    1.75
  -4   1   4    1.37    0.44
  -4   1   4    1.05    0.62
  -4   1   4    1.25    0.38
  -3   1   4   27.07    1.33
  -3   1   4   31.07    0.90
  -3   1   4   29.08    0.92
  -2   1   4  465.85    8.61
  -2   1   4  453.89    8.04
  -2   1   4  471.34    8.11
   1  -1  -4    0.77    0.11
   1  -1  -4    0.56    0.13
   1  -1  -4    0.69    0.15
  -1   1   4    0.72    0.19
  -1   1   4    0.91    0.17
  -1   1   4    0.68    0.14
   0  -1  -4  195.93    3.57
   0  -1  -4  186.40    3.46
   0  -1  -4  196.07    3.57
   0   1   4  195.86    3.47
   0   1   4  190.82    3.58
  -1  -1  -4   69.18    1.45
  -1  -1  -4   68.36    1.55
   1   1   4   66.70    1.53
   1   1   4   68.67    1.39
   1   1   4   68.89    1.48
  -2  -1  -4  251.68    4.66
  -2  -1  -4  255.82    4.77
  -2  -1  -4  248.01    4.54
   2   1   4  250.06    4.72
   2   1   4  256.60    4.67
   2   1   4  250.84    4.67
  -3  -1  -4    0.65    0.38
  -3  -1  -4    0.00    0.25
  -3  -1  -4   -0.01    0.31
  -3  -1  -4    0.20    0.24
   3   1   4   -0.03    0.22
   3   1   4    0.19    0.26
   3   1   4   -0.14    0.36
  -4  -1  -4    1.86    0.47
  -4  -1  -4    2.06    0.67
  -4  -1  -4    2.17    0.58
  -4  -1  -4    1.99    0.47
  -5  -1  -4    8.18    1.06
  -5  -1  -4    7.92    1.12
  -5  -1  -4    6.56    1.16
  -5  -1  -4    9.24    1.11
   5   1   4    9.33    1.18
  -5   2   4   69.38    2.06
  -5   2   4   65.44    2.17
  -5   2   4   69.74    2.93
  -4   2   4    3.50    0.50
  -4   2   4    3.58    0.74
  -4   2   4    3.72    0.60
   3  -2  -4   58.72    1.91
  -3   2   4   57.40    1.57
  -3   2   4   57.96    1.47
  -3   2   4   57.37    2.01
   2  -2  -4   89.62    1.80
   2  -2  -4   88.47    2.25
  -2   2   4   89.45    1.91
  -2   2   4   88.61    1.99
  -2   2   4   90.59    2.35
   1  -2  -4  127.95    2.48
   1  -2  -4  127.91    2.34
   1  -2  -4  128.43    2.52
  -1   2   4  127.11    2.46
  -1   2   4  127.39    2.59
   0  -2  -4  142.90    2.82
   0  -2  -4  142.32    2.70
   0   2   4  143.18    2.85
   0   2   4  143.11    2.68
  -1  -2  -4    2.41    0.26
  -1  -2  -4    2.65    0.33
   1   2   4    2.42    0.29
   1   2   4    2.63    0.33
  -2  -2  -4 2560.30   59.00
   2   2   4 2583.43   57.67
  -3  -2  -4   12.86    1.24
  -3  -2  -4   13.78    0.69
  -3  -2  -4   12.96    0.55
   3   2   4   13.90    0.80
  -4  -2  -4   -0.22    0.53
  -4  -2  -4    0.14    0.35
  -4  -2  -4    0.13    0.62
  -4  -2  -4    0.10    0.37
   4   2   4   -0.01    0.54
  -5  -2  -4    3.29    0.65
  -5  -2  -4    3.31    1.02
  -5  -2  -4    4.11    0.73
  -5   3   4    2.29    0.86
  -5   3   4    0.28    0.73
  -5   3   4    1.18    1.06
   4  -3  -4   60.69    2.32
  -4   3   4   63.84    2.48
  -4   3   4   61.96    1.94
  -4   3   4   61.97    1.81
   3  -3  -4   94.92    2.67
  -3   3   4   96.68    2.21
  -3   3   4   94.34    2.78
  -3   3   4   92.42    2.32
   2  -3  -4  220.92    4.20
   2  -3  -4  224.22    4.66
   2  -3  -4  224.78    4.22
  -2   3   4  223.47    4.41
  -2   3   4  225.05    4.77
  -2   3   4  222.63    4.26
   1  -3  -4   22.36    0.74
   1  -3  -4   23.02    0.82
  -1   3   4   22.89    0.73
  -1   3   4   21.81    0.84
  -1   3   4   22.79    0.93
   0  -3  -4   47.45    1.17
   0  -3  -4   47.50    1.29
   0   3   4   47.54    1.13
   0   3   4   48.00    1.21
   0   3   4   48.37    1.31
  -1  -3  -4    0.37    0.24
  -1  -3  -4    0.27    0.14
   1   3   4    0.20    0.16
   1   3   4    0.32    0.20
  -2  -3  -4   26.46    0.99
  -2  -3  -4   25.03    0.82
   2   3   4   26.93    0.92
   2   3   4   25.99    0.83
  -3  -3  -4   47.61    1.52
  -3  -3  -4   48.37    1.33
  -4  -3  -4   14.95    0.91
  -4  -3  -4   15.92    1.19
  -5  -3  -4   -1.59    0.62
  -5  -3  -4   -2.15    0.99
  -5   4   4    0.13    1.10
  -5   4   4   -0.44    0.79
  -5   4   4   -0.18    0.85
   4  -4  -4  103.12    3.29
  -4   4   4  109.27    3.44
  -4   4   4  113.10    2.75
  -4   4   4  114.03    2.94
   3  -4  -4   45.40    1.30
   3  -4  -4   47.24    1.29
   3  -4  -4   48.31    1.87
  -3   4   4   46.26    1.45
  -3   4   4   47.60    1.91
  -3   4   4   45.20    1.61
   2  -4  -4    0.10    0.23
   2  -4  -4    0.36    0.28
   2  -4  -4    0.57    0.38
  -2   4   4   -0.16    0.23
  -2   4   4   -0.17    0.30
  -2   4   4    0.31    0.40
   1  -4  -4    0.07    0.25
   1  -4  -4    0.02    0.23
   1  -4  -4   -0.10    0.17
  -1   4   4   -0.10    0.17
  -1   4   4   -0.40    0.26
  -1   4   4    0.12    0.23
   0  -4  -4    1.54    0.34
   0  -4  -4    2.81    0.32
   0   4   4    2.36    0.30
   0   4   4    2.38    0.37
   0   4   4    2.91    0.37
  -1  -4  -4   43.48    1.33
  -1  -4  -4   42.21    1.13
   1   4   4   44.50    1.11
   1   4   4   42.60    1.29
  -2  -4  -4   54.02    1.39
   2   4   4   57.42    1.50
   2   4   4   56.64    1.37
  -3  -4  -4   49.50    1.62
  -3  -4  -4   46.73    1.34
  -4  -4  -4    1.86    0.46
  -4  -4  -4    2.19    0.73
  -5  -4  -4    3.95    0.76
  -5   5   4   -0.76    1.02
  -5   5   4    0.84    1.27
  -5   5   4    1.29    1.01
   4  -5  -4   11.74    1.60
  -4   5   4   13.86    1.27
  -4   5   4   12.54    1.10
  -4   5   4   14.06    1.59
   3  -5  -4   22.10    0.99
   3  -5  -4   20.35    1.41
   3  -5  -4   23.42    1.03
  -3   5   4   21.56    1.42
  -3   5   4   23.69    1.08
  -3   5   4   22.09    1.22
   2  -5  -4    0.33    0.29
   2  -5  -4    1.32    0.49
   2  -5  -4    0.76    0.37
  -2   5   4    0.22    0.37
  -2   5   4    1.03    0.32
  -2   5   4    0.45    0.47
   1  -5  -4   20.65    0.88
   1  -5  -4   24.03    1.04
   1  -5  -4   22.29    0.98
  -1   5   4   21.63    1.03
  -1   5   4   22.35    1.07
   0  -5  -4   13.35    0.66
   0  -5  -4   14.49    0.83
   0   5   4   13.60    0.81
   0   5   4   15.15    0.72
   0   5   4   13.72    0.62
  -1  -5  -4    5.37    0.47
  -1  -5  -4    4.77    0.77
   1   5   4    6.43    0.45
   1   5   4    5.58    0.63
  -2  -5  -4   12.78    0.65
  -2  -5  -4   13.89    0.88
   2   5   4   13.58    0.82
   2   5   4   12.32    0.63
  -3  -5  -4    8.82    0.65
  -3  -5  -4    9.65    0.97
  -4  -5  -4    3.75    0.60
  -4  -5  -4    4.31    0.85
  -5   6   4    5.56    1.39
  -5   6   4    3.68    1.23
   4  -6  -4    1.20    0.50
  -4   6   4    1.27    1.00
  -4   6   4   -0.12    1.09
  -4   6   4    0.85    0.66
   3  -6  -4   -0.40    0.39
   3  -6  -4   -0.02    0.50
   3  -6  -4    0.89    0.68
  -3   6   4    1.19    0.61
  -3   6   4    0.26    0.45
   2  -6  -4    3.10    0.55
   2  -6  -4    2.21    0.46
   2  -6  -4    2.36    0.58
   2  -6  -4    2.65    0.37
  -2   6   4    2.18    0.54
  -2   6   4    2.19    0.46
  -2   6   4    2.67    0.64
   1  -6  -4    1.43    0.38
   1  -6  -4    1.93    0.48
   1  -6  -4    1.72    0.44
  -1   6   4    2.02    0.48
  -1   6   4    1.69    0.36
  -1   6   4    2.01    0.50
   0  -6  -4    2.52    0.39
   0  -6  -4    2.58    0.47
   0   6   4    3.00    0.43
   0   6   4    3.19    0.53
   0   6   4    2.11    0.33
  -1  -6  -4   83.07    2.05
  -1  -6  -4   86.08    2.30
   1   6   4   81.70    2.20
  -2  -6  -4   14.04    1.01
  -2  -6  -4   13.74    0.75
   2   6   4   15.19    0.93
   2   6   4   13.47    0.72
  -3  -6  -4    1.23    0.38
  -3  -6  -4    1.04    0.59
  -4  -6  -4    0.09    0.52
  -4  -6  -4   -0.64    0.84
  -5   7   4    2.21    1.53
  -5   7   4    2.66    1.34
   4  -7  -4    3.48    0.70
   4  -7  -4    3.10    0.80
  -4   7   4    3.85    1.19
  -4   7   4    0.95    0.97
   3  -7  -4   11.62    1.52
   3  -7  -4   11.32    0.97
   3  -7  -4   11.83    1.16
  -3   7   4    9.11    1.17
  -3   7   4   12.93    1.32
  -3   7   4   11.92    1.04
   2  -7  -4  203.41    4.73
   2  -7  -4  204.67    3.98
   2  -7  -4  206.06    4.55
   2  -7  -4  205.79    4.44
  -2   7   4  207.25    4.72
  -2   7   4  209.35    4.36
  -2   7   4  207.25    4.85
   1  -7  -4   81.63    2.17
   1  -7  -4   85.05    2.41
   1  -7  -4   86.06    2.29
   1  -7  -4   84.58    2.35
  -1   7   4   84.47    2.42
  -1   7   4   85.72    2.47
  -1   7   4   84.40    2.14
   0  -7  -4   14.83    1.04
   0  -7  -4   16.25    0.87
   0   7   4   16.37    1.06
   0   7   4   15.49    0.78
   0   7   4   15.81    0.90
  -1  -7  -4    9.73    0.97
  -1  -7  -4    9.87    0.72
   1   7   4   10.33    0.65
   1   7   4   10.34    0.93
  -2  -7  -4   11.17    1.04
  -2  -7  -4   10.20    0.78
   2   7   4    9.94    0.92
   2   7   4    9.51    0.71
  -3  -7  -4   -0.04    0.41
  -4  -7  -4    0.48    0.65
   4  -8  -4    1.25    0.94
   4  -8  -4   -0.18    0.84
  -4   8   4    1.38    1.13
  -4   8   4    1.78    1.08
   3  -8  -4   -0.43    0.62
   3  -8  -4   -1.22    0.94
   3  -8  -4   -1.10    0.75
  -3   8   4    0.98    0.81
  -3   8   4    0.75    0.76
  -3   8   4   -0.58    0.81
   2  -8  -4   22.79    1.42
   2  -8  -4   23.36    0.99
   2  -8  -4   25.91    1.60
  -2   8   4   22.46    1.18
  -2   8   4   23.82    1.54
  -2   8   4   24.84    1.49
   1  -8  -4   69.35    2.05
   1  -8  -4   66.82    2.24
   1  -8  -4   70.48    2.19
   1  -8  -4   70.38    2.13
  -1   8   4   72.32    2.33
  -1   8   4   69.65    1.94
  -1   8   4   71.61    2.25
   0  -8  -4   18.93    1.26
   0  -8  -4   17.96    1.00
   0   8   4   19.44    1.02
   0   8   4   18.04    0.90
   0   8   4   17.05    1.20
  -1  -8  -4    0.32    0.59
  -1  -8  -4    0.12    0.44
   1   8   4   -0.03    0.33
   1   8   4   -1.25    0.50
  -2  -8  -4   18.89    1.08
  -2  -8  -4   17.53    1.38
   2   8   4   20.67    1.21
   2   8   4   21.78    0.99
  -3  -8  -4    9.87    1.07
   4  -9  -4    0.82    0.92
   4  -9  -4   -0.15    1.29
  -4   9   4    3.56    1.32
  -4   9   4   -1.30    1.24
   3  -9  -4   28.33    1.89
   3  -9  -4   28.59    1.62
  -3   9   4   25.61    2.00
  -3   9   4   28.79    2.13
   2  -9  -4    1.24    0.80
   2  -9  -4   -0.04    0.76
   2  -9  -4   -0.17    0.57
   2  -9  -4    0.31    0.46
  -2   9   4    1.26    0.76
  -2   9   4    1.50    0.74
  -2   9   4    0.66    0.72
   1  -9  -4   87.98    2.80
   1  -9  -4   90.92    2.64
   1  -9  -4   91.48    2.54
   1  -9  -4   92.04    2.65
  -1   9   4   89.78    2.87
  -1   9   4   90.65    2.40
  -1   9   4   91.22    2.69
   0  -9  -4    1.61    0.73
   0  -9  -4    0.29    0.44
   0   9   4    0.04    0.43
   0   9   4    0.23    0.45
   0   9   4   -0.84    0.69
  -1  -9  -4   22.91    1.60
  -1  -9  -4   21.34    1.23
   1   9   4   21.86    1.42
   1   9   4   22.51    1.05
  -2  -9  -4    0.60    0.55
   2   9   4    0.82    0.53
   2   9   4    1.13    0.97
  -3  -9  -4   16.01    1.38
   3 -10  -4    3.06    0.54
   3 -10  -4    2.68    0.93
  -3  10   4    2.94    1.18
  -3  10   4    3.79    1.20
   2 -10  -4    6.58    1.11
   2 -10  -4    4.34    0.85
   2 -10  -4    4.29    0.89
  -2  10   4    5.58    1.08
  -2  10   4    2.91    0.99
   1 -10  -4   13.09    1.26
   1 -10  -4   14.88    1.21
  -1  10   4   11.52    1.29
  -1  10   4   16.34    1.35
   0 -10  -4    1.32    0.61
   0 -10  -4    2.48    0.72
   0  10   4    1.72    0.59
   0  10   4    2.00    0.62
   0  10   4    1.86    0.79
  -1 -10  -4    9.88    1.17
   1  10   4   11.24    1.39
   1  10   4    9.38    0.97
  -2 -10  -4    2.89    0.76
   2  10   4    3.37    0.92
   3 -11  -4    4.72    1.13
  -3  11   4    8.46    1.55
  -3  11   4    7.44    1.50
   2 -11  -4   26.96    1.85
   2 -11  -4   27.24    1.48
  -2  11   4   25.82    2.20
  -2  11   4   28.90    2.11
   1 -11  -4   -0.81    0.71
   1 -11  -4   -0.22    0.71
  -1  11   4    0.85    1.01
   0 -11  -4   -0.37    0.72
   0 -11  -4   -0.72    0.78
   0  11   4   -0.22    0.63
   0  11   4   -1.07    0.95
  -1 -11  -4    2.30    0.93
  -1 -11  -4    6.05    0.97
   1  11   4    3.45    1.11
   1  11   4    4.15    0.79
  -2 -11  -4    1.94    0.90
  -2 -11  -4    3.36    1.23
   2 -12  -4   25.88    1.70
   2 -12  -4   24.66    2.07
  -2  12   4   21.51    2.31
  -2  12   4   24.39    2.63
   1 -12  -4    2.73    0.98
   1 -12  -4    2.84    1.06
  -1  12   4    4.08    1.15
  -1  12   4    0.29    1.27
   0 -12  -4    3.76    1.20
   0 -12  -4    3.61    0.98
   0  12   4    7.12    1.37
  -1 -12  -4    6.62    1.17
  -1 -12  -4    5.26    1.20
   1  12   4    7.93    1.49
  -1 -13   5    1.74    1.13
  -1 -13   5    3.46    1.13
   0  13  -5   18.28    2.02
   0 -13   5   18.45    1.73
   0 -13   5   15.70    1.80
  -1  13  -5   15.26    1.63
   1 -13   5   13.98    1.54
   1 -13   5   13.21    1.56
  -2  13  -5   29.16    2.18
  -2  13  -5   38.01    2.66
   2 -13   5   32.50    1.97
  -2 -12   5    4.68    1.13
  -2 -12   5    5.19    1.13
   1  12  -5    2.57    0.77
  -1 -12   5    2.27    1.23
  -1 -12   5    1.76    0.93
  -1 -12   5    2.62    0.89
   0  12  -5    9.60    1.12
   0  12  -5   10.61    1.19
   0 -12   5    9.10    1.18
   0 -12   5    8.66    1.17
   0 -12   5   13.39    1.84
  -1  12  -5    6.34    0.87
  -1  12  -5    5.68    1.13
   1 -12   5    3.76    1.30
   1 -12   5    5.01    0.96
   1 -12   5    6.56    0.99
  -2  12  -5    5.12    1.05
  -2  12  -5    4.62    1.26
   2 -12   5    5.81    0.96
   2 -12   5    7.90    1.19
  -3  12  -5   10.08    2.06
  -3  12  -5    8.03    1.36
   3 -12   5    9.59    1.32
  -3 -11   5    0.76    1.04
  -3 -11   5   -0.48    0.87
  -2 -11   5   42.20    2.21
  -2 -11   5   43.51    2.23
  -2 -11   5   46.29    1.98
   1  11  -5   19.55    1.19
   1  11  -5   19.21    0.93
  -1 -11   5   17.64    1.40
  -1 -11   5   19.61    1.48
  -1 -11   5   18.13    1.68
  -1 -11   5   18.92    1.56
   0  11  -5    4.61    0.71
   0  11  -5    5.39    0.85
   0 -11   5    5.35    0.97
   0 -11   5    5.63    0.92
   0 -11   5    5.72    0.87
  -1  11  -5    1.49    0.59
  -1  11  -5    1.72    0.78
  -1  11  -5   -0.22    0.67
   1 -11   5    2.83    1.02
   1 -11   5    0.38    0.66
   1 -11   5   -0.13    0.55
  -2  11  -5    0.58    0.95
  -2  11  -5    2.16    0.82
   2 -11   5    1.35    0.62
   2 -11   5    1.72    0.79
  -3  11  -5    6.90    1.22
  -3  11  -5    6.09    1.30
   3 -11   5    7.40    1.17
   3 -11   5    6.97    0.96
  -3 -10   5    7.24    1.11
  -3 -10   5    8.00    1.36
  -2 -10   5  127.06    2.87
  -2 -10   5  127.99    3.70
  -2 -10   5  128.22    3.32
  -2 -10   5  129.18    3.43
   1  10  -5    7.25    0.84
   1  10  -5    6.36    0.64
  -1 -10   5    5.18    0.83
  -1 -10   5    7.20    0.96
   0  10  -5    9.84    0.90
   0  10  -5    8.35    1.04
   0 -10   5    7.99    1.03
   0 -10   5    9.73    1.02
   0 -10   5    8.80    1.00
   0 -10   5   10.97    1.25
  -1  10  -5    4.24    0.68
  -1  10  -5    3.37    0.72
  -1  10  -5    4.56    0.65
   1 -10   5    5.38    0.80
   1 -10   5    4.88    0.98
   1 -10   5    3.37    0.89
  -2  10  -5    2.22    0.70
  -2  10  -5    0.39    0.78
   2 -10   5    2.00    1.13
   2 -10   5    0.81    0.65
   2 -10   5    1.47    0.52
  -3  10  -5    1.59    1.01
  -3  10  -5    0.39    0.92
  -3  10  -5    1.34    0.89
   3 -10   5    0.52    0.79
   3 -10   5    1.15    0.64
  -4  10  -5    1.21    1.14
  -4  10  -5    0.43    1.28
   4 -10   5    0.34    1.06
   4 -10   5    0.16    0.95
  -4  -9   5    1.69    1.12
  -4  -9   5    1.32    1.12
  -3  -9   5    3.52    0.80
  -3  -9   5    2.51    0.88
  -3  -9   5    2.55    0.62
  -2  -9   5  105.02    2.67
  -2  -9   5  108.66    3.17
  -2  -9   5  106.91    2.85
  -2  -9   5  106.42    2.46
   1   9  -5   48.83    1.22
   1   9  -5   47.58    1.38
  -1  -9   5   46.10    1.78
  -1  -9   5   46.55    1.61
  -1  -9   5   47.78    1.66
  -1  -9   5   44.97    1.80
   0   9  -5   39.69    1.54
   0   9  -5   41.38    1.37
   0  -9   5   40.71    1.57
   0  -9   5   42.31    1.63
   0  -9   5   41.09    1.74
   0  -9   5   42.24    1.69
  -1   9  -5   55.04    1.92
  -1   9  -5   52.29    1.73
  -1   9  -5   51.77    1.74
   1  -9   5   51.63    1.74
   1  -9   5   53.01    2.10
   1  -9   5   52.48    2.03
  -2   9  -5   42.93    1.80
  -2   9  -5   46.37    1.79
  -2   9  -5   44.71    1.91
   2  -9   5   40.85    1.74
   2  -9   5   42.16    2.18
   2  -9   5   43.47    1.53
   2  -9   5   42.87    1.96
  -3   9  -5    2.71    0.85
  -3   9  -5    3.40    0.94
  -3   9  -5    4.10    0.85
   3  -9   5    3.80    0.81
   3  -9   5    3.53    0.63
  -4   9  -5    1.16    1.03
  -4   9  -5    1.93    1.15
   4  -9   5    1.47    0.80
   4  -9   5    0.95    0.89
  -4  -8   5   11.84    1.35
  -4  -8   5   15.92    1.09
  -3  -8   5   36.38    1.84
  -3  -8   5   33.18    1.26
  -3  -8   5   32.78    1.44
  -2  -8   5   32.37    1.56
  -2  -8   5   35.32    1.39
  -2  -8   5   34.54    1.16
  -2  -8   5   33.81    1.24
   1   8  -5    9.86    0.67
   1   8  -5   10.46    0.54
  -1  -8   5   10.03    0.93
  -1  -8   5   11.11    0.82
  -1  -8   5   12.44    0.83
  -1  -8   5   11.63    0.93
   0   8  -5   13.59    0.77
   0   8  -5   13.44    0.90
   0  -8   5   13.66    0.88
   0  -8   5   11.59    1.00
   0  -8   5   12.71    0.96
   0  -8   5   11.96    0.87
  -1   8  -5  172.37    3.74
  -1   8  -5  174.51    3.87
  -1   8  -5  167.20    3.72
  -1   8  -5  167.67    3.88
   1  -8   5  165.26    3.98
   1  -8   5  167.87    3.73
   1  -8   5  174.11    4.08
   1  -8   5  168.62    3.87
  -2   8  -5    0.39    0.47
  -2   8  -5    0.72    0.52
  -2   8  -5    1.00    0.52
  -2   8  -5   -0.36    0.63
   2  -8   5    0.90    0.37
   2  -8   5   -0.01    0.63
   2  -8   5    0.78    0.47
   2  -8   5    1.18    0.74
  -3   8  -5  124.44    3.41
  -3   8  -5  120.58    3.42
  -3   8  -5  118.25    3.25
  -3   8  -5  123.29    3.04
   3  -8   5  122.65    2.90
   3  -8   5  118.04    3.38
   3  -8   5  118.73    3.17
   3  -8   5  118.47    3.80
  -4   8  -5   -0.36    0.97
  -4   8  -5   -1.56    0.88
  -4   8  -5    0.48    0.78
   4  -8   5   -0.40    0.72
   4  -8   5    1.04    0.68
   4  -8   5   -0.46    1.12
  -4  -7   5   -0.09    0.41
  -4  -7   5    0.24    0.77
  -3  -7   5    3.28    0.45
  -3  -7   5    3.39    0.55
  -3  -7   5    4.23    0.77
  -3  -7   5    3.62    0.51
  -3  -7   5    3.37    0.40
  -2  -7   5    2.65    0.40
  -2  -7   5    2.74    0.61
  -2  -7   5    2.71    0.49
  -2  -7   5    3.17    0.40
   1   7  -5   93.69    1.97
   1   7  -5   95.55    1.89
  -1  -7   5   93.01    2.34
  -1  -7   5   96.16    2.23
  -1  -7   5   95.44    2.26
  -1  -7   5   91.89    2.50
   0   7  -5   10.40    0.74
   0   7  -5   11.83    0.86
   0   7  -5   10.68    0.66
   0  -7   5   12.30    0.85
   0  -7   5    9.47    0.78
   0  -7   5   11.19    0.76
   0  -7   5   10.15    0.73
  -1   7  -5   32.34    1.21
  -1   7  -5   30.98    1.29
  -1   7  -5   30.82    1.20
  -1   7  -5   31.16    1.27
   1  -7   5   32.30    1.42
   1  -7   5   31.15    1.34
   1  -7   5   30.35    1.15
   1  -7   5   31.64    1.25
  -2   7  -5   15.84    0.94
  -2   7  -5   12.19    1.00
  -2   7  -5   13.15    0.96
  -2   7  -5   13.46    1.00
   2  -7   5   12.95    1.12
   2  -7   5   12.99    0.94
   2  -7   5   13.62    0.78
   2  -7   5   13.80    1.21
  -3   7  -5   53.50    2.04
  -3   7  -5   53.37    1.97
  -3   7  -5   53.97    2.01
  -3   7  -5   53.19    1.75
   3  -7   5   50.86    2.02
   3  -7   5   52.46    1.65
   3  -7   5   50.75    2.37
   3  -7   5   57.23    1.90
  -4   7  -5   23.48    1.86
  -4   7  -5   25.51    1.42
  -4   7  -5   27.44    1.85
   4  -7   5   26.32    1.47
   4  -7   5   25.23    1.86
  -5   7  -5   -2.08    1.15
  -5   7  -5    1.35    1.21
   5  -7   5    1.51    0.99
  -5  -6   5   29.39    2.17
  -4  -6   5    1.46    0.77
  -4  -6   5    2.21    0.62
  -3  -6   5   31.22    1.46
  -3  -6   5   30.09    1.15
  -2  -6   5    0.39    0.25
  -2  -6   5    0.22    0.22
  -2  -6   5    0.56    0.32
  -2  -6   5    0.10    0.36
   1   6  -5    6.87    0.35
   1   6  -5    6.48    0.38
  -1  -6   5    6.12    0.51
  -1  -6   5    6.62    0.59
  -1  -6   5    7.05    0.65
  -1  -6   5    6.38    0.54
   0   6  -5   19.30    0.76
   0   6  -5   17.09    1.18
   0   6  -5   18.41    0.80
   0  -6   5   16.87    0.81
   0  -6   5   17.41    0.89
   0  -6   5   18.89    0.87
   0  -6   5   18.00    0.85
  -1   6  -5   13.28    0.77
  -1   6  -5   13.08    0.82
  -1   6  -5   14.55    0.79
  -1   6  -5   14.39    0.80
   1  -6   5   13.45    0.71
   1  -6   5   13.71    0.95
   1  -6   5   14.30    0.90
   1  -6   5   13.64    0.80
  -2   6  -5   10.38    0.75
  -2   6  -5   10.79    0.84
  -2   6  -5   11.24    0.88
  -2   6  -5    9.68    0.86
   2  -6   5   11.05    0.81
   2  -6   5   12.58    0.95
   2  -6   5   11.38    1.07
   2  -6   5   10.50    0.67
  -3   6  -5   13.92    1.11
  -3   6  -5   12.94    0.91
  -3   6  -5   13.71    1.08
   3  -6   5   10.91    1.14
   3  -6   5   15.14    1.42
   3  -6   5   12.57    0.84
   3  -6   5   14.50    0.98
  -4   6  -5   20.37    1.62
  -4   6  -5   21.51    1.24
  -4   6  -5   23.88    1.60
   4  -6   5   20.87    1.59
   4  -6   5   20.32    1.25
  -5   6  -5   -0.20    1.06
  -5   6  -5   -0.03    1.09
   5  -6   5    1.27    0.87
  -5  -5   5    0.15    0.88
  -5  -5   5    1.42    0.94
  -4  -5   5    4.86    0.84
  -4  -5   5    3.92    0.70
  -3  -5   5   14.83    0.88
  -3  -5   5   15.38    1.03
  -2  -5   5  181.27    3.40
  -2  -5   5  183.05    3.97
  -2  -5   5  185.51    3.48
   1   5  -5  169.35    3.03
  -1  -5   5  169.03    3.62
  -1  -5   5  171.42    3.33
  -1  -5   5  171.52    3.38
  -1  -5   5  172.58    3.29
   0   5  -5    9.75    0.54
   0   5  -5   11.26    0.58
   0   5  -5   10.36    0.66
   0  -5   5   10.69    0.65
   0  -5   5   10.41    0.59
   0  -5   5   10.17    0.60
   0  -5   5   10.33    0.60
  -1   5  -5    3.30    0.41
  -1   5  -5    3.78    0.47
  -1   5  -5    2.91    0.42
  -1   5  -5    3.02    0.39
   1  -5   5    3.31    0.39
   1  -5   5    3.23    0.47
   1  -5   5    3.54    0.45
   1  -5   5    2.86    0.44
  -2   5  -5   44.72    1.35
  -2   5  -5   44.34    1.49
  -2   5  -5   43.99    1.52
  -2   5  -5   43.93    1.51
   2  -5   5   46.27    1.55
   2  -5   5   44.55    1.32
   2  -5   5   45.03    1.69
   2  -5   5   44.93    1.45
  -3   5  -5    0.45    0.45
  -3   5  -5    0.57    0.46
  -3   5  -5   -0.28    0.70
  -3   5  -5    0.41    0.47
   3  -5   5    0.82    0.54
   3  -5   5    0.76    0.40
   3  -5   5    0.37    0.35
   3  -5   5    0.71    0.61
  -4   5  -5   49.21    2.00
  -4   5  -5   49.84    1.66
  -4   5  -5   49.61    2.02
  -4   5  -5   49.65    2.09
   4  -5   5   52.50    1.95
   4  -5   5   51.08    1.70
   4  -5   5   50.35    2.48
  -5   5  -5    1.52    1.05
  -5   5  -5    0.24    1.06
   5  -5   5    1.68    0.77
  -5  -4   5   35.39    1.90
  -5  -4   5   31.20    1.79
  -4  -4   5    5.52    0.80
  -4  -4   5    6.55    0.83
  -3  -4   5    2.45    0.48
  -3  -4   5    2.55    0.50
  -2  -4   5  131.88    2.96
   1   4  -5    2.03    0.34
  -1  -4   5    1.39    0.30
  -1  -4   5    1.51    0.22
  -1  -4   5    1.19    0.24
   0   4  -5   11.11    0.60
   0   4  -5   10.57    0.52
   0   4  -5   10.74    0.50
   0  -4   5   10.23    0.54
   0  -4   5   10.52    0.53
   0  -4   5    9.94    0.54
   0  -4   5   10.82    0.58
  -1   4  -5    3.12    0.40
  -1   4  -5    2.71    0.36
  -1   4  -5    3.51    0.43
  -1   4  -5    2.57    0.34
   1  -4   5    3.27    0.35
   1  -4   5    2.82    0.40
   1  -4   5    3.45    0.49
   1  -4   5    2.89    0.39
  -2   4  -5  206.26    4.30
  -2   4  -5  212.74    4.12
  -2   4  -5  210.66    4.29
  -2   4  -5  211.43    4.36
   2  -4   5  208.41    4.53
   2  -4   5  207.94    4.13
   2  -4   5  207.80    4.22
   2  -4   5  210.83    4.33
  -3   4  -5    0.54    0.45
  -3   4  -5    1.04    0.45
  -3   4  -5   -0.13    0.41
  -3   4  -5    0.39    0.34
   3  -4   5    0.32    0.48
   3  -4   5   -0.18    0.51
   3  -4   5    0.08    0.34
  -4   4  -5   -0.60    0.46
  -4   4  -5    0.76    0.58
  -4   4  -5   -0.50    0.61
   4  -4   5    0.06    0.47
   4  -4   5    0.01    0.63
   4  -4   5    1.83    0.86
  -5   4  -5    3.97    0.86
  -5   4  -5    3.83    1.03
  -5   4  -5    4.37    1.13
  -5  -3   5   22.69    1.46
  -5  -3   5   22.83    1.75
  -4  -3   5    1.54    0.52
  -4  -3   5    1.97    0.64
  -3  -3   5    6.93    0.70
  -3  -3   5    7.02    0.65
  -2  -3   5   45.76    1.33
   1   3  -5  208.24    4.07
  -1  -3   5  209.19    3.78
  -1  -3   5  209.59    3.74
  -1  -3   5  209.07    4.02
   0   3  -5    3.14    0.28
   0   3  -5    2.62    0.30
   0   3  -5    2.82    0.32
   0  -3   5    2.47    0.28
   0  -3   5    2.46    0.28
   0  -3   5    2.79    0.34
   0  -3   5    3.26    0.32
  -1   3  -5   15.81    0.66
  -1   3  -5   17.71    0.72
  -1   3  -5   17.14    0.70
  -1   3  -5   17.22    0.67
   1  -3   5   16.84    0.74
   1  -3   5   16.78    0.69
   1  -3   5   16.74    0.75
   1  -3   5   17.08    0.66
  -2   3  -5   11.23    0.69
  -2   3  -5   11.33    0.70
  -2   3  -5   12.59    0.63
  -2   3  -5   11.20    0.70
   2  -3   5   12.19    0.83
   2  -3   5   10.54    0.71
   2  -3   5   12.02    0.65
   2  -3   5   12.05    0.65
  -3   3  -5    5.83    0.66
  -3   3  -5    6.57    0.74
  -3   3  -5    5.31    0.59
  -3   3  -5    5.14    0.67
   3  -3   5    4.39    0.68
   3  -3   5    6.23    0.77
   3  -3   5    6.47    0.63
  -4   3  -5   -0.54    0.58
  -4   3  -5    0.35    0.54
  -4   3  -5    0.43    0.48
  -4   3  -5    0.40    0.51
   4  -3   5   -0.24    0.55
   4  -3   5   -0.41    0.40
   4  -3   5    0.09    0.81
  -5   3  -5    9.09    1.16
  -5   3  -5   10.33    1.26
  -5   3  -5    9.44    1.29
  -5  -2   5   23.33    1.32
  -4  -2   5   -0.09    0.39
  -4  -2   5   -0.35    0.52
  -3  -2   5    0.17    0.25
  -3  -2   5   -0.12    0.34
  -2  -2   5  104.19    2.24
   1   2  -5    0.35    0.17
  -1  -2   5    0.48    0.11
  -1  -2   5    0.49    0.13
  -1  -2   5    0.44    0.15
   0   2  -5  213.48    3.92
   0   2  -5  212.66    3.85
   0   2  -5  214.18    3.97
   0  -2   5  211.02    3.96
   0  -2   5  212.14    3.94
   0  -2   5  217.72    3.91
  -1   2  -5   11.15    0.52
  -1   2  -5   11.95    0.54
  -1   2  -5   11.47    0.56
  -1   2  -5   11.94    0.51
   1  -2   5   11.54    0.57
   1  -2   5   11.56    0.54
   1  -2   5   11.82    0.58
   1  -2   5   10.89    0.52
  -2   2  -5   70.90    1.79
  -2   2  -5   73.42    1.76
  -2   2  -5   70.45    1.80
  -2   2  -5   74.44    1.83
   2  -2   5   73.17    1.83
   2  -2   5   75.22    1.98
   2  -2   5   70.72    1.75
   2  -2   5   71.81    1.83
  -3   2  -5   80.77    2.12
  -3   2  -5   81.86    2.18
  -3   2  -5   78.94    2.13
   3  -2   5   83.66    2.42
   3  -2   5   82.29    2.07
   3  -2   5   79.88    1.97
  -4   2  -5   11.86    1.02
  -4   2  -5   11.37    1.06
  -4   2  -5   11.83    1.12
  -4   2  -5   12.57    0.97
   4  -2   5    9.60    1.15
   4  -2   5   13.06    0.94
  -5   2  -5   -0.26    0.73
  -5   2  -5   -0.92    0.76
  -5   2  -5    0.88    0.81
   5  -2   5   -1.13    1.19
  -5  -1   5    2.16    0.89
  -5  -1   5   -0.18    0.51
  -4  -1   5   -0.80    0.54
  -4  -1   5    0.41    0.35
  -3  -1   5    6.32    0.74
  -3  -1   5    7.07    0.47
  -2  -1   5    1.23    0.20
  -2  -1   5    0.94    0.27
   1   1  -5    0.75    0.17
  -1  -1   5    1.06    0.14
  -1  -1   5    1.19    0.18
  -1  -1   5    0.83    0.14
   0   1  -5   30.24    0.80
   0   1  -5   29.88    0.81
   0   1  -5   28.98    0.73
   0  -1   5   29.65    0.80
   0  -1   5   30.62    0.81
   0  -1   5   30.20    0.78
  -1   1  -5   28.13    0.85
  -1   1  -5   27.78    0.86
  -1   1  -5   27.73    0.81
   1  -1   5   27.45    0.85
   1  -1   5   27.63    0.85
   1  -1   5   28.06    0.88
   1  -1   5   26.74    0.83
  -2   1  -5   42.02    1.23
  -2   1  -5   39.99    1.19
  -2   1  -5   42.02    1.24
  -2   1  -5   40.27    1.16
   2  -1   5   39.77    1.29
   2  -1   5   42.42    1.22
   2  -1   5   41.71    1.17
  -3   1  -5   24.40    1.07
  -3   1  -5   24.35    1.03
  -3   1  -5   24.50    1.04
  -3   1  -5   23.35    1.00
   3  -1   5   23.28    0.90
   3  -1   5   18.73    1.77
   3  -1   5   24.99    0.98
  -4   1  -5    1.58    0.49
  -4   1  -5    0.63    0.49
  -4   1  -5    1.22    0.55
  -4   1  -5    1.69    0.60
   4  -1   5    2.03    0.74
   4  -1   5    2.22    0.48
  -5   1  -5   10.07    1.38
  -5   1  -5    8.62    1.17
  -5   1  -5    7.67    0.99
  -5   1  -5    8.83    1.01
   5  -1   5   10.48    1.43
  -5   0   5    5.11    0.71
  -5   0   5    5.66    0.67
  -5   0   5    4.36    1.13
  -4   0   5    0.64    0.57
  -4   0   5    1.30    0.32
  -4   0   5    1.55    0.30
  -3   0   5   21.00    0.64
  -3   0   5   19.86    1.14
  -2   0   5  170.41    3.13
  -2   0   5  170.95    3.66
  -2   0   5  176.75    3.12
   1   0  -5    4.62    0.28
   1   0  -5    4.43    0.23
   1   0  -5    4.97    0.26
  -1   0   5    4.64    0.27
  -1   0   5    4.28    0.27
  -1   0   5    4.91    0.25
   0   0  -5   36.93    0.85
   0   0  -5   36.87    0.93
   0   0  -5   37.03    0.94
   0   0   5   37.02    0.88
   0   0   5   36.46    0.95
   0   0   5   35.46    0.94
  -1   0  -5   97.49    2.07
  -1   0  -5   95.09    1.97
  -1   0  -5   95.89    2.10
   1   0   5   99.44    2.03
   1   0   5   97.88    1.97
   1   0   5   92.15    2.03
  -2   0  -5    6.68    0.43
  -2   0  -5    7.38    0.56
  -2   0  -5    6.33    0.49
  -2   0  -5    6.52    0.53
   2   0   5    7.32    0.56
   2   0   5    7.15    0.53
   2   0   5    7.00    0.49
  -3   0  -5   14.97    0.90
  -3   0  -5   15.80    0.89
  -3   0  -5   14.37    0.79
  -3   0  -5   15.39    0.76
   3   0   5   14.48    0.96
   3   0   5   15.96    0.78
   3   0   5   14.70    0.73
  -4   0  -5    7.59    0.85
  -4   0  -5    8.19    0.82
  -4   0  -5    7.76    0.99
  -4   0  -5    8.06    1.01
   4   0   5    9.50    1.23
  -5   0  -5    3.77    0.83
  -5   0  -5    4.21    1.04
  -5   0  -5    4.35    1.05
  -5   0  -5    5.55    0.85
   5   0   5    5.71    1.22
  -5   1   5    4.74    1.09
  -5   1   5    5.44    0.81
  -5   1   5    5.27    0.74
  -4   1   5    0.00    0.40
  -4   1   5    0.45    0.59
  -4   1   5    0.22    0.34
  -3   1   5   30.52    0.90
  -3   1   5   29.03    0.94
  -3   1   5   30.11    1.41
  -2   1   5   43.89    1.47
  -2   1   5   46.40    1.15
  -2   1   5   46.89    1.09
   1  -1  -5   80.13    1.65
   1  -1  -5   81.36    1.62
   1  -1  -5   81.24    1.57
  -1   1   5   77.41    1.70
  -1   1   5   79.40    1.60
  -1   1   5   80.75    1.61
   0  -1  -5  172.39    3.30
   0  -1  -5  172.13    3.18
   0  -1  -5  170.47    3.28
   0   1   5  176.63    3.19
  -1  -1  -5  161.56    3.10
  -1  -1  -5  164.66    3.33
  -1  -1  -5  163.40    3.23
   1   1   5  164.90    3.04
   1   1   5  165.88    3.15
  -2  -1  -5  117.66    2.55
  -2  -1  -5  116.20    2.43
  -2  -1  -5  116.81    2.69
   2   1   5  114.52    2.48
   2   1   5  118.73    2.47
   2   1   5  113.42    2.47
  -3  -1  -5   18.52    0.96
  -3  -1  -5   18.76    1.07
  -3  -1  -5   20.09    0.77
  -3  -1  -5   18.60    0.85
   3   1   5   19.70    0.83
   3   1   5   17.24    0.95
   3   1   5   18.39    0.79
  -4  -1  -5    0.51    0.43
  -4  -1  -5    1.00    0.64
  -4  -1  -5    0.75    0.43
  -4  -1  -5    1.81    0.62
   4   1   5    0.91    0.70
  -5  -1  -5    1.61    0.67
  -5  -1  -5    2.22    0.75
  -5  -1  -5    2.86    1.01
  -5   2   5   47.16    1.72
  -5   2   5   47.09    1.87
  -5   2   5   52.61    2.61
  -4   2   5    0.39    0.47
  -4   2   5    0.64    0.68
  -4   2   5    0.13    0.44
  -3   2   5   27.80    1.40
  -3   2   5   26.47    1.03
  -3   2   5   27.69    0.93
   2  -2  -5    4.84    0.34
   2  -2  -5    4.59    0.35
  -2   2   5    4.86    0.39
  -2   2   5    5.77    0.63
  -2   2   5    4.86    0.47
   1  -2  -5   43.64    0.98
   1  -2  -5   44.62    1.13
   1  -2  -5   42.11    1.07
  -1   2   5   44.71    1.07
  -1   2   5   44.03    1.20
   0  -2  -5   32.73    0.97
   0   2   5   32.24    0.84
   0   2   5   32.56    0.99
  -1  -2  -5    0.29    0.21
  -1  -2  -5    0.15    0.13
   1   2   5   -0.20    0.18
   1   2   5    0.15    0.16
  -2  -2  -5   64.57    1.55
  -2  -2  -5   65.88    1.71
   2   2   5   65.58    1.53
   2   2   5   65.29    1.57
   2   2   5   62.15    1.62
  -3  -2  -5  110.04    2.60
  -3  -2  -5  107.50    2.41
   3   2   5  105.37    2.30
   3   2   5  107.74    2.31
   3   2   5  109.53    2.48
  -4  -2  -5    9.48    0.82
  -4  -2  -5   10.10    1.15
  -4  -2  -5    8.21    1.10
   4   2   5    9.21    1.05
  -5  -2  -5    2.11    0.76
  -5  -2  -5    3.11    1.05
  -5   3   5   36.19    1.64
  -5   3   5   37.66    1.85
  -5   3   5   37.74    2.48
  -4   3   5   25.48    1.31
  -4   3   5   25.56    1.69
  -4   3   5   25.62    1.15
  -3   3   5   76.36    2.05
  -3   3   5   74.36    1.85
  -3   3   5   75.25    2.45
   2  -3  -5   11.18    0.59
   2  -3  -5   11.36    0.56
  -2   3   5   11.01    0.87
  -2   3   5   11.21    0.59
  -2   3   5   11.64    0.71
   1  -3  -5  452.09    8.05
   1  -3  -5  440.71    7.97
  -1   3   5  448.13    7.93
  -1   3   5  444.52    8.27
  -1   3   5  455.54    8.15
   0  -3  -5    4.30    0.35
   0  -3  -5    4.83    0.46
   0   3   5    4.23    0.34
   0   3   5    4.95    0.40
   0   3   5    4.24    0.45
  -1  -3  -5   42.68    1.13
   1   3   5   45.07    1.14
   1   3   5   42.79    1.28
  -2  -3  -5    0.43    0.33
  -2  -3  -5   -0.04    0.20
   2   3   5    0.37    0.25
   2   3   5   -0.20    0.27
  -3  -3  -5   13.07    0.92
  -3  -3  -5   13.48    0.74
   3   3   5   12.80    0.70
   3   3   5   13.33    0.72
  -4  -3  -5   16.92    1.00
  -4  -3  -5   15.72    1.28
   4   3   5   16.06    0.96
  -5  -3  -5    4.53    0.83
  -5   4   5    5.54    1.01
  -5   4   5    4.96    0.91
  -5   4   5    5.52    1.35
  -4   4   5   50.55    1.93
  -4   4   5   52.43    1.71
   3  -4  -5    0.36    0.51
   3  -4  -5    0.21    0.29
  -3   4   5    1.17    0.55
  -3   4   5    0.34    0.36
  -3   4   5    0.32    0.46
   2  -4  -5    8.47    0.82
   2  -4  -5    9.92    0.64
   2  -4  -5    8.11    0.58
  -2   4   5    7.90    0.85
  -2   4   5    8.14    0.72
  -2   4   5    8.19    0.91
   1  -4  -5  118.32    2.56
   1  -4  -5  121.53    2.66
  -1   4   5  113.57    2.78
  -1   4   5  118.68    2.73
  -1   4   5  121.08    2.51
   0  -4  -5   10.39    0.66
   0  -4  -5   10.64    0.55
   0   4   5   11.62    0.61
   0   4   5   10.58    0.52
   0   4   5    9.90    0.68
  -1  -4  -5    7.28    0.63
  -1  -4  -5    8.37    0.49
   1   4   5    8.21    0.67
   1   4   5    8.57    0.51
   1   4   5    7.79    0.45
  -2  -4  -5    6.51    0.70
  -2  -4  -5    6.26    0.50
   2   4   5    6.27    0.54
   2   4   5    5.73    0.65
  -3  -4  -5  148.96    3.42
  -3  -4  -5  147.77    3.12
   3   4   5  147.23    2.98
  -4  -4  -5   50.81    1.97
  -4  -4  -5   50.03    2.20
  -5  -4  -5    0.30    0.75
  -5   5   5    1.47    1.25
  -5   5   5    2.57    1.09
  -4   5   5    1.68    0.84
  -4   5   5    0.65    0.73
  -4   5   5    2.35    0.64
   3  -5  -5   19.45    0.98
   3  -5  -5   19.01    1.38
   3  -5  -5   17.20    0.90
  -3   5   5   19.38    1.01
  -3   5   5   18.70    1.18
  -3   5   5   19.27    1.40
   2  -5  -5  312.83    5.93
   2  -5  -5  280.78    6.27
   2  -5  -5  302.63    5.43
   2  -5  -5  312.86    6.30
  -2   5   5  316.14    6.20
  -2   5   5  319.19    5.89
  -2   5   5  309.34    6.45
   1  -5  -5  100.08    2.45
   1  -5  -5   99.15    2.32
  -1   5   5   97.57    2.55
  -1   5   5   98.91    2.51
  -1   5   5   96.84    2.22
   0  -5  -5   88.17    2.25
   0  -5  -5   86.82    2.07
   0   5   5   83.14    2.07
   0   5   5   85.33    2.24
   0   5   5   88.35    2.04
  -1  -5  -5    2.16    0.48
  -1  -5  -5    2.12    0.34
   1   5   5    2.58    0.46
   1   5   5    2.37    0.33
  -2  -5  -5    5.63    0.53
   2   5   5    4.07    0.54
   2   5   5    5.03    0.61
  -3  -5  -5   -0.10    0.31
  -3  -5  -5    0.09    0.55
  -4  -5  -5    0.91    0.86
  -4  -5  -5    1.68    0.58
  -5   6   5    1.40    1.23
  -5   6   5    0.51    1.43
   4  -6  -5    2.50    0.54
  -4   6   5    3.09    0.74
  -4   6   5    2.99    0.87
  -4   6   5    1.51    0.98
   3  -6  -5    1.05    0.44
   3  -6  -5    1.35    0.51
   3  -6  -5    1.69    0.76
  -3   6   5    0.19    0.69
  -3   6   5    0.70    0.59
  -3   6   5    0.49    0.48
   2  -6  -5  152.65    2.98
   2  -6  -5  153.37    3.75
   2  -6  -5  153.73    3.51
   2  -6  -5  150.48    3.42
  -2   6   5  152.51    3.67
  -2   6   5  151.67    3.86
  -2   6   5  155.29    3.37
   1  -6  -5   45.27    1.60
   1  -6  -5   45.62    1.47
  -1   6   5   47.11    1.67
  -1   6   5   45.47    1.37
  -1   6   5   45.67    1.66
   0  -6  -5    1.79    0.45
   0  -6  -5    1.16    0.34
   0   6   5    1.92    0.35
   0   6   5    1.50    0.39
   0   6   5    1.27    0.44
  -1  -6  -5   17.16    1.03
  -1  -6  -5   17.49    0.84
   1   6   5   15.95    0.76
   1   6   5   16.86    1.04
  -2  -6  -5   38.13    1.27
  -2  -6  -5   39.46    1.55
   2   6   5   39.37    1.42
   2   6   5   35.12    1.54
  -3  -6  -5   -1.07    0.62
  -3  -6  -5    0.71    0.50
  -4  -6  -5   -0.28    0.55
  -4  -6  -5    2.77    1.21
  -5   7   5    0.64    2.24
  -5   7   5    3.55    1.43
   4  -7  -5    0.43    0.62
   4  -7  -5    0.83    0.74
  -4   7   5    0.40    1.01
  -4   7   5    0.98    0.98
   3  -7  -5   10.20    0.98
   3  -7  -5   10.48    1.12
   3  -7  -5   10.23    1.24
  -3   7   5    8.53    1.15
  -3   7   5    9.96    1.28
  -3   7   5   10.35    1.04
   2  -7  -5   12.10    1.20
   2  -7  -5   11.75    0.91
   2  -7  -5   12.06    0.67
   2  -7  -5    9.65    1.03
  -2   7   5   12.12    0.89
  -2   7   5   10.33    1.16
  -2   7   5   11.37    1.12
   1  -7  -5  223.47    4.68
   1  -7  -5  224.09    4.83
  -1   7   5  218.85    4.89
  -1   7   5  219.52    4.47
  -1   7   5  220.94    4.85
   0  -7  -5   37.08    1.34
   0  -7  -5   37.26    1.55
   0   7   5   36.08    1.34
   0   7   5   36.50    1.53
  -1  -7  -5    4.58    0.70
  -1  -7  -5    4.74    0.58
   1   7   5    6.05    0.61
   1   7   5    5.61    0.73
  -2  -7  -5   20.89    1.21
  -2  -7  -5   21.37    1.33
   2   7   5   21.82    1.01
   2   7   5   23.77    1.26
  -3  -7  -5    2.59    0.83
  -3  -7  -5    1.47    0.54
  -4  -7  -5    0.96    0.69
   4  -8  -5   70.12    3.29
   4  -8  -5   75.22    2.53
  -4   8   5   70.72    3.02
  -4   8   5   75.90    3.33
   3  -8  -5   -0.34    0.81
   3  -8  -5    1.04    0.63
  -3   8   5   -0.43    0.86
  -3   8   5    0.65    0.88
   2  -8  -5   13.21    0.81
   2  -8  -5   11.78    1.03
   2  -8  -5   14.17    1.38
   2  -8  -5   13.93    1.25
  -2   8   5   12.86    1.31
  -2   8   5   11.01    0.98
  -2   8   5   12.40    1.36
   1  -8  -5   10.47    1.10
   1  -8  -5   10.69    1.28
   1  -8  -5   11.03    0.92
  -1   8   5    9.00    1.20
  -1   8   5   10.02    1.12
  -1   8   5   10.18    0.81
   0  -8  -5    3.66    0.67
   0  -8  -5    3.37    0.73
   0   8   5    4.68    0.64
   0   8   5    5.00    0.66
   0   8   5    4.58    0.75
  -1  -8  -5    5.27    0.84
  -1  -8  -5    4.30    0.62
   1   8   5    7.00    0.71
   1   8   5    5.76    0.81
  -2  -8  -5    1.84    0.81
  -2  -8  -5    1.61    0.52
   2   8   5    1.14    0.65
   2   8   5    2.22    0.53
  -3  -8  -5   31.11    1.56
   4  -9  -5    0.01    0.91
  -4   9   5    0.59    1.36
  -4   9   5    0.27    1.27
   3  -9  -5    3.00    1.09
   3  -9  -5    5.16    0.90
  -3   9   5    4.52    1.17
  -3   9   5    3.48    1.19
   2  -9  -5    1.84    0.88
   2  -9  -5    2.01    0.70
   2  -9  -5    3.15    0.92
   2  -9  -5    2.21    0.54
  -2   9   5    2.42    0.86
  -2   9   5    1.84    0.81
   1  -9  -5  143.15    3.47
   1  -9  -5  135.97    3.72
   1  -9  -5  144.06    3.60
  -1   9   5  144.42    3.83
  -1   9   5  139.13    3.59
   0  -9  -5   44.40    1.73
   0  -9  -5   41.55    1.96
   0   9   5   43.34    1.58
   0   9   5   45.36    1.53
   0   9   5   47.62    1.96
  -1  -9  -5   14.12    1.70
  -1  -9  -5   14.71    1.14
   1   9   5   15.43    0.99
   1   9   5   12.14    1.46
  -2  -9  -5    1.97    0.64
   2   9   5    2.41    0.62
   2   9   5    0.24    0.75
  -3  -9  -5    9.11    1.05
   3 -10  -5    3.69    1.00
  -3  10   5    2.68    1.24
  -3  10   5    1.01    1.20
   2 -10  -5    7.98    0.85
   2 -10  -5    6.53    0.99
  -2  10   5    8.51    1.26
  -2  10   5    7.51    1.24
   1 -10  -5    2.16    0.70
   1 -10  -5    3.66    0.80
  -1  10   5    1.31    0.94
  -1  10   5    3.57    0.86
   0 -10  -5   -0.57    0.57
   0 -10  -5    0.56    0.70
   0  10   5    0.03    0.59
   0  10   5   -0.20    0.59
   0  10   5   -0.76    0.79
  -1 -10  -5    9.22    1.18
   1  10   5    5.94    0.74
   1  10   5    8.09    1.08
  -2 -10  -5    1.61    0.80
   2  10   5    3.03    1.08
   3 -11  -5    1.17    1.09
  -3  11   5   -1.49    1.45
  -3  11   5    2.56    1.67
   2 -11  -5    2.53    0.96
   2 -11  -5    2.43    0.85
  -2  11   5    2.35    1.23
  -2  11   5    1.71    1.23
   1 -11  -5    8.02    1.05
   1 -11  -5    8.04    1.13
  -1  11   5    7.64    1.27
  -1  11   5    8.01    1.13
   0 -11  -5   17.37    1.69
   0 -11  -5   17.79    1.56
   0  11   5   18.21    1.37
   0  11   5   20.11    1.92
  -1 -11  -5   45.95    2.45
  -1 -11  -5   50.26    2.20
   1  11   5   48.07    2.49
   1 -12  -5    2.12    1.02
   1 -12  -5    1.89    1.10
  -1  12   5    2.34    1.17
  -1  12   5    2.80    1.32
   0 -12  -5    0.26    1.12
   0 -12  -5    3.53    1.01
   0  12   5    3.55    1.29
  -1 -13   6    0.55    1.09
  -1 -13   6    2.90    1.10
   0  13  -6    3.19    1.18
   0 -13   6    0.70    1.01
   0 -13   6   -0.05    0.98
  -1  13  -6    9.54    1.45
   1 -13   6   11.30    1.53
   1 -13   6   10.16    1.34
  -2 -12   6    1.11    0.97
  -2 -12   6   -0.06    0.94
   1  12  -6   12.80    1.20
  -1 -12   6   10.90    1.26
  -1 -12   6   12.92    1.62
  -1 -12   6   12.48    1.68
   0  12  -6    1.37    0.85
   0  12  -6    1.66    0.73
   0 -12   6    0.62    1.07
   0 -12   6   -0.10    0.86
   0 -12   6    2.32    0.85
  -1  12  -6   14.95    1.77
   1 -12   6   14.47    1.35
   1 -12   6   14.62    1.57
  -2  12  -6   -0.98    0.83
  -2  12  -6    2.26    1.18
   2 -12   6    1.85    0.80
   2 -12   6    0.69    0.87
  -3 -11   6   -0.39    1.06
  -3 -11   6   -1.61    0.88
  -2 -11   6    2.89    1.09
  -2 -11   6    3.65    0.85
  -2 -11   6    1.54    0.93
   1  11  -6    2.24    0.59
  -1 -11   6    2.44    0.94
  -1 -11   6    3.08    0.86
  -1 -11   6    3.06    0.85
  -1 -11   6    2.23    0.72
   0  11  -6   22.74    1.43
   0  11  -6   22.57    1.25
   0 -11   6   21.74    1.70
   0 -11   6   24.91    1.51
   0 -11   6   22.06    1.54
  -1  11  -6    4.25    0.73
  -1  11  -6    5.45    0.86
  -1  11  -6    4.71    0.93
   1 -11   6    5.90    0.93
   1 -11   6    8.48    1.24
   1 -11   6    7.79    1.03
  -2  11  -6    2.49    1.00
  -2  11  -6    3.43    0.85
   2 -11   6    4.21    0.87
   2 -11   6    2.88    0.72
  -3  11  -6   18.24    2.02
  -3  11  -6   20.62    2.14
   3 -11   6   17.90    1.80
   3 -11   6   17.93    1.50
  -3 -10   6    1.07    0.99
  -3 -10   6    0.52    0.98
  -3 -10   6    1.21    0.72
  -2 -10   6   33.22    1.82
  -2 -10   6   29.41    1.51
  -2 -10   6   31.05    1.71
  -2 -10   6   30.08    1.40
   1  10  -6    9.26    0.66
   1  10  -6    8.85    0.83
  -1 -10   6    8.12    1.04
  -1 -10   6    8.69    1.14
  -1 -10   6   10.10    1.20
   0  10  -6    7.07    0.87
   0  10  -6    6.63    0.79
   0 -10   6    5.47    0.94
   0 -10   6    7.79    0.94
   0 -10   6    5.04    0.79
   0 -10   6    6.55    0.90
  -1  10  -6    3.01    0.73
  -1  10  -6    2.20    0.66
   1 -10   6    2.88    0.62
   1 -10   6    3.42    0.91
   1 -10   6    2.14    0.61
   1 -10   6    2.65    0.86
  -2  10  -6    6.57    1.02
  -2  10  -6    7.98    0.98
  -2  10  -6    8.94    1.08
   2 -10   6    9.52    0.97
   2 -10   6   10.82    2.30
   2 -10   6    8.91    1.19
  -3  10  -6    0.43    1.02
  -3  10  -6    1.25    0.95
  -3  10  -6    0.78    0.85
   3 -10   6    1.26    0.67
   3 -10   6    0.46    0.81
  -4  10  -6    4.62    1.52
  -4  10  -6   10.99    1.68
   4 -10   6    7.91    1.31
   4 -10   6    8.58    1.17
  -4  -9   6    6.33    1.15
  -3  -9   6    4.01    0.83
  -3  -9   6    4.21    0.72
  -3  -9   6    4.62    0.88
  -2  -9   6   33.81    1.70
  -2  -9   6   30.98    1.26
  -2  -9   6   31.80    1.37
  -2  -9   6   34.09    1.55
   1   9  -6   30.41    0.93
   1   9  -6   30.41    1.06
  -1  -9   6   31.42    1.45
  -1  -9   6   33.65    1.55
  -1  -9   6   31.30    1.36
  -1  -9   6   29.90    1.50
   0   9  -6  266.10    5.36
   0   9  -6  261.29    5.20
   0  -9   6  266.30    5.58
   0  -9   6  267.52    5.62
   0  -9   6  268.27    5.65
   0  -9   6  264.28    5.72
  -1   9  -6    1.61    0.62
  -1   9  -6    1.41    0.49
  -1   9  -6    2.19    0.59
  -1   9  -6    2.05    0.54
   1  -9   6    1.60    0.52
   1  -9   6    1.99    0.76
   1  -9   6    1.87    0.49
   1  -9   6    1.20    0.68
  -2   9  -6   10.70    1.24
  -2   9  -6    9.19    1.10
  -2   9  -6   12.13    1.15
  -2   9  -6   12.34    1.22
   2  -9   6   11.88    0.92
   2  -9   6   10.49    1.15
   2  -9   6   12.28    1.60
   2  -9   6   12.45    1.13
  -3   9  -6   17.07    1.69
  -3   9  -6   15.46    1.47
  -3   9  -6   11.72    1.48
   3  -9   6   14.33    1.10
   3  -9   6   15.10    1.36
  -4   9  -6   -0.91    1.01
  -4   9  -6   -0.59    1.12
   4  -9   6    1.92    0.97
   4  -9   6   -0.81    0.82
  -4  -8   6    0.27    0.88
  -4  -8   6    3.26    0.65
  -3  -8   6   -0.54    0.58
  -3  -8   6   -0.71    0.60
  -3  -8   6    0.68    0.43
  -3  -8   6    0.08    0.42
  -3  -8   6    0.72    0.48
  -2  -8   6   50.25    1.50
  -2  -8   6   53.19    1.60
  -2  -8   6   51.54    1.93
  -2  -8   6   50.56    1.71
   1   8  -6  235.20    4.35
   1   8  -6  227.92    4.24
  -1  -8   6  236.32    4.89
  -1  -8   6  237.99    4.73
  -1  -8   6  227.17    5.03
  -1  -8   6  227.64    4.75
   0   8  -6   40.76    1.32
   0   8  -6   40.73    1.43
   0   8  -6   41.14    1.67
   0  -8   6   39.55    1.59
   0  -8   6   41.30    1.52
   0  -8   6   41.77    1.52
   0  -8   6   45.05    1.61
  -1   8  -6    2.43    0.51
  -1   8  -6    3.03    0.62
  -1   8  -6    2.92    0.53
  -1   8  -6    2.75    0.56
   1  -8   6    3.64    0.58
   1  -8   6    2.42    0.64
   1  -8   6    2.72    0.62
   1  -8   6    2.85    0.51
  -2   8  -6  100.98    3.14
  -2   8  -6  109.99    2.79
   2  -8   6  104.25    3.19
   2  -8   6  107.83    3.04
   2  -8   6  105.27    2.59
   2  -8   6   89.59    3.13
  -3   8  -6   11.19    1.36
  -3   8  -6   11.85    1.32
  -3   8  -6   10.19    1.17
   3  -8   6   11.28    1.19
   3  -8   6    9.52    1.14
   3  -8   6   10.36    0.92
  -4   8  -6    2.13    0.99
  -4   8  -6    2.71    0.99
  -4   8  -6    2.22    0.93
   4  -8   6    3.13    0.89
   4  -8   6    2.99    0.81
  -4  -7   6    2.90    0.68
  -4  -7   6    4.64    1.00
  -3  -7   6    0.09    0.34
  -3  -7   6   -0.22    0.42
  -3  -7   6   -0.35    0.33
  -3  -7   6    1.16    0.54
  -3  -7   6    0.26    0.46
  -2  -7   6    8.88    0.87
  -2  -7   6   10.64    0.67
  -2  -7   6   10.08    0.79
  -2  -7   6    9.63    0.66
   1   7  -6   19.15    0.67
   1   7  -6   18.86    0.62
  -1  -7   6   17.68    1.01
  -1  -7   6   18.49    0.89
  -1  -7   6   19.62    1.04
  -1  -7   6   19.03    0.90
   0   7  -6    4.70    0.54
   0   7  -6    3.54    0.48
   0   7  -6    3.72    0.58
   0  -7   6    3.42    0.48
   0  -7   6    3.82    0.53
   0  -7   6    3.80    0.59
  -1   7  -6    0.20    0.39
  -1   7  -6   -0.07    0.35
  -1   7  -6    0.16    0.29
  -1   7  -6    0.10    0.35
   1  -7   6   -0.32    0.40
   1  -7   6    0.20    0.30
   1  -7   6   -0.39    0.44
   1  -7   6    0.34    0.35
  -2   7  -6   61.64    1.96
  -2   7  -6   59.85    1.85
  -2   7  -6   57.85    1.97
  -2   7  -6   60.79    1.94
   2  -7   6   60.17    1.75
   2  -7   6   58.76    2.20
   2  -7   6   60.00    2.06
   2  -7   6   62.36    1.95
  -3   7  -6   30.50    1.62
  -3   7  -6   31.04    1.39
  -3   7  -6   32.18    1.63
  -3   7  -6   31.04    1.59
   3  -7   6   29.46    1.66
   3  -7   6   28.04    1.67
   3  -7   6   30.95    1.98
   3  -7   6   30.91    1.28
  -4   7  -6   -0.33    0.80
  -4   7  -6   -0.03    0.72
  -4   7  -6    1.25    0.89
   4  -7   6    2.11    1.04
   4  -7   6    0.58    0.65
  -5  -6   6    8.02    1.28
  -4  -6   6   17.62    1.42
  -4  -6   6   17.91    1.30
  -3  -6   6    1.31    0.53
  -3  -6   6    1.85    0.40
  -3  -6   6    1.78    0.49
  -2  -6   6   28.29    0.91
  -2  -6   6   29.58    1.02
  -2  -6   6   27.03    1.23
   1   6  -6   13.81    0.48
   1   6  -6   13.15    0.89
   1   6  -6   13.91    0.49
  -1  -6   6   13.98    0.70
  -1  -6   6   14.57    0.77
  -1  -6   6   13.77    0.69
  -1  -6   6   12.56    0.81
   0   6  -6   16.08    0.73
   0   6  -6   16.09    0.77
   0   6  -6   15.26    0.90
   0  -6   6   16.61    0.84
   0  -6   6   17.20    0.82
   0  -6   6   15.21    0.84
   0  -6   6   15.76    0.85
  -1   6  -6  117.31    2.71
  -1   6  -6  116.31    2.79
  -1   6  -6  115.96    2.66
  -1   6  -6  118.45    2.75
   1  -6   6  115.64    2.89
   1  -6   6  115.39    2.83
   1  -6   6  116.41    2.66
   1  -6   6  110.74    2.71
  -2   6  -6    1.02    0.42
  -2   6  -6    1.13    0.43
  -2   6  -6    0.98    0.40
  -2   6  -6    1.27    0.44
   2  -6   6    1.33    0.36
   2  -6   6    1.43    0.52
   2  -6   6    1.36    0.52
   2  -6   6    1.13    0.41
  -3   6  -6   -0.05    0.45
  -3   6  -6    0.21    0.59
  -3   6  -6    0.20    0.57
  -3   6  -6   -0.64    0.46
   3  -6   6    0.52    0.40
   3  -6   6    0.54    0.48
   3  -6   6    0.14    0.70
   3  -6   6    0.21    0.63
  -4   6  -6    2.90    0.91
  -4   6  -6    3.20    0.74
  -4   6  -6    3.33    0.88
   4  -6   6    4.53    1.02
   4  -6   6    4.04    0.84
  -5   6  -6    6.36    1.30
  -5   6  -6    7.86    1.29
   5  -6   6    6.21    1.07
  -5  -5   6   36.48    2.08
  -5  -5   6   41.45    2.09
  -4  -5   6    1.65    0.67
  -4  -5   6    2.80    0.66
  -3  -5   6   26.25    1.26
  -3  -5   6   27.09    1.16
  -2  -5   6    4.41    0.47
  -2  -5   6    5.50    0.37
  -2  -5   6    4.92    0.61
   1   5  -6  110.14    2.68
  -1  -5   6  112.59    2.39
  -1  -5   6  111.34    2.59
  -1  -5   6  108.25    2.31
  -1  -5   6  110.88    2.35
   0   5  -6   42.46    1.20
   0   5  -6   44.27    1.38
   0   5  -6   44.88    1.22
   0  -5   6   44.35    1.31
   0  -5   6   44.52    1.34
   0  -5   6   43.85    1.29
   0  -5   6   43.31    1.32
  -1   5  -6   94.53    2.21
  -1   5  -6   86.74    2.17
  -1   5  -6   88.08    2.13
  -1   5  -6   92.26    2.19
   1  -5   6   88.60    2.13
   1  -5   6   88.15    2.35
   1  -5   6   91.07    2.23
  -2   5  -6    2.83    0.47
  -2   5  -6    2.39    0.46
  -2   5  -6    2.44    0.53
  -2   5  -6    3.48    0.53
   2  -5   6    3.06    0.57
   2  -5   6    2.38    0.54
   2  -5   6    2.49    0.46
   2  -5   6    3.15    0.45
  -3   5  -6   15.20    1.10
  -3   5  -6   13.79    1.06
  -3   5  -6   16.76    1.11
  -3   5  -6   17.20    0.96
   3  -5   6   15.25    1.14
   3  -5   6   15.83    1.34
   3  -5   6   14.97    0.97
   3  -5   6   15.68    0.95
  -4   5  -6    2.61    0.74
  -4   5  -6    3.46    0.86
  -4   5  -6    2.17    0.76
  -4   5  -6    1.73    0.60
   4  -5   6    2.05    0.59
   4  -5   6    2.34    1.05
   4  -5   6    2.54    0.83
  -5   5  -6    5.89    1.15
  -5   5  -6    4.90    1.11
   5  -5   6    6.60    0.96
  -5  -4   6   -0.54    0.78
  -5  -4   6   -0.94    0.89
  -4  -4   6    2.04    0.67
  -4  -4   6    2.20    0.60
  -3  -4   6    1.86    0.44
  -3  -4   6    1.72    0.44
  -2  -4   6    6.04    0.58
   1   4  -6  404.35    7.41
  -1  -4   6  391.84    7.32
  -1  -4   6  397.03    7.07
  -1  -4   6  401.09    7.06
   0   4  -6   11.36    0.63
   0   4  -6   11.21    0.53
   0   4  -6   11.23    0.55
   0  -4   6   10.59    0.58
   0  -4   6   11.74    0.57
   0  -4   6   11.68    0.59
   0  -4   6   11.16    0.62
  -1   4  -6   29.41    1.01
  -1   4  -6   30.25    1.01
  -1   4  -6   28.89    1.03
  -1   4  -6   27.33    0.96
   1  -4   6   29.13    1.08
   1  -4   6   29.71    0.99
   1  -4   6   29.18    1.02
   1  -4   6   30.24    1.12
  -2   4  -6    6.18    0.56
  -2   4  -6    4.62    0.60
  -2   4  -6    5.18    0.62
  -2   4  -6    4.94    0.60
   2  -4   6    4.92    0.59
   2  -4   6    5.13    0.54
   2  -4   6    4.94    0.57
   2  -4   6    5.55    0.73
  -3   4  -6    3.42    0.61
  -3   4  -6    4.81    0.59
  -3   4  -6    4.84    0.67
  -3   4  -6    5.05    0.66
   3  -4   6    5.34    0.71
   3  -4   6    4.26    0.78
   3  -4   6    4.25    0.66
  -4   4  -6    6.94    0.79
  -4   4  -6    8.04    0.93
  -4   4  -6    7.05    0.93
  -4   4  -6    8.39    0.98
   4  -4   6    8.35    1.23
   4  -4   6    8.61    0.94
   4  -4   6    8.33    0.95
  -5   4  -6    0.67    1.01
  -5   4  -6    0.77    0.86
  -5   4  -6    0.25    0.96
  -5  -3   6  161.48    3.75
  -5  -3   6  154.64    4.69
  -4  -3   6   23.77    1.16
  -4  -3   6   22.11    1.37
  -3  -3   6   -0.46    0.27
  -3  -3   6    0.38    0.38
  -2  -3   6   31.88    1.06
   1   3  -6   17.31    0.74
  -1  -3   6   17.33    0.70
  -1  -3   6   17.62    0.56
  -1  -3   6   17.26    0.58
   0   3  -6  147.38    2.84
   0   3  -6  151.94    2.92
   0   3  -6  148.60    3.01
   0  -3   6  147.60    2.95
   0  -3   6  147.44    2.98
   0  -3   6  143.94    2.90
   0  -3   6  148.72    2.94
  -1   3  -6  120.95    2.56
  -1   3  -6  121.48    2.60
  -1   3  -6  116.48    2.50
  -1   3  -6  123.84    2.58
   1  -3   6  120.65    2.56
   1  -3   6  121.69    2.63
   1  -3   6  123.16    2.67
   1  -3   6  117.78    2.58
  -2   3  -6   54.87    1.57
  -2   3  -6   55.65    1.51
  -2   3  -6   54.85    1.58
  -2   3  -6   56.42    1.66
   2  -3   6   54.96    1.56
   2  -3   6   53.95    1.61
   2  -3   6   54.96    1.54
  -3   3  -6   42.61    1.53
  -3   3  -6   41.54    1.38
  -3   3  -6   43.44    1.53
  -3   3  -6   42.44    1.50
   3  -3   6   41.99    1.50
   3  -3   6   41.71    1.73
   3  -3   6   41.06    1.38
  -4   3  -6   -0.19    0.55
  -4   3  -6    1.25    0.53
  -4   3  -6    0.92    0.66
   4  -3   6    1.82    0.83
   4  -3   6    0.26    0.65
   4  -3   6    1.67    0.51
  -5   3  -6    5.79    0.97
  -5   3  -6    6.00    1.05
  -5   3  -6    6.11    1.06
  -5  -2   6    8.56    1.27
  -5  -2   6    8.28    1.05
  -4  -2   6   24.99    1.46
  -4  -2   6   25.79    1.09
  -3  -2   6    1.13    0.43
  -3  -2   6    1.40    0.31
  -2  -2   6   10.36    0.54
   1   2  -6  219.61    4.15
  -1  -2   6  217.71    4.10
  -1  -2   6  219.43    3.87
  -1  -2   6  216.53    3.95
   0   2  -6  169.68    3.18
   0   2  -6  178.59    3.31
   0  -2   6  168.56    3.30
   0  -2   6  169.10    3.33
   0  -2   6  175.59    3.28
  -1   2  -6   20.56    0.75
  -1   2  -6   22.90    0.79
  -1   2  -6   21.74    0.81
   1  -2   6   21.73    0.81
   1  -2   6   22.01    0.80
   1  -2   6   21.41    0.80
   1  -2   6   20.18    0.77
  -2   2  -6   42.28    1.25
  -2   2  -6   38.63    1.24
  -2   2  -6   40.70    1.29
  -2   2  -6   40.88    1.23
   2  -2   6   40.98    1.31
   2  -2   6   39.72    1.22
   2  -2   6   39.17    1.36
   2  -2   6   40.23    1.29
  -3   2  -6   10.62    0.77
  -3   2  -6    9.49    0.77
  -3   2  -6   10.21    0.85
  -3   2  -6    8.94    0.75
   3  -2   6   10.20    1.00
   3  -2   6   11.14    0.76
   3  -2   6    9.72    0.84
  -4   2  -6    7.48    0.93
  -4   2  -6    8.17    0.97
  -4   2  -6    6.24    0.85
  -4   2  -6    6.46    0.79
   4  -2   6    5.62    0.98
   4  -2   6    6.22    0.74
  -5   2  -6    0.39    0.83
  -5   2  -6   -0.35    0.87
  -5   2  -6    1.63    0.86
   5  -2   6   -0.17    1.51
  -5  -1   6   17.44    0.98
  -5  -1   6   19.13    1.86
  -4  -1   6    2.66    0.71
  -4  -1   6    3.55    0.46
  -3  -1   6  103.65    2.19
  -3  -1   6  105.08    2.75
   2   1  -6   35.95    1.01
  -2  -1   6   35.28    0.94
   1   1  -6    1.64    0.17
   1   1  -6    1.29    0.22
   1   1  -6    1.50    0.19
  -1  -1   6    1.27    0.19
  -1  -1   6    1.66    0.22
  -1  -1   6    1.48    0.19
   0   1  -6   17.74    0.62
   0   1  -6   17.20    0.61
   0   1  -6   16.45    0.52
   0  -1   6   17.58    0.59
   0  -1   6   16.39    0.60
   0  -1   6   15.31    0.59
  -1   1  -6    2.88    0.35
  -1   1  -6    2.10    0.28
  -1   1  -6    2.26    0.32
   1  -1   6    2.66    0.33
   1  -1   6    2.85    0.36
   1  -1   6    2.62    0.34
   1  -1   6    2.41    0.32
  -2   1  -6    1.55    0.31
  -2   1  -6    1.24    0.26
  -2   1  -6    0.64    0.31
  -2   1  -6    1.66    0.34
   2  -1   6    1.19    0.32
   2  -1   6    1.10    0.31
   2  -1   6    1.65    0.34
  -3   1  -6   32.11    1.25
  -3   1  -6   30.44    1.15
  -3   1  -6   29.10    1.14
  -3   1  -6   32.75    1.26
   3  -1   6   30.41    1.38
   3  -1   6   31.28    1.12
   3  -1   6   28.64    1.14
  -4   1  -6    4.96    0.75
  -4   1  -6    5.08    0.68
  -4   1  -6    3.74    0.73
  -4   1  -6    4.79    0.66
   4  -1   6    5.85    0.73
   4  -1   6    4.46    0.92
   4  -1   6    4.28    0.64
  -5   1  -6    3.04    0.85
  -5   1  -6    4.48    1.01
  -5   1  -6    3.81    0.88
   5  -1   6    1.51    1.24
  -5   0   6   28.85    1.32
  -5   0   6   30.67    2.08
  -4   0   6   12.11    1.25
  -4   0   6   12.38    0.66
  -3   0   6    1.42    0.46
  -3   0   6    1.65    0.25
  -3   0   6    1.37    0.26
  -3   0   6    1.56    0.21
   2   0  -6   10.37    0.46
  -2   0   6    9.94    0.39
  -2   0   6   10.91    0.42
  -2   0   6   10.45    0.72
   1   0  -6  159.40    2.89
   1   0  -6  161.49    2.94
   1   0  -6  161.95    2.98
  -1   0   6  156.02    2.97
  -1   0   6  161.07    2.91
  -1   0   6  153.21    3.00
   0   0  -6  218.17    3.97
   0   0  -6  217.27    4.08
   0   0  -6  225.69    4.11
   0   0   6  216.93    4.12
   0   0   6  216.09    4.12
   0   0   6  225.04    4.02
  -1   0  -6    0.14    0.18
  -1   0  -6    0.81    0.22
  -1   0  -6    0.58    0.17
   1   0   6    0.62    0.22
   1   0   6    0.48    0.18
  -2   0  -6   13.59    0.66
  -2   0  -6   12.69    0.72
  -2   0  -6   12.70    0.75
   2   0   6   13.06    0.67
   2   0   6   13.35    0.72
   2   0   6   12.02    0.67
  -3   0  -6    3.41    0.55
  -3   0  -6    2.54    0.52
  -3   0  -6    3.48    0.49
  -3   0  -6    3.13    0.42
   3   0   6    2.25    0.44
   3   0   6    2.92    0.43
   3   0   6    3.87    0.61
  -4   0  -6    1.20    0.64
  -4   0  -6    0.40    0.60
  -4   0  -6    0.12    0.47
  -4   0  -6    0.27    0.45
   4   0   6    2.21    0.77
  -5   0  -6    9.03    1.11
  -5   0  -6    9.83    1.30
   5   0   6    9.38    1.64
  -5   1   6    5.50    0.82
  -5   1   6    7.17    1.28
  -5   1   6    6.58    0.76
  -4   1   6   28.07    1.15
  -4   1   6   30.66    1.06
  -4   1   6   32.39    1.72
  -3   1   6   16.84    1.14
  -3   1   6   16.48    0.74
  -3   1   6   17.70    0.69
   2  -1  -6    0.97    0.17
  -2   1   6    0.61    0.19
  -2   1   6    1.05    0.15
  -2   1   6    0.98    0.23
  -2   1   6    0.62    0.32
   1  -1  -6  150.88    2.87
   1  -1  -6  149.31    2.82
   1  -1  -6  149.98    2.79
  -1   1   6  145.98    2.94
  -1   1   6  147.86    2.83
  -1   1   6  150.57    2.82
   0  -1  -6   71.86    1.65
   0  -1  -6   71.73    1.54
   0  -1  -6   72.14    1.64
   0   1   6   74.00    1.56
  -1  -1  -6    0.77    0.26
  -1  -1  -6    1.30    0.22
  -1  -1  -6    0.74    0.23
   1   1   6    1.44    0.25
  -2  -1  -6    0.13    0.21
  -2  -1  -6    0.23    0.27
  -2  -1  -6    0.49    0.36
   2   1   6    0.37    0.26
   2   1   6    1.13    0.28
   2   1   6    0.12    0.24
  -3  -1  -6   52.53    1.79
  -3  -1  -6   53.32    1.68
  -3  -1  -6   53.15    1.52
   3   1   6   51.12    1.49
   3   1   6   52.38    1.65
   3   1   6   54.11    1.51
  -4  -1  -6    3.34    0.86
  -4  -1  -6    3.40    0.75
  -4  -1  -6    2.25    0.53
   4   1   6    2.20    0.73
  -5  -1  -6    1.07    0.73
  -5   2   6    0.08    0.64
  -5   2   6    0.66    1.01
  -5   2   6    0.11    0.73
  -4   2   6   16.86    1.46
  -4   2   6   16.42    1.05
  -3   2   6    1.71    0.56
  -3   2   6    1.56    0.38
  -3   2   6    1.64    0.33
   2  -2  -6   29.58    0.82
   2  -2  -6   28.41    0.82
  -2   2   6   28.43    1.23
  -2   2   6   28.00    0.87
  -2   2   6   28.73    1.00
   1  -2  -6  436.74    7.77
   1  -2  -6  441.43    7.68
   1  -2  -6  441.86    7.84
  -1   2   6  440.83    8.11
  -1   2   6  432.04    7.73
  -1   2   6  450.87    7.96
   0  -2  -6    0.02    0.13
   0  -2  -6    0.14    0.19
   0  -2  -6   -0.12    0.17
   0   2   6   -0.20    0.19
   0   2   6    0.01    0.14
  -1  -2  -6   57.43    1.52
  -1  -2  -6   55.59    1.35
   1   2   6   57.74    1.39
   1   2   6   55.42    1.51
  -2  -2  -6   28.44    0.95
  -2  -2  -6   28.45    1.36
   2   2   6   28.95    0.99
   2   2   6   27.47    1.05
   2   2   6   30.80    0.94
  -3  -2  -6  125.56    2.78
  -3  -2  -6  123.56    3.21
  -3  -2  -6  129.01    3.00
   3   2   6  127.36    2.76
   3   2   6  126.37    2.73
   3   2   6  127.09    2.83
  -4  -2  -6    0.33    0.75
  -4  -2  -6   -1.57    0.65
  -4  -2  -6    0.75    0.46
   4   2   6   -1.18    0.57
  -5  -2  -6    0.92    0.76
  -5   3   6    0.53    0.85
  -5   3   6    1.00    0.73
  -5   3   6    1.14    1.07
  -4   3   6  132.32    3.85
  -4   3   6  126.95    3.15
  -4   3   6  127.76    2.93
  -3   3   6    5.04    0.62
  -3   3   6    4.52    0.74
   2  -3  -6   42.95    1.18
   2  -3  -6   41.62    1.17
  -2   3   6   41.20    1.19
  -2   3   6   41.77    1.35
   1  -3  -6  168.12    3.18
   1  -3  -6  164.55    3.28
  -1   3   6  164.17    3.46
  -1   3   6  164.55    3.58
  -1   3   6  165.90    3.23
   0  -3  -6   96.89    2.08
   0   3   6   95.20    2.27
   0   3   6   96.31    2.03
  -1  -3  -6   63.22    1.54
  -1  -3  -6   67.60    1.76
   1   3   6   63.70    1.74
   1   3   6   66.44    1.57
  -2  -3  -6    2.00    0.33
  -2  -3  -6    2.95    0.50
   2   3   6    2.30    0.32
   2   3   6    1.73    0.42
   2   3   6    2.43    0.38
  -3  -3  -6  734.47   13.08
  -3  -3  -6  720.83   12.76
   3   3   6  719.67   12.71
   3   3   6  719.04   12.66
  -4  -3  -6    4.66    0.72
  -4  -3  -6    5.53    0.91
  -5  -3  -6    0.13    0.78
  -5   4   6   -0.35    0.82
  -5   4   6   -1.27    0.95
  -4   4   6    0.29    0.53
  -4   4   6    0.21    0.66
  -4   4   6   -1.74    0.82
   3  -4  -6  119.07    2.52
   3  -4  -6  114.37    2.51
  -3   4   6  120.00    2.98
  -3   4   6  117.95    3.40
  -3   4   6  120.28    2.72
   2  -4  -6  138.49    2.97
   2  -4  -6  140.89    2.96
  -2   4   6  136.24    3.46
  -2   4   6  135.23    3.17
  -2   4   6  138.80    2.94
   1  -4  -6  118.21    2.56
   1  -4  -6  116.72    2.65
  -1   4   6  115.05    2.81
  -1   4   6  114.73    2.73
   0  -4  -6   17.48    0.99
   0  -4  -6   17.24    0.73
   0   4   6   18.87    0.92
   0   4   6   18.19    0.70
   0   4   6   17.64    0.80
  -1  -4  -6   17.40    0.73
   1   4   6   17.02    0.91
   1   4   6   17.20    0.65
   1   4   6   17.22    0.74
  -2  -4  -6    0.79    0.27
  -2  -4  -6    0.70    0.42
   2   4   6    1.21    0.33
   2   4   6    1.01    0.42
  -3  -4  -6   28.36    1.41
  -3  -4  -6   31.11    1.13
   3   4   6   30.68    1.18
   3   4   6   31.25    1.12
  -4  -4  -6   29.05    1.31
  -4  -4  -6   30.32    1.73
  -5   5   6    1.09    1.10
  -5   5   6    0.52    1.36
  -4   5   6    0.65    0.60
  -4   5   6   -0.03    0.83
  -4   5   6    0.87    1.26
   3  -5  -6  113.18    2.63
  -3   5   6  113.92    3.02
  -3   5   6  115.44    2.75
   2  -5  -6   24.19    1.10
   2  -5  -6   24.82    0.74
   2  -5  -6   24.11    0.72
   2  -5  -6   24.12    1.04
  -2   5   6   24.95    1.40
  -2   5   6   22.87    1.21
  -2   5   6   25.36    1.02
   1  -5  -6    3.90    0.52
   1  -5  -6    5.03    0.65
  -1   5   6    4.18    0.49
  -1   5   6    3.81    0.57
  -1   5   6    3.63    0.58
   0  -5  -6    6.03    0.54
   0  -5  -6    7.09    0.69
   0   5   6    6.63    0.51
   0   5   6    6.62    0.63
   0   5   6    6.36    0.70
  -1  -5  -6    1.82    0.47
  -1  -5  -6    1.56    0.35
   1   5   6    1.76    0.46
   1   5   6    1.96    0.34
   1   5   6    2.08    0.32
  -2  -5  -6    9.92    0.67
  -2  -5  -6    9.78    0.92
   2   5   6   10.18    0.77
   2   5   6    9.70    0.88
  -3  -5  -6   11.26    1.20
  -3  -5  -6   12.61    0.81
   3   5   6   12.29    0.84
   3   5   6   12.70    0.92
  -4  -5  -6   17.18    1.71
  -4  -5  -6   19.19    1.23
  -5   6   6    8.52    1.60
  -5   6   6    6.15    1.36
   4  -6  -6    0.90    0.49
   4  -6  -6    0.60    0.57
  -4   6   6   -0.10    0.84
  -4   6   6    0.23    1.02
  -4   6   6    0.25    0.69
   3  -6  -6   18.30    1.15
   3  -6  -6   20.62    1.09
  -3   6   6   17.56    1.09
  -3   6   6   19.18    1.54
  -3   6   6   20.37    2.14
   2  -6  -6   37.77    1.47
   2  -6  -6   36.92    1.07
   2  -6  -6   36.41    1.39
  -2   6   6   40.41    1.64
  -2   6   6   40.34    1.38
  -2   6   6   38.64    1.75
   1  -6  -6    0.37    0.40
   1  -6  -6    0.50    0.32
  -1   6   6   -0.20    0.46
  -1   6   6    0.68    0.32
  -1   6   6    0.35    0.44
   0  -6  -6    7.73    0.64
   0  -6  -6    6.81    0.79
   0   6   6    7.99    0.59
   0   6   6    6.88    0.84
   0   6   6    7.14    0.75
  -1  -6  -6    5.95    0.60
  -1  -6  -6    6.65    0.77
   1   6   6    6.63    0.75
   1   6   6    5.70    0.60
  -2  -6  -6    2.01    0.42
   2   6   6    2.18    0.58
   2   6   6    3.18    0.48
  -3  -6  -6    2.10    0.52
  -3  -6  -6    2.53    0.75
   3   6   6    3.64    0.57
   3   6   6    3.43    0.60
  -4  -6  -6    0.18    0.63
   4  -7  -6    1.98    0.68
  -4   7   6    1.23    1.06
  -4   7   6    2.05    1.06
   3  -7  -6    0.36    0.52
   3  -7  -6    0.27    0.68
  -3   7   6   -0.26    0.74
  -3   7   6    0.02    0.58
  -3   7   6   -0.75    0.80
   2  -7  -6    0.43    0.46
   2  -7  -6    0.46    0.33
   2  -7  -6   -0.38    0.56
  -2   7   6    0.24    0.44
  -2   7   6    0.89    0.67
  -2   7   6   -0.15    0.59
   1  -7  -6    3.37    0.66
   1  -7  -6    3.88    0.58
  -1   7   6    4.88    0.65
  -1   7   6    4.32    0.73
  -1   7   6    6.03    0.79
   0  -7  -6    0.06    0.33
   0  -7  -6    0.47    0.51
   0   7   6    0.29    0.44
   0   7   6   -0.36    0.32
   0   7   6   -0.52    0.47
  -1  -7  -6    1.45    0.42
  -1  -7  -6    2.01    0.62
   1   7   6    2.02    0.43
   1   7   6    2.53    0.63
  -2  -7  -6   23.74    1.14
   2   7   6   21.21    1.08
   2   7   6   24.81    1.35
  -3  -7  -6    4.05    0.68
   3   7   6    4.43    0.63
  -4  -7  -6    1.23    0.78
  -4   8   6    6.09    1.35
  -4   8   6    3.71    1.45
   3  -8  -6    6.53    1.02
   3  -8  -6    7.34    0.90
  -3   8   6    7.75    1.25
  -3   8   6    6.66    1.15
   2  -8  -6    9.40    1.00
   2  -8  -6    9.57    0.79
   2  -8  -6    9.68    1.25
  -2   8   6   10.63    1.00
  -2   8   6    8.74    1.34
  -2   8   6   10.26    1.29
   1  -8  -6  129.68    3.41
   1  -8  -6  130.08    3.25
  -1   8   6  127.75    3.38
  -1   8   6  125.92    3.44
  -1   8   6  124.16    2.96
   0  -8  -6   33.24    1.62
   0  -8  -6   30.95    1.36
   0   8   6   32.70    1.38
   0   8   6   31.01    1.22
  -1  -8  -6   11.72    0.94
  -1  -8  -6   11.35    1.27
   1   8   6   11.07    0.88
   1   8   6   10.27    1.07
  -2  -8  -6    3.37    0.64
   2   8   6    2.82    0.76
   2   8   6    3.40    0.63
  -3  -8  -6    5.53    0.84
   4  -9  -6    0.05    1.00
  -4   9   6   -1.44    1.32
  -4   9   6    3.76    1.57
   3  -9  -6    0.35    0.78
  -3   9   6   -0.22    1.05
  -3   9   6   -0.44    1.06
   2  -9  -6    0.51    0.53
   2  -9  -6    0.00    0.60
  -2   9   6    0.40    0.83
  -2   9   6    1.63    0.88
   1  -9  -6   28.60    2.56
   1  -9  -6   33.13    1.53
   1  -9  -6   31.30    1.55
  -1   9   6   29.09    1.76
  -1   9   6   28.26    1.56
  -1   9   6   30.00    1.67
   0  -9  -6   75.23    2.37
   0   9   6   74.28    2.09
   0   9   6   73.74    2.20
   0   9   6   74.25    2.58
  -1  -9  -6    9.39    1.09
   1   9   6   10.42    1.01
   1   9   6   11.01    1.38
  -2  -9  -6    0.93    0.66
   2   9   6    0.39    0.84
   2   9   6    1.70    0.69
  -3  -9  -6    8.95    1.09
   3 -10  -6    0.34    0.94
  -3  10   6    2.98    1.35
  -3  10   6    0.84    1.27
   2 -10  -6   27.32    1.40
   2 -10  -6   25.75    1.73
  -2  10   6   28.22    2.02
  -2  10   6   24.60    2.12
   1 -10  -6    1.86    0.74
  -1  10   6    1.18    0.93
  -1  10   6    2.34    0.92
   0 -10  -6   39.00    1.84
   0  10   6   42.38    1.70
   0  10   6   39.65    2.16
  -1 -10  -6    0.20    0.71
   1  10   6    0.65    0.92
   1  10   6    0.12    0.69
  -2 -10  -6    7.29    1.06
   2  10   6    7.12    1.40
   2 -11  -6    4.17    1.00
   2 -11  -6    2.64    1.06
  -2  11   6    2.57    1.25
  -2  11   6    1.71    1.21
   1 -11  -6    6.95    1.08
   1 -11  -6    7.48    1.18
  -1  11   6    8.96    1.22
  -1  11   6    8.11    1.37
   0 -11  -6    3.42    0.91
   0 -11  -6    5.01    1.08
   0  11   6    4.28    0.86
   0  11   6    5.69    1.24
  -1 -11  -6   -1.08    0.84
   1  11   6   -0.22    1.17
   1 -12  -6   12.64    1.82
   1 -12  -6   14.49    1.60
  -1  12   6   13.19    1.72
  -1  12   6   13.25    1.53
  -1 -13   7    1.27    1.09
  -1 -13   7    2.26    1.11
   0  13  -7   -0.34    1.09
   0 -13   7   -0.14    0.92
   0 -13   7    0.73    1.01
   0 -13   7    1.38    2.00
  -1  13  -7   -0.27    1.21
   1 -13   7    0.29    0.86
   1 -13   7    1.07    1.01
  -2 -12   7    1.36    1.08
  -2 -12   7    0.52    1.03
   1  12  -7    0.17    0.64
  -1 -12   7    0.12    1.06
  -1 -12   7   -0.77    0.85
  -1 -12   7    1.64    0.91
   0  12  -7    0.80    0.73
   0  12  -7   -0.20    0.80
   0 -12   7   -0.26    0.71
   0 -12   7   -0.17    1.15
   0 -12   7    0.77    0.86
  -1  12  -7   19.47    1.86
   1 -12   7   19.05    1.54
   1 -12   7   20.23    1.74
  -2  12  -7   14.08    1.52
  -2  12  -7   12.69    1.69
   2 -12   7   15.41    1.49
   2 -12   7   14.16    1.70
  -3 -11   7    9.85    1.21
  -3 -11   7    6.21    1.28
  -2 -11   7    2.20    1.08
  -2 -11   7    3.77    0.97
  -2 -11   7    4.54    0.89
   1  11  -7    9.05    0.96
   1  11  -7    9.01    0.79
  -1 -11   7   11.25    1.34
  -1 -11   7    9.95    1.25
  -1 -11   7   11.79    1.52
  -1 -11   7   10.63    1.30
   0  11  -7    0.02    0.66
   0  11  -7    0.91    0.60
   0 -11   7   -0.53    0.63
   0 -11   7    1.86    0.68
   0 -11   7    0.42    0.88
  -1  11  -7    9.38    1.23
  -1  11  -7   11.32    1.39
   1 -11   7    9.86    1.29
   1 -11   7    9.48    1.07
   1 -11   7   10.14    1.29
  -2  11  -7    3.20    0.87
  -2  11  -7    4.98    1.13
  -2  11  -7    5.07    1.32
   2 -11   7    5.13    0.87
   2 -11   7    6.30    1.00
  -3  11  -7   -0.02    1.18
  -3  11  -7    5.00    1.08
   3 -11   7    3.03    1.05
   3 -11   7    4.19    0.97
  -3 -10   7    3.02    1.02
  -3 -10   7   -0.59    0.70
  -3 -10   7    0.41    0.91
  -2 -10   7    1.16    0.74
  -2 -10   7    1.52    0.77
  -2 -10   7   -0.24    0.62
  -2 -10   7    2.72    0.88
   1  10  -7   63.16    1.51
   1  10  -7   63.03    1.63
  -1 -10   7   62.22    2.29
  -1 -10   7   61.13    2.26
  -1 -10   7   56.18    2.28
  -1 -10   7   63.94    2.13
   0  10  -7   20.41    1.26
   0  10  -7   21.80    1.15
   0 -10   7   21.56    1.32
   0 -10   7   19.04    1.53
   0 -10   7   21.03    1.53
   0 -10   7   21.00    1.33
  -1  10  -7    8.43    0.89
  -1  10  -7    8.92    1.05
  -1  10  -7   10.92    1.20
  -1  10  -7    9.68    0.96
   1 -10   7    9.84    0.99
   1 -10   7   11.64    1.17
   1 -10   7    7.96    1.20
   1 -10   7    8.92    1.14
  -2  10  -7    0.99    0.80
  -2  10  -7    0.74    0.66
  -2  10  -7   -0.18    0.83
   2 -10   7    0.56    0.71
   2 -10   7    1.48    0.53
  -3  10  -7    1.68    1.01
  -3  10  -7    1.01    0.91
  -3  10  -7    1.54    1.02
   3 -10   7    0.50    0.67
   3 -10   7    1.44    0.87
  -4  -9   7    1.71    1.14
  -3  -9   7    1.01    0.77
  -3  -9   7    1.82    0.84
  -3  -9   7    2.31    0.63
  -3  -9   7    3.26    0.64
  -3  -9   7    1.64    0.62
  -2  -9   7    9.30    1.13
  -2  -9   7    5.87    0.86
  -2  -9   7    7.40    0.89
   1   9  -7  126.82    2.56
   1   9  -7  130.28    2.66
  -1  -9   7  128.53    3.13
  -1  -9   7  128.90    3.30
  -1  -9   7  126.28    3.37
  -1  -9   7  130.20    3.16
   0   9  -7   13.25    0.90
   0   9  -7   13.97    1.02
   0  -9   7   12.32    1.19
   0  -9   7   13.11    1.01
   0  -9   7   15.06    1.18
  -1   9  -7    3.68    0.63
  -1   9  -7    3.18    0.53
  -1   9  -7    2.24    0.62
  -1   9  -7    3.10    0.68
   1  -9   7    2.70    0.52
   1  -9   7    2.77    0.76
   1  -9   7    3.65    0.83
   1  -9   7    3.32    0.63
  -2   9  -7   12.30    1.14
  -2   9  -7   12.37    1.25
  -2   9  -7    8.50    0.99
  -2   9  -7   12.43    1.30
   2  -9   7    8.63    1.15
   2  -9   7   10.22    1.21
   2  -9   7   10.41    1.12
   2  -9   7   11.22    0.90
  -3   9  -7    1.79    0.87
  -3   9  -7    4.19    0.87
  -3   9  -7    3.31    0.87
   3  -9   7    3.27    0.81
  -4   9  -7    1.16    1.12
  -4   9  -7   -0.69    1.05
   4  -9   7    1.13    0.93
   4  -9   7    1.44    1.00
  -4  -8   7    0.43    0.87
  -3  -8   7    0.87    0.71
  -3  -8   7    1.05    0.49
  -3  -8   7    1.12    0.50
  -3  -8   7    0.34    0.64
  -2  -8   7   11.01    0.84
  -2  -8   7   12.04    1.06
  -2  -8   7   11.52    0.87
  -2  -8   7   11.14    0.99
   1   8  -7  190.10    3.57
   1   8  -7  191.99    3.63
  -1  -8   7  190.40    4.10
  -1  -8   7  195.56    4.38
  -1  -8   7  191.57    4.21
  -1  -8   7  192.52    4.09
   0   8  -7   92.89    2.30
   0   8  -7   91.03    2.22
   0   8  -7   88.26    2.60
   0  -8   7   91.04    2.49
   0  -8   7   90.44    2.56
   0  -8   7   93.25    2.53
   0  -8   7   89.23    2.44
  -1   8  -7   35.21    1.34
  -1   8  -7   35.39    1.47
  -1   8  -7   34.04    1.52
   1  -8   7   36.67    1.38
   1  -8   7   37.09    1.67
   1  -8   7   35.53    1.47
   1  -8   7   33.23    1.58
  -2   8  -7   32.93    1.48
  -2   8  -7   29.89    1.47
  -2   8  -7   29.70    1.44
  -2   8  -7   28.98    1.51
   2  -8   7   33.50    1.33
   2  -8   7   29.43    1.65
   2  -8   7   31.03    1.46
   2  -8   7   34.61    1.87
  -3   8  -7   34.58    1.84
  -3   8  -7   34.72    1.78
  -3   8  -7   33.96    1.62
   3  -8   7   33.29    1.44
   3  -8   7   36.10    1.69
   3  -8   7   30.39    1.95
  -4   8  -7   -0.43    0.88
  -4   8  -7   -0.20    1.05
  -4   8  -7    0.34    0.91
   4  -8   7    0.47    0.86
  -4  -7   7   16.53    1.61
  -4  -7   7   15.75    1.36
  -3  -7   7   54.01    2.02
  -3  -7   7   52.40    1.46
  -3  -7   7   53.42    1.59
  -2  -7   7   49.62    1.79
  -2  -7   7   48.60    1.41
  -2  -7   7   49.91    1.52
  -2  -7   7   47.67    1.42
   1   7  -7   43.48    1.05
   1   7  -7   43.00    1.06
  -1  -7   7   42.88    1.39
  -1  -7   7   43.96    1.40
  -1  -7   7   44.76    1.57
   0   7  -7    0.52    0.32
   0   7  -7    0.77    0.41
   0   7  -7    1.02    0.37
   0  -7   7    0.44    0.32
   0  -7   7    0.25    0.41
   0  -7   7    0.03    0.32
   0  -7   7    0.51    0.41
  -1   7  -7   23.21    1.15
  -1   7  -7   23.14    1.15
  -1   7  -7   21.05    1.01
  -1   7  -7   22.49    1.09
   1  -7   7   22.20    1.02
   1  -7   7   24.31    1.26
   1  -7   7   22.49    1.26
   1  -7   7   23.97    1.11
  -2   7  -7  181.65    3.99
  -2   7  -7  177.19    4.05
  -2   7  -7  182.92    4.05
  -2   7  -7  179.43    4.08
   2  -7   7  171.77    4.16
   2  -7   7  181.60    3.90
   2  -7   7  183.54    4.09
   2  -7   7  170.06    4.35
  -3   7  -7    7.07    0.96
  -3   7  -7    7.69    0.97
  -3   7  -7    7.61    1.00
  -3   7  -7    5.27    0.83
   3  -7   7    6.00    0.99
   3  -7   7    7.19    0.85
   3  -7   7    8.21    0.90
  -4   7  -7   70.66    2.70
  -4   7  -7   67.43    2.29
  -4   7  -7   73.33    2.71
   4  -7   7   61.68    2.69
   4  -7   7   67.63    2.36
  -5  -6   7    4.90    1.23
  -4  -6   7   13.33    1.32
  -4  -6   7   18.01    1.45
  -3  -6   7    0.63    0.46
  -3  -6   7    1.03    0.50
  -2  -6   7   18.20    0.76
  -2  -6   7   17.90    1.04
  -2  -6   7   18.64    0.85
   1   6  -7   14.72    0.50
   1   6  -7   14.83    0.51
  -1  -6   7   14.82    0.86
  -1  -6   7   15.50    0.83
  -1  -6   7   14.32    0.74
  -1  -6   7   14.58    0.74
   0   6  -7  126.84    2.65
   0   6  -7  124.79    2.63
   0   6  -7  127.04    2.94
   0  -6   7  107.94    3.26
   0  -6   7  120.90    2.77
   0  -6   7  111.25    3.42
   0  -6   7  124.63    2.84
  -1   6  -7    8.61    0.77
  -1   6  -7    9.18    0.75
  -1   6  -7    8.30    0.67
  -1   6  -7    9.68    0.75
   1  -6   7    8.74    0.71
   1  -6   7    8.60    0.81
   1  -6   7    9.35    0.65
   1  -6   7    9.69    0.85
  -2   6  -7   15.46    0.94
  -2   6  -7   14.51    1.01
  -2   6  -7   15.00    0.92
  -2   6  -7   14.37    0.99
   2  -6   7   15.49    0.96
   2  -6   7   14.10    1.07
   2  -6   7   15.13    0.86
   2  -6   7   14.37    1.16
  -3   6  -7   21.97    1.37
  -3   6  -7   23.48    1.34
  -3   6  -7   22.74    1.20
  -3   6  -7   23.33    1.31
   3  -6   7   21.65    1.20
   3  -6   7   19.68    1.61
   3  -6   7   21.49    1.40
   3  -6   7   20.72    1.13
  -4   6  -7   48.58    2.14
  -4   6  -7   50.27    1.92
  -4   6  -7   51.69    2.23
   4  -6   7   48.54    2.25
   4  -6   7   48.11    1.87
  -5   6  -7   12.33    1.47
  -5   6  -7   12.74    1.45
   5  -6   7   14.25    1.77
  -5  -5   7   10.05    1.30
  -5  -5   7   10.16    1.26
  -4  -5   7   66.64    2.22
  -4  -5   7   68.63    2.26
  -3  -5   7    3.36    0.61
  -3  -5   7    4.13    0.59
  -2  -5   7   52.49    1.30
  -2  -5   7   51.76    1.26
  -2  -5   7   51.83    1.65
   1   5  -7    5.96    0.32
   1   5  -7    5.91    0.29
   1   5  -7    5.16    0.63
  -1  -5   7    5.46    0.46
  -1  -5   7    5.95    0.53
  -1  -5   7    5.12    0.54
   0   5  -7    0.83    0.35
   0   5  -7    0.64    0.25
   0   5  -7    0.94    0.28
   0  -5   7    0.99    0.31
   0  -5   7    0.92    0.29
   0  -5   7    0.33    0.26
   0  -5   7    0.96    0.31
  -1   5  -7   17.46    0.79
  -1   5  -7   17.42    0.85
  -1   5  -7   14.95    0.84
   1  -5   7   15.35    0.78
   1  -5   7   15.41    0.92
   1  -5   7   16.77    0.85
   1  -5   7   17.35    0.95
  -2   5  -7   19.43    1.05
  -2   5  -7   18.76    1.03
  -2   5  -7   19.20    0.99
  -2   5  -7   20.79    0.99
   2  -5   7   20.83    1.12
   2  -5   7   20.59    1.01
   2  -5   7   22.26    1.24
   2  -5   7   20.17    0.94
  -3   5  -7    1.34    0.56
  -3   5  -7    0.02    0.55
  -3   5  -7   -0.29    0.44
  -3   5  -7    1.40    0.47
   3  -5   7    0.63    0.64
   3  -5   7    0.70    0.57
   3  -5   7    1.04    0.46
  -4   5  -7    8.09    1.00
  -4   5  -7    9.19    1.06
  -4   5  -7    8.19    1.08
   4  -5   7    8.25    1.04
   4  -5   7    6.75    1.04
  -5   5  -7    5.68    1.20
  -5   5  -7    9.22    1.30
   5  -5   7    7.76    1.09
  -5  -4   7   21.26    2.48
  -4  -4   7    0.86    0.66
  -4  -4   7    1.85    0.58
  -3  -4   7   13.47    0.92
  -3  -4   7   12.85    0.86
  -2  -4   7   71.00    1.48
  -2  -4   7   66.32    1.82
   1   4  -7  377.55    7.02
  -1  -4   7  368.68    6.94
  -1  -4   7  372.66    6.70
  -1  -4   7  373.31    6.67
   0   4  -7  170.01    3.34
   0   4  -7  163.01    3.24
   0   4  -7  171.44    3.49
   0  -4   7  167.84    3.41
   0  -4   7  167.72    3.38
   0  -4   7  167.73    3.45
   0  -4   7  166.85    3.40
  -1   4  -7   22.94    0.91
  -1   4  -7   22.98    0.93
  -1   4  -7   23.30    0.94
   1  -4   7   22.47    0.98
   1  -4   7   21.96    0.92
   1  -4   7   22.71    1.01
   1  -4   7   23.12    0.90
  -2   4  -7    3.44    0.49
  -2   4  -7    4.03    0.54
  -2   4  -7    4.03    0.57
  -2   4  -7    3.46    0.47
   2  -4   7    3.60    0.47
   2  -4   7    3.34    0.52
   2  -4   7    3.73    0.50
   2  -4   7    4.05    0.62
  -3   4  -7   29.70    1.34
  -3   4  -7   29.88    1.40
  -3   4  -7   29.09    1.29
  -3   4  -7   30.04    1.23
   3  -4   7   27.74    1.59
   3  -4   7   30.84    1.41
   3  -4   7   29.72    1.27
  -4   4  -7    0.02    0.66
  -4   4  -7   -0.26    0.61
  -4   4  -7    0.30    0.64
  -4   4  -7    0.57    0.76
   4  -4   7   -0.32    0.76
   4  -4   7   -0.68    0.96
   4  -4   7   -1.03    0.51
  -5   4  -7   18.21    1.90
  -5   4  -7   17.57    1.80
  -5   4  -7   20.71    1.80
  -5  -3   7   29.18    1.47
  -5  -3   7   27.52    2.02
  -4  -3   7   79.02    2.52
  -4  -3   7   77.80    2.15
  -3  -3   7   13.48    0.95
  -3  -3   7   13.22    0.77
   2   3  -7    4.45    0.54
  -2  -3   7    4.14    0.46
   1   3  -7  128.14    2.74
  -1  -3   7  124.65    2.51
  -1  -3   7  127.95    2.68
  -1  -3   7  125.06    2.45
   0   3  -7    5.98    0.44
   0   3  -7    5.95    0.48
   0   3  -7    5.22    0.37
   0  -3   7    5.77    0.47
   0  -3   7    5.98    0.44
   0  -3   7    5.65    0.42
  -1   3  -7    0.74    0.25
  -1   3  -7    1.38    0.33
  -1   3  -7    1.94    0.36
   1  -3   7    1.11    0.32
   1  -3   7    1.03    0.23
   1  -3   7    1.33    0.30
   1  -3   7    1.25    0.33
  -2   3  -7    1.46    0.34
  -2   3  -7    2.56    0.45
  -2   3  -7    2.11    0.41
   2  -3   7    2.08    0.45
   2  -3   7    1.72    0.38
   2  -3   7    1.03    0.41
   2  -3   7    1.35    0.34
  -3   3  -7   88.60    2.47
  -3   3  -7   89.65    2.30
  -3   3  -7   90.55    2.37
  -3   3  -7   89.52    2.36
   3  -3   7   90.06    2.42
   3  -3   7   89.37    2.70
   3  -3   7   89.93    2.30
  -4   3  -7    0.38    0.61
  -4   3  -7   -0.52    0.65
  -4   3  -7    0.23    0.59
  -4   3  -7   -0.34    0.52
   4  -3   7   -1.48    0.80
   4  -3   7    0.69    0.70
   4  -3   7    0.21    0.50
  -5   3  -7    0.39    0.93
  -5   3  -7    0.69    0.97
  -5   3  -7    0.68    0.91
  -5  -2   7   37.22    2.25
  -5  -2   7   36.99    1.43
  -4  -2   7   22.37    1.45
  -4  -2   7   22.25    1.00
  -3  -2   7    2.28    0.51
  -3  -2   7    2.33    0.36
   2   2  -7   18.64    0.79
  -2  -2   7   18.83    0.49
  -2  -2   7   19.16    0.72
  -2  -2   7   18.18    0.56
   1   2  -7   77.17    1.46
   1   2  -7   77.71    1.80
   1   2  -7   77.61    1.53
  -1  -2   7   77.20    1.76
  -1  -2   7   77.17    1.66
  -1  -2   7   78.20    1.58
   0   2  -7  294.68    5.35
   0   2  -7  288.35    5.21
   0   2  -7  294.49    5.40
   0  -2   7  286.67    5.37
   0  -2   7  291.28    5.40
   0  -2   7  293.92    5.32
  -1   2  -7    0.33    0.19
  -1   2  -7    0.10    0.19
  -1   2  -7    0.50    0.24
   1  -2   7    0.12    0.20
   1  -2   7    0.02    0.18
   1  -2   7    0.11    0.23
   1  -2   7   -0.06    0.18
  -2   2  -7    9.97    0.71
  -2   2  -7    9.50    0.62
  -2   2  -7    9.51    0.66
   2  -2   7   10.34    0.77
   2  -2   7    9.14    0.74
   2  -2   7    9.86    0.66
   2  -2   7    9.53    0.69
  -3   2  -7    1.69    0.42
  -3   2  -7    2.46    0.52
  -3   2  -7    1.41    0.42
  -3   2  -7    1.76    0.48
   3  -2   7    1.10    0.49
   3  -2   7    1.74    0.44
   3  -2   7    1.43    0.58
  -4   2  -7    3.16    0.66
  -4   2  -7    3.81    0.68
  -4   2  -7    3.56    0.81
  -4   2  -7    3.55    0.63
   4  -2   7    5.54    1.03
   4  -2   7    3.96    0.73
  -5   2  -7    0.50    1.14
  -5   2  -7    2.84    0.91
  -5   2  -7    1.30    0.89
  -5  -1   7    1.81    1.05
  -4  -1   7   42.09    1.22
  -4  -1   7   43.48    1.95
  -3  -1   7   -0.12    0.20
  -3  -1   7   -0.13    0.37
   2   1  -7    3.61    0.41
  -2  -1   7    3.03    0.29
  -2  -1   7    2.88    0.31
  -2  -1   7    3.32    0.25
   1   1  -7  112.35    2.14
   1   1  -7  113.41    2.08
   1   1  -7  110.59    2.30
  -1  -1   7  110.14    2.13
  -1  -1   7  109.76    2.27
  -1  -1   7  108.97    2.23
   0   1  -7    3.03    0.34
   0   1  -7    2.70    0.27
   0   1  -7    3.03    0.34
   0  -1   7    2.86    0.32
   0  -1   7    4.14    0.35
   0  -1   7    3.15    0.35
  -1   1  -7   96.00    2.15
  -1   1  -7   96.37    2.17
  -1   1  -7   92.60    2.04
   1  -1   7   92.62    2.14
   1  -1   7   96.51    2.09
   1  -1   7   93.34    2.11
   1  -1   7   93.21    2.21
  -2   1  -7   14.74    0.82
  -2   1  -7   15.13    0.74
  -2   1  -7   16.21    0.85
   2  -1   7   14.47    0.76
   2  -1   7   14.41    0.82
   2  -1   7   15.90    0.82
  -3   1  -7   29.91    1.19
  -3   1  -7   31.66    1.30
  -3   1  -7   32.26    1.30
  -3   1  -7   30.16    1.12
   3  -1   7   30.90    1.44
   3  -1   7   28.49    1.38
   3  -1   7   28.73    1.15
  -4   1  -7   36.18    1.62
  -4   1  -7   35.83    1.44
  -4   1  -7   34.89    1.48
  -4   1  -7   35.44    1.69
   4  -1   7   34.78    1.33
   4  -1   7   35.72    1.45
   4  -1   7   35.49    1.86
  -5   1  -7    2.27    0.84
  -5   1  -7    2.97    0.86
   5  -1   7    1.89    1.35
  -5   0   7    1.92    1.05
  -5   0   7   -0.99    0.61
  -4   0   7    0.76    0.32
  -4   0   7    0.21    0.62
  -4   0   7    0.39    0.38
  -3   0   7    0.98    0.27
  -3   0   7    0.98    0.21
  -3   0   7    0.21    0.43
  -3   0   7    0.95    0.24
   2   0  -7   19.71    0.67
  -2   0   7   19.38    0.97
  -2   0   7   20.17    0.62
  -2   0   7   20.08    0.61
   1   0  -7    0.33    0.17
   1   0  -7    0.14    0.12
   1   0  -7    0.06    0.15
  -1   0   7    0.08    0.15
  -1   0   7   -0.14    0.11
  -1   0   7    0.15    0.13
   0   0  -7    6.78    0.45
   0   0  -7    6.79    0.36
   0   0  -7    6.34    0.42
   0   0   7    6.46    0.44
   0   0   7    7.13    0.44
   0   0   7    6.20    0.39
  -1   0  -7   19.43    0.70
  -1   0  -7   19.65    0.82
  -1   0  -7   20.93    0.82
   1   0   7   19.57    0.77
   1   0   7   19.88    0.80
   1   0   7   20.10    0.72
  -2   0  -7   15.06    0.71
  -2   0  -7   14.81    0.84
  -2   0  -7   14.51    0.82
   2   0   7   14.84    0.78
   2   0   7   14.69    0.77
   2   0   7   14.72    0.78
  -3   0  -7   14.93    0.85
  -3   0  -7   15.12    1.01
  -3   0  -7   15.89    1.03
   3   0   7   13.91    1.24
   3   0   7   14.54    0.87
   3   0   7   14.86    0.90
  -4   0  -7    2.97    0.73
  -4   0  -7    3.00    0.78
  -4   0  -7    3.46    0.61
   4   0   7    3.52    0.62
   4   0   7    3.08    0.82
   4   0   7    2.52    0.55
  -5   0  -7    1.19    0.80
  -5   1   7   11.04    1.46
  -5   1   7   12.61    1.30
  -5   1   7   10.99    1.07
  -4   1   7   16.34    0.96
  -4   1   7   15.96    0.82
  -4   1   7   15.24    1.48
  -3   1   7    3.66    0.44
  -3   1   7    2.55    0.59
  -3   1   7    3.58    0.47
   2  -1  -7   10.07    0.42
  -2   1   7    9.88    0.41
  -2   1   7    9.82    0.56
  -2   1   7   11.17    0.50
  -2   1   7   10.34    0.77
   1  -1  -7  165.39    3.17
   1  -1  -7  164.04    3.11
   1  -1  -7  163.02    3.11
  -1   1   7  164.69    3.10
  -1   1   7  163.38    3.16
  -1   1   7  162.39    3.27
   0  -1  -7    2.17    0.29
   0  -1  -7    1.93    0.29
   0  -1  -7    1.53    0.23
   0   1   7    1.22    0.22
  -1  -1  -7    9.09    0.49
  -1  -1  -7    9.88    0.61
  -1  -1  -7   10.08    0.63
   1   1   7   10.15    0.57
  -2  -1  -7   27.46    0.96
  -2  -1  -7   27.39    1.10
  -2  -1  -7   26.85    1.16
   2   1   7   26.65    1.05
   2   1   7   27.45    1.02
   2   1   7   27.78    1.00
  -3  -1  -7    2.96    0.64
  -3  -1  -7    2.30    0.45
  -3  -1  -7    1.91    0.53
   3   1   7    3.18    0.57
   3   1   7    2.51    0.50
   3   1   7    2.23    0.49
  -4  -1  -7    3.48    0.61
  -4  -1  -7    2.12    0.79
  -4  -1  -7    3.32    0.85
   4   1   7    4.07    0.89
  -5  -1  -7    5.00    0.91
  -5   2   7    7.83    1.02
  -5   2   7    6.59    0.83
  -5   2   7    5.68    1.36
  -4   2   7    5.30    0.71
  -4   2   7    4.58    0.87
  -4   2   7    6.83    0.75
  -3   2   7    1.58    0.34
  -3   2   7    1.27    0.41
  -3   2   7    0.99    0.56
   2  -2  -7   30.79    0.89
   2  -2  -7   31.71    0.91
  -2   2   7   31.15    1.10
  -2   2   7   31.45    0.94
  -2   2   7   30.54    1.32
   1  -2  -7   44.17    1.17
   1  -2  -7   45.05    1.23
   1  -2  -7   45.83    1.13
  -1   2   7   46.88    1.17
  -1   2   7   45.27    1.33
   0  -2  -7   35.20    1.10
   0  -2  -7   34.89    1.08
   0  -2  -7   35.75    0.99
   0   2   7   35.46    0.98
   0   2   7   32.39    1.11
  -1  -2  -7   73.66    1.88
  -1  -2  -7   69.63    1.67
  -1  -2  -7   73.91    1.95
   1   2   7   74.74    1.73
   1   2   7   72.96    1.88
  -2  -2  -7   21.50    1.11
  -2  -2  -7   21.21    0.85
  -2  -2  -7   22.42    1.02
   2   2   7   23.11    0.86
   2   2   7   22.23    0.92
   2   2   7   21.48    0.99
  -3  -2  -7   30.85    1.55
  -3  -2  -7   32.49    1.41
  -3  -2  -7   31.02    1.19
   3   2   7   34.65    1.29
   3   2   7   30.74    1.20
   3   2   7   31.45    1.25
  -4  -2  -7    4.49    1.07
  -4  -2  -7    3.21    0.85
  -4  -2  -7    3.52    0.62
   4   2   7    4.31    0.79
  -5  -2  -7   -0.26    0.78
  -5   3   7    0.09    0.90
  -5   3   7   -1.43    0.74
  -5   3   7    0.56    1.08
  -4   3   7   69.32    2.75
  -4   3   7   75.73    2.00
  -4   3   7   71.23    2.21
  -3   3   7    0.96    0.58
  -3   3   7   -0.27    0.40
  -3   3   7    1.03    0.35
   2  -3  -7   57.25    1.48
   2  -3  -7   58.87    1.48
  -2   3   7   57.80    1.69
  -2   3   7   57.80    1.49
  -2   3   7   56.07    1.93
   1  -3  -7    0.42    0.20
   1  -3  -7    0.56    0.28
   1  -3  -7    0.71    0.23
  -1   3   7    0.48    0.22
  -1   3   7    0.66    0.30
  -1   3   7    0.35    0.31
   0  -3  -7    6.30    0.45
   0  -3  -7    5.92    0.56
   0   3   7    5.76    0.59
   0   3   7    5.75    0.43
  -1  -3  -7   12.75    0.78
  -1  -3  -7   12.24    0.61
   1   3   7   12.90    0.79
   1   3   7   10.81    0.75
  -2  -3  -7   -0.15    0.24
  -2  -3  -7    0.06    0.38
   2   3   7   -0.12    0.26
   2   3   7    0.16    0.34
  -3  -3  -7   24.06    1.03
  -3  -3  -7   23.31    1.29
  -3  -3  -7   23.53    1.46
   3   3   7   23.19    1.07
   3   3   7   22.99    1.03
   3   3   7   24.15    1.11
  -4  -3  -7   61.64    1.91
  -4  -3  -7   60.76    2.28
  -5   4   7    4.41    1.31
  -5   4   7    4.31    0.94
  -5   4   7    5.18    1.18
  -4   4   7   31.98    1.36
  -4   4   7   32.09    1.64
  -4   4   7   30.56    2.04
   3  -4  -7   23.62    0.93
   3  -4  -7   26.60    0.98
  -3   4   7   23.44    1.53
  -3   4   7   23.62    1.05
  -3   4   7   23.11    1.28
   2  -4  -7   73.08    1.83
   2  -4  -7   69.31    1.43
   2  -4  -7   69.46    1.83
  -2   4   7   69.84    2.27
  -2   4   7   70.71    1.80
  -2   4   7   69.49    2.04
   1  -4  -7    1.36    0.30
   1  -4  -7    0.84    0.28
  -1   4   7    0.40    0.35
  -1   4   7    0.88    0.26
  -1   4   7    1.39    0.40
   0  -4  -7  232.29    4.45
   0   4   7  227.53    4.69
   0   4   7  224.95    4.34
   0   4   7  224.40    4.51
  -1  -4  -7    3.70    0.53
  -1  -4  -7    3.48    0.44
   1   4   7    3.10    0.54
   1   4   7    3.45    0.43
  -2  -4  -7    7.52    0.58
  -2  -4  -7    6.79    0.76
   2   4   7    7.13    0.69
   2   4   7    8.24    0.84
  -3  -4  -7    0.01    0.33
  -3  -4  -7    0.17    0.60
   3   4   7    0.34    0.49
   3   4   7   -0.06    0.46
  -4  -4  -7   23.42    2.80
  -4  -4  -7   20.29    1.27
  -5   5   7    1.71    1.37
  -5   5   7    2.01    1.24
  -4   5   7    0.53    0.86
  -4   5   7    2.32    0.84
  -4   5   7    1.94    0.66
   3  -5  -7   68.84    1.90
  -3   5   7   72.41    2.02
  -3   5   7   73.44    2.34
  -3   5   7   70.40    2.63
   2  -5  -7    6.53    0.75
   2  -5  -7    5.56    0.44
   2  -5  -7    5.93    0.69
  -2   5   7    6.24    0.88
  -2   5   7    4.76    0.62
  -2   5   7    6.88    0.84
   1  -5  -7    0.66    0.40
   1  -5  -7    0.93    0.33
  -1   5   7    0.98    0.44
  -1   5   7    1.95    0.36
  -1   5   7    0.78    0.40
   0  -5  -7   36.79    1.40
   0  -5  -7   38.75    1.25
   0   5   7   38.04    1.47
   0   5   7   39.19    1.18
   0   5   7   37.94    1.33
  -1  -5  -7    2.85    0.43
   1   5   7    2.84    0.41
   1   5   7    2.94    0.58
   1   5   7    3.60    0.51
  -2  -5  -7    5.09    0.74
  -2  -5  -7    4.41    0.54
   2   5   7    5.17    0.68
   2   5   7    4.70    0.55
  -3  -5  -7    0.71    0.72
  -3  -5  -7    0.53    0.39
   3   5   7    0.72    0.56
   3   5   7    0.09    0.63
  -4  -5  -7   65.52    2.11
  -5   6   7    6.13    1.42
  -5   6   7    4.82    1.71
   4  -6  -7    4.68    0.67
   4  -6  -7    4.00    0.64
  -4   6   7    4.43    1.14
  -4   6   7    3.07    0.98
  -4   6   7    5.29    1.08
   3  -6  -7    2.11    0.54
  -3   6   7    1.76    0.57
  -3   6   7    2.01    0.83
  -3   6   7    1.58    0.70
   2  -6  -7   12.15    0.98
   2  -6  -7   11.10    0.87
   2  -6  -7   10.62    0.64
   2  -6  -7   11.03    0.64
  -2   6   7   10.64    0.83
  -2   6   7   10.30    1.18
  -2   6   7   13.14    1.13
   1  -6  -7  296.52    5.92
   1  -6  -7  299.84    6.08
  -1   6   7  303.21    6.23
  -1   6   7  298.08    5.74
  -1   6   7  299.35    6.20
   0  -6  -7   58.80    1.75
   0  -6  -7   60.27    1.95
   0   6   7   60.84    1.83
   0   6   7   60.23    1.98
   0   6   7   59.57    1.62
  -1  -6  -7   23.52    1.28
  -1  -6  -7   22.55    1.03
   1   6   7   22.97    0.99
   1   6   7   23.64    0.92
   1   6   7   22.24    1.25
  -2  -6  -7    0.52    0.38
  -2  -6  -7    1.03    0.63
   2   6   7    0.54    0.56
  -3  -6  -7    1.98    0.81
  -3  -6  -7    0.83    0.51
   3   6   7    2.37    0.67
  -4  -6  -7    0.80    0.72
   4  -7  -7    1.46    0.70
  -4   7   7    4.23    1.16
  -4   7   7    1.48    1.23
   3  -7  -7    5.64    0.75
   3  -7  -7    4.18    0.79
  -3   7   7    3.50    0.72
  -3   7   7    3.76    0.93
  -3   7   7    3.60    0.98
   2  -7  -7    0.41    0.37
   2  -7  -7   -0.04    0.61
   2  -7  -7    0.89    0.47
  -2   7   7    0.09    0.44
  -2   7   7    0.16    0.62
  -2   7   7    1.02    0.66
   1  -7  -7  101.03    2.85
   1  -7  -7  104.54    2.73
  -1   7   7  109.15    2.98
   0  -7  -7   23.73    1.34
   0   7   7   22.43    1.20
   0   7   7   22.40    1.01
   0   7   7   24.89    1.37
  -1  -7  -7    0.51    0.40
  -1  -7  -7   -0.34    0.59
   1   7   7    0.52    0.59
   1   7   7    0.04    0.41
  -2  -7  -7    7.09    0.86
  -2  -7  -7    8.18    1.07
   2   7   7    4.87    0.67
   2   7   7    7.25    0.89
  -3  -7  -7   17.29    1.23
   3   7   7   18.42    1.40
  -4   8   7   -3.12    1.29
  -4   8   7   -0.28    1.23
   3  -8  -7    2.16    0.68
   3  -8  -7    3.69    0.95
  -3   8   7    3.65    1.06
  -3   8   7    1.53    0.99
   2  -8  -7    8.76    0.85
   2  -8  -7   12.21    1.13
   2  -8  -7   12.88    1.34
  -2   8   7    9.72    1.22
  -2   8   7    9.56    1.18
   1  -8  -7   11.98    1.03
   1  -8  -7   12.79    1.27
  -1   8   7   12.14    1.28
  -1   8   7   10.37    0.97
  -1   8   7   12.28    1.32
   0  -8  -7  173.27    4.04
   0  -8  -7  169.94    4.26
   0   8   7  172.56    3.75
   0   8   7  179.42    4.34
   0   8   7  180.44    3.96
  -1  -8  -7   26.47    1.66
  -1  -8  -7   27.76    1.34
   1   8   7   25.94    1.21
   1   8   7   25.56    1.54
  -2  -8  -7    1.83    0.64
   2   8   7    1.08    0.81
   2   8   7    1.08    0.65
  -3  -8  -7    7.75    0.98
  -4   9   7   68.84    3.87
   3  -9  -7   74.46    2.60
  -3   9   7   74.57    3.08
  -3   9   7   71.64    3.17
   2  -9  -7    0.09    0.56
   2  -9  -7    1.42    0.74
  -2   9   7   -0.52    0.92
  -2   9   7   -0.48    0.89
   1  -9  -7   11.69    1.18
  -1   9   7   10.15    1.37
  -1   9   7   10.03    1.24
   0  -9  -7    0.28    0.56
   0   9   7    0.89    0.57
   0   9   7    1.05    0.82
   0   9   7    0.17    0.64
  -1  -9  -7    0.01    0.57
   1   9   7    0.97    0.62
   1   9   7   -0.43    0.82
  -2  -9  -7    2.63    0.79
   2   9   7    0.22    0.74
   2   9   7    0.78    0.94
   3 -10  -7    1.77    1.02
  -3  10   7    0.60    1.32
  -3  10   7   -1.29    1.35
   2 -10  -7    3.37    0.80
   2 -10  -7    2.47    0.89
  -2  10   7    3.21    1.19
  -2  10   7    3.84    1.23
   1 -10  -7    0.39    0.73
   1 -10  -7    0.70    0.78
  -1  10   7    0.33    0.96
   0 -10  -7   72.36    2.52
   0  10   7   77.64    2.90
   0  10   7   69.16    2.26
  -1 -10  -7   31.58    1.78
   1  10   7   37.21    2.20
  -2 -10  -7    4.89    0.99
   2  10   7    6.06    1.28
   2 -11  -7    4.84    1.03
   2 -11  -7    5.59    1.15
  -2  11   7    5.83    1.50
  -2  11   7    5.93    1.42
   1 -11  -7    4.16    1.10
   1 -11  -7    2.31    0.95
  -1  11   7    5.12    1.25
  -1  11   7    3.39    1.31
   0 -11  -7    2.23    0.92
   0 -11  -7    4.15    1.06
   0  11   7    1.87    1.22
   0  11   7    3.55    0.97
  -1 -11  -7    2.06    0.95
   1  11   7    1.51    1.29
  -1 -13   8   40.97    3.44
   0  13  -8   10.92    1.34
   0 -13   8   12.02    1.45
   0 -13   8   14.94    1.64
  -1  13  -8    5.47    1.37
   1 -13   8    4.19    1.01
   1 -13   8    5.76    1.24
  -2 -12   8   -0.13    1.05
  -2 -12   8    0.52    1.04
  -1 -12   8    4.74    1.06
  -1 -12   8    4.51    1.05
  -1 -12   8    4.20    1.23
   0  12  -8    1.82    0.86
   0  12  -8    3.27    0.82
   0 -12   8    1.13    0.89
   0 -12   8    0.57    1.22
   0 -12   8    1.48    0.75
  -1  12  -8    0.68    1.01
   1 -12   8    0.49    0.70
   1 -12   8    0.34    0.89
  -2  12  -8   12.14    1.62
  -2  12  -8   10.46    1.45
   2 -12   8   11.20    1.36
   2 -12   8   13.54    1.43
  -3 -11   8    2.69    1.24
  -2 -11   8    0.77    1.06
  -2 -11   8   -0.33    0.79
  -2 -11   8   -0.40    0.82
   1  11  -8   -0.18    0.40
   1  11  -8   -0.36    0.49
  -1 -11   8   -0.24    0.92
  -1 -11   8    0.58    0.72
  -1 -11   8   -0.14    0.71
   0  11  -8   22.07    1.29
   0  11  -8   23.21    1.40
   0 -11   8   21.89    1.48
   0 -11   8   19.76    1.53
   0 -11   8   23.12    1.86
  -1  11  -8    0.13    0.84
  -1  11  -8    1.33    0.84
   1 -11   8    1.15    0.66
   1 -11   8   -0.21    0.71
  -2  11  -8   16.31    1.50
  -2  11  -8   18.58    1.82
   2 -11   8   13.42    1.57
   2 -11   8   13.26    1.30
  -3  11  -8    1.81    1.23
  -3  11  -8    0.34    0.95
   3 -11   8    1.79    1.10
   3 -11   8    3.18    0.99
  -3 -10   8    1.04    0.74
  -3 -10   8   -1.91    0.91
  -2 -10   8   -0.10    0.83
  -2 -10   8   -0.12    0.75
  -2 -10   8   -0.34    0.69
  -2 -10   8   -1.09    0.74
   1  10  -8    7.70    0.63
   1  10  -8    8.36    0.76
  -1 -10   8    7.96    1.01
  -1 -10   8    6.51    0.86
  -1 -10   8    9.36    1.00
  -1 -10   8    7.40    1.02
   0  10  -8    0.81    0.59
   0  10  -8   -0.04    0.51
   0 -10   8    0.32    0.52
   0 -10   8    0.33    0.81
   0 -10   8   -1.37    0.72
   0 -10   8   -0.74    0.55
  -1  10  -8   29.91    1.63
  -1  10  -8   31.20    1.56
  -1  10  -8   33.64    1.85
   1 -10   8   30.81    1.49
   1 -10   8   33.18    1.97
   1 -10   8   31.11    1.63
  -2  10  -8    3.06    0.80
  -2  10  -8    3.00    0.94
  -2  10  -8    1.96    0.88
   2 -10   8    1.62    0.60
   2 -10   8    2.45    0.76
  -3  10  -8    2.84    1.11
  -3  10  -8    4.91    1.04
  -3  10  -8    2.60    1.13
   3 -10   8    2.07    0.78
   3 -10   8    4.21    1.01
  -4  -9   8    0.01    1.02
  -3  -9   8   37.35    1.56
  -3  -9   8   36.13    1.74
  -3  -9   8   36.60    2.02
  -3  -9   8   37.84    1.56
  -2  -9   8    0.62    0.66
  -2  -9   8   -0.09    0.62
  -2  -9   8    2.15    0.67
  -2  -9   8    0.62    0.51
   1   9  -8   46.01    1.24
   1   9  -8   45.17    1.18
  -1  -9   8   45.28    1.67
  -1  -9   8   43.86    1.79
  -1  -9   8   44.22    1.81
  -1  -9   8   45.10    1.72
   0   9  -8   17.36    1.07
   0   9  -8   17.32    1.01
   0   9  -8   14.54    1.30
   0  -9   8   20.34    1.39
   0  -9   8   16.82    1.08
   0  -9   8   17.58    1.30
   0  -9   8   16.80    1.16
  -1   9  -8   -0.11    0.51
  -1   9  -8   -0.05    0.61
  -1   9  -8   -0.23    0.60
   1  -9   8   -0.74    0.46
   1  -9   8   -0.79    0.71
   1  -9   8    0.11    0.70
   1  -9   8    0.37    0.47
  -2   9  -8    0.40    0.56
  -2   9  -8    3.08    0.77
  -2   9  -8    0.63    0.75
  -2   9  -8   -0.31    0.65
   2  -9   8    2.26    1.14
   2  -9   8    1.03    0.49
   2  -9   8    0.82    1.01
   2  -9   8    0.83    0.62
  -3   9  -8    4.14    0.96
  -3   9  -8    5.20    0.92
  -3   9  -8    4.39    1.07
   3  -9   8    5.24    0.98
   3  -9   8    6.24    0.86
  -4   9  -8   -0.90    1.18
  -4   9  -8    0.04    1.10
   4  -9   8    0.87    1.03
   4  -9   8    0.71    1.02
  -4  -8   8   62.70    2.64
  -4  -8   8   61.76    2.30
  -3  -8   8    4.97    0.78
  -3  -8   8    5.11    0.67
  -3  -8   8    6.42    1.03
  -3  -8   8    5.81    0.68
  -2  -8   8    2.71    0.51
  -2  -8   8    4.13    0.58
  -2  -8   8    2.94    0.63
  -2  -8   8    3.97    0.68
   1   8  -8   31.49    0.92
   1   8  -8   31.81    0.94
  -1  -8   8   31.50    1.35
  -1  -8   8   32.89    1.31
  -1  -8   8   32.43    1.43
  -1  -8   8   33.77    1.57
   0   8  -8   72.59    2.35
   0   8  -8   77.90    1.99
   0   8  -8   73.56    2.00
   0  -8   8   74.75    2.28
   0  -8   8   78.06    2.21
   0  -8   8   76.87    2.32
   0  -8   8   76.14    2.23
  -1   8  -8  245.34    5.14
  -1   8  -8  242.13    5.11
  -1   8  -8  238.65    5.28
   1  -8   8  252.94    5.18
   1  -8   8  245.11    5.47
   1  -8   8  254.43    5.29
   1  -8   8  243.86    5.40
  -2   8  -8    0.49    0.49
  -2   8  -8    0.92    0.61
  -2   8  -8    0.33    0.58
  -2   8  -8    0.50    0.61
   2  -8   8    1.48    0.74
   2  -8   8    1.52    0.74
   2  -8   8    0.35    0.44
   2  -8   8    0.09    0.54
  -3   8  -8   17.30    1.42
  -3   8  -8   16.76    1.47
  -3   8  -8   18.74    1.57
   3  -8   8   17.48    1.37
  -4   8  -8   12.26    1.40
  -4   8  -8   10.22    1.38
  -4   8  -8    8.93    1.25
   4  -8   8   14.02    1.56
   4  -8   8   11.85    1.27
  -4  -7   8    4.21    1.04
  -4  -7   8    4.03    0.89
  -3  -7   8    5.83    0.82
  -3  -7   8    6.90    0.82
  -3  -7   8    6.48    0.70
  -2  -7   8    0.28    0.43
  -2  -7   8    0.76    0.39
  -2  -7   8    0.10    0.43
  -2  -7   8    0.56    0.37
   1   7  -8   82.21    1.70
   1   7  -8   80.58    2.43
   1   7  -8   81.16    1.69
  -1  -7   8   81.06    2.12
  -1  -7   8   82.08    2.31
  -1  -7   8   82.47    2.19
  -1  -7   8   80.48    2.10
   0   7  -8  238.09    5.15
   0   7  -8  246.01    4.74
   0  -7   8  235.68    4.98
   0  -7   8  241.56    5.02
   0  -7   8  242.83    5.04
   0  -7   8  242.49    4.97
  -1   7  -8   18.45    1.05
  -1   7  -8   18.65    1.05
  -1   7  -8   20.22    1.12
   1  -7   8   17.75    1.22
   1  -7   8   18.49    1.04
   1  -7   8   17.58    0.95
   1  -7   8   16.90    1.14
  -2   7  -8    5.58    0.71
  -2   7  -8    6.08    0.96
  -2   7  -8    5.72    0.81
   2  -7   8    7.46    0.97
   2  -7   8    6.67    0.75
   2  -7   8    4.26    0.82
   2  -7   8    6.59    0.87
  -3   7  -8   55.70    1.95
  -3   7  -8   55.71    2.11
  -3   7  -8   49.97    2.32
  -3   7  -8   54.90    2.07
   3  -7   8   50.76    2.20
   3  -7   8   54.01    1.98
   3  -7   8   55.37    1.88
  -4   7  -8    7.57    1.10
  -4   7  -8    9.29    1.22
  -4   7  -8    6.75    1.11
   4  -7   8    7.80    1.06
  -4  -6   8   62.72    2.25
  -4  -6   8   59.19    2.23
  -3  -6   8    1.41    0.54
  -3  -6   8    0.96    0.33
  -2  -6   8    1.13    0.43
  -2  -6   8    0.77    0.32
  -2  -6   8    1.31    0.40
   1   6  -8   13.15    0.52
   1   6  -8   13.34    0.47
  -1  -6   8   12.71    0.73
  -1  -6   8   12.68    0.81
  -1  -6   8   14.02    0.81
   0   6  -8   25.74    0.97
   0   6  -8   25.26    0.94
   0  -6   8   24.62    1.13
   0  -6   8   25.53    1.08
   0  -6   8   25.75    1.12
   0  -6   8   24.99    1.05
  -1   6  -8    6.81    0.70
  -1   6  -8    6.33    0.73
  -1   6  -8    7.94    0.75
   1  -6   8    7.87    0.85
   1  -6   8    7.53    0.85
   1  -6   8    7.76    0.72
   1  -6   8    7.83    0.65
  -2   6  -8    3.53    0.61
  -2   6  -8    2.47    0.53
  -2   6  -8    4.00    0.61
  -2   6  -8    3.09    0.53
   2  -6   8    4.09    0.74
   2  -6   8    3.63    0.58
   2  -6   8    4.17    0.68
   2  -6   8    3.38    0.52
  -3   6  -8   32.67    1.55
  -3   6  -8   34.07    1.67
  -3   6  -8   30.80    1.54
  -3   6  -8   34.70    1.51
   3  -6   8   28.55    1.69
   3  -6   8   32.92    1.94
   3  -6   8   33.00    1.69
   3  -6   8   33.08    1.41
  -4   6  -8   19.52    1.67
  -4   6  -8   19.39    1.65
  -4   6  -8   16.88    1.46
   4  -6   8   20.38    1.47
   4  -6   8   22.84    1.91
  -5  -5   8    1.44    0.92
  -4  -5   8   17.54    1.26
  -4  -5   8   16.37    1.40
  -3  -5   8   40.22    1.52
  -2  -5   8    1.87    0.30
  -2  -5   8    1.72    0.42
  -2  -5   8    2.32    0.35
   1   5  -8    8.42    0.75
   1   5  -8    8.68    0.41
   1   5  -8    8.27    0.34
  -1  -5   8    8.14    0.63
  -1  -5   8    9.49    0.63
  -1  -5   8    8.95    0.59
   0   5  -8   21.90    0.87
   0   5  -8   23.03    0.83
   0   5  -8   22.45    1.01
   0  -5   8   23.67    0.98
   0  -5   8   21.22    0.92
   0  -5   8   21.53    0.93
  -1   5  -8    8.54    0.71
  -1   5  -8    8.80    0.72
  -1   5  -8    8.13    0.67
   1  -5   8   10.20    0.83
   1  -5   8    8.72    0.64
   1  -5   8    8.74    0.81
   1  -5   8    8.02    0.68
  -2   5  -8   55.26    1.75
  -2   5  -8   55.70    1.72
  -2   5  -8   54.50    1.69
  -2   5  -8   55.23    1.80
   2  -5   8   54.69    1.97
   2  -5   8   57.25    1.88
   2  -5   8   57.94    1.78
   2  -5   8   56.68    1.72
  -3   5  -8    1.50    0.64
  -3   5  -8    2.24    0.58
  -3   5  -8    1.18    0.53
  -3   5  -8    1.53    0.53
   3  -5   8    2.85    0.62
   3  -5   8    3.04    0.72
   3  -5   8    1.58    0.76
   3  -5   8    2.32    0.55
  -4   5  -8    1.80    0.80
  -4   5  -8    0.68    0.78
  -4   5  -8    0.26    0.72
   4  -5   8    0.81    0.74
   4  -5   8    1.77    0.97
  -5   5  -8    0.49    1.04
  -5   5  -8    0.39    1.05
  -5  -4   8    1.75    1.11
  -4  -4   8   75.86    2.21
  -4  -4   8   75.47    2.51
  -3  -4   8    1.81    0.51
  -3  -4   8    2.45    0.48
   2   4  -8   40.46    1.49
  -2  -4   8   40.23    1.33
  -2  -4   8   41.85    1.03
  -2  -4   8   40.86    1.04
   1   4  -8    5.29    0.27
   1   4  -8    5.68    0.58
   1   4  -8    5.36    0.34
  -1  -4   8    5.30    0.48
  -1  -4   8    5.81    0.45
  -1  -4   8    6.34    0.53
   0   4  -8  205.84    3.99
   0   4  -8  200.54    3.86
   0  -4   8  200.34    4.04
   0  -4   8  206.32    4.03
   0  -4   8  203.02    4.09
   0  -4   8  202.28    4.04
  -1   4  -8   41.18    1.60
  -1   4  -8   42.59    1.55
  -1   4  -8   45.61    1.34
   1  -4   8   48.11    1.49
   1  -4   8   44.34    1.44
   1  -4   8   44.82    1.37
   1  -4   8   43.58    1.38
  -2   4  -8   47.34    1.60
  -2   4  -8   46.72    1.48
  -2   4  -8   48.49    1.52
  -2   4  -8   47.62    1.54
   2  -4   8   46.77    1.64
   2  -4   8   46.08    1.71
   2  -4   8   47.56    1.54
   2  -4   8   48.41    1.55
  -3   4  -8    1.69    0.61
  -3   4  -8    2.58    0.52
  -3   4  -8    2.01    0.55
  -3   4  -8    2.09    0.53
   3  -4   8    2.17    0.53
   3  -4   8    2.41    0.62
   3  -4   8    2.62    0.67
  -4   4  -8    7.87    0.97
  -4   4  -8    7.59    0.95
  -4   4  -8    6.64    0.90
   4  -4   8    7.21    1.20
   4  -4   8   11.49    1.46
   4  -4   8    7.79    0.89
  -5   4  -8    0.37    1.03
  -5   4  -8    1.45    1.03
  -5  -3   8   -0.52    0.62
  -5  -3   8   -0.23    1.06
  -4  -3   8    8.35    1.17
  -4  -3   8    6.69    0.80
  -3  -3   8    3.04    0.46
  -3  -3   8    3.01    0.59
   2   3  -8    0.91    0.34
  -2  -3   8    0.60    0.18
  -2  -3   8    0.62    0.25
  -2  -3   8    0.34    0.18
   1   3  -8    3.43    0.47
   1   3  -8    3.94    0.31
   1   3  -8    4.15    0.24
  -1  -3   8    4.23    0.38
  -1  -3   8    4.38    0.39
  -1  -3   8    3.83    0.41
   0   3  -8  365.04    6.65
   0   3  -8  360.32    6.54
   0   3  -8  351.98    6.38
   0  -3   8  347.54    6.60
   0  -3   8  365.24    6.56
   0  -3   8  355.27    6.58
  -1   3  -8   29.92    1.10
  -1   3  -8   28.50    1.00
  -1   3  -8   30.01    1.06
   1  -3   8   28.12    1.04
   1  -3   8   29.54    1.06
   1  -3   8   29.95    1.13
   1  -3   8   28.85    1.09
  -2   3  -8   22.38    1.07
  -2   3  -8   21.07    0.96
  -2   3  -8   22.50    0.99
   2  -3   8   20.40    1.05
   2  -3   8   22.15    1.04
   2  -3   8   21.72    1.00
   2  -3   8   22.56    1.13
  -3   3  -8    3.54    0.59
  -3   3  -8    4.16    0.69
  -3   3  -8    2.70    0.55
  -3   3  -8    3.02    0.51
   3  -3   8    2.50    0.62
   3  -3   8    3.49    0.57
   3  -3   8    2.98    0.68
  -4   3  -8    4.05    0.67
  -4   3  -8    3.07    0.81
  -4   3  -8    5.03    0.79
  -4   3  -8    3.95    0.76
   4  -3   8    4.52    1.05
   4  -3   8    2.95    0.84
   4  -3   8    4.06    0.68
  -5   3  -8    3.09    0.99
  -5   3  -8    2.96    1.03
  -5  -2   8    4.75    1.26
  -5  -2   8    4.49    0.67
  -4  -2   8  273.92    5.29
  -4  -2   8  275.23    6.08
  -3  -2   8   50.87    1.40
  -3  -2   8   50.31    1.78
   2   2  -8    0.05    0.25
  -2  -2   8   -0.09    0.20
  -2  -2   8    0.23    0.17
  -2  -2   8    0.41    0.15
   1   2  -8   24.06    0.61
   1   2  -8   25.14    0.71
   1   2  -8   23.75    0.87
  -1  -2   8   24.21    0.78
  -1  -2   8   24.64    0.84
  -1  -2   8   25.01    0.73
   0   2  -8    0.95    0.20
   0   2  -8    0.96    0.25
   0   2  -8    0.83    0.23
   0  -2   8    0.96    0.25
   0  -2   8    1.09    0.26
   0  -2   8    0.89    0.23
  -1   2  -8   47.94    1.31
  -1   2  -8   49.53    1.40
   1  -2   8   47.72    1.40
   1  -2   8   48.57    1.38
   1  -2   8   49.11    1.44
   1  -2   8   48.02    1.41
  -2   2  -8   37.43    1.30
  -2   2  -8   37.90    1.35
  -2   2  -8   36.94    1.25
   2  -2   8   36.97    1.39
   2  -2   8   37.46    1.34
   2  -2   8   35.93    1.28
   2  -2   8   36.79    1.36
  -3   2  -8   13.24    0.93
  -3   2  -8   13.96    0.98
  -3   2  -8   15.29    0.90
  -3   2  -8   14.10    1.04
   3  -2   8   12.83    1.13
   3  -2   8   13.25    1.02
   3  -2   8   13.24    0.91
  -4   2  -8   12.20    1.44
  -4   2  -8   10.74    1.18
  -4   2  -8   13.98    1.18
   4  -2   8   14.40    1.62
   4  -2   8   12.83    1.26
  -5   2  -8   -0.14    0.88
  -5   2  -8    0.25    0.86
  -5  -1   8   -0.33    1.02
  -4  -1   8   26.45    1.65
  -4  -1   8   26.05    0.91
  -3  -1   8   35.16    1.02
  -3  -1   8   36.64    1.55
   2   1  -8    3.13    0.41
  -2  -1   8    3.64    0.30
  -2  -1   8    3.45    0.34
  -2  -1   8    3.45    0.35
   1   1  -8    9.59    0.53
   1   1  -8    9.49    0.46
   1   1  -8    9.32    0.37
  -1  -1   8   10.04    0.50
  -1  -1   8    8.81    0.49
  -1  -1   8   10.14    0.45
   0   1  -8  179.17    3.48
   0   1  -8  172.78    3.48
   0   1  -8  177.19    3.32
   0  -1   8  174.19    3.50
   0  -1   8  178.44    3.42
   0  -1   8  173.75    3.52
  -1   1  -8   69.91    1.78
  -1   1  -8   66.52    1.64
   1  -1   8   69.37    1.69
   1  -1   8   70.97    1.75
   1  -1   8   67.79    1.77
   1  -1   8   68.75    1.84
  -2   1  -8   10.89    0.75
  -2   1  -8    9.12    0.64
  -2   1  -8    9.79    0.76
   2  -1   8    9.77    0.70
   2  -1   8   10.05    0.77
   2  -1   8   10.17    0.77
  -3   1  -8   13.70    1.01
  -3   1  -8   14.88    0.89
  -3   1  -8   11.19    0.95
   3  -1   8   12.62    1.08
   3  -1   8   11.76    0.89
   3  -1   8   11.20    0.93
  -4   1  -8    3.99    0.72
  -4   1  -8    4.52    0.85
  -4   1  -8    4.81    0.89
   4  -1   8    4.53    0.80
   4  -1   8    6.14    1.02
   4  -1   8    5.46    0.71
  -5   1  -8    2.18    0.89
  -5   0   8    1.32    0.69
  -5   0   8   -0.07    1.05
  -4   0   8   30.60    1.82
  -4   0   8   34.22    1.19
  -4   0   8   34.89    1.05
  -3   0   8    1.47    0.51
  -3   0   8    3.26    0.33
  -3   0   8    2.96    0.34
  -3   0   8    2.31    0.36
   2   0  -8  177.01    3.38
  -2   0   8  175.09    3.33
  -2   0   8  177.89    3.44
  -2   0   8  175.59    3.29
   1   0  -8   29.06    0.87
   1   0  -8   30.12    0.90
   1   0  -8   30.04    0.80
  -1   0   8   30.91    0.84
  -1   0   8   28.98    0.89
  -1   0   8   29.23    0.93
   0   0  -8    3.74    0.38
   0   0  -8    3.30    0.40
   0   0  -8    3.21    0.31
   0   0   8    3.30    0.40
   0   0   8    3.88    0.41
   0   0   8    3.51    0.37
  -1   0  -8    4.87    0.42
  -1   0  -8    4.62    0.49
  -1   0  -8    4.57    0.51
   1   0   8    4.77    0.50
   1   0   8    4.14    0.50
   1   0   8    4.51    0.44
  -2   0  -8    0.27    0.33
  -2   0  -8    0.38    0.27
  -2   0  -8    0.70    0.36
   2   0   8    0.10    0.30
   2   0   8    0.67    0.35
   2   0   8    0.70    0.35
  -3   0  -8    0.17    0.48
  -3   0  -8    0.08    0.51
  -3   0  -8   -0.06    0.34
   3   0   8    0.67    0.48
   3   0   8   -0.12    0.40
   3   0   8    0.04    0.49
  -4   0  -8    8.77    1.10
  -4   0  -8    8.27    1.02
  -4   0  -8    6.95    0.83
   4   0   8    7.23    0.77
   4   0   8    7.78    1.05
  -5   0  -8    1.96    0.85
  -5   1   8    0.83    1.10
  -5   1   8    1.28    0.74
  -5   1   8    0.50    0.60
  -4   1   8   62.83    1.85
  -4   1   8   65.79    2.57
  -4   1   8   66.77    1.68
  -3   1   8    6.81    0.95
  -3   1   8    9.99    0.57
  -3   1   8    7.83    0.69
   2  -1  -8    1.53    0.22
   2  -1  -8    1.67    0.24
   2  -1  -8    1.85    0.26
  -2   1   8    1.88    0.28
  -2   1   8    1.78    0.24
  -2   1   8    1.37    0.33
  -2   1   8    1.95    0.43
   1  -1  -8    6.85    0.47
   1  -1  -8    7.23    0.45
   1  -1  -8    7.37    0.42
  -1   1   8    6.89    0.41
  -1   1   8    7.20    0.46
   0  -1  -8   76.72    1.87
   0  -1  -8   77.55    1.74
   0  -1  -8   77.86    1.86
   0   1   8   80.61    1.78
  -1  -1  -8   70.87    1.68
   1   1   8   71.49    1.76
  -2  -1  -8    0.08    0.37
  -2  -1  -8   -0.06    0.24
  -2  -1  -8   -0.24    0.34
   2   1   8   -0.01    0.28
   2   1   8    0.15    0.32
   2   1   8   -0.30    0.32
  -3  -1  -8    0.60    0.57
  -3  -1  -8    0.37    0.37
  -3  -1  -8   -0.52    0.52
   3   1   8    1.23    0.47
   3   1   8    0.03    0.51
   3   1   8   -0.16    0.46
  -4  -1  -8   -0.13    0.52
  -4  -1  -8   -0.43    1.01
  -4  -1  -8    0.27    0.82
   4   1   8    0.71    0.75
   4   1   8    0.44    0.60
   4   1   8    0.26    0.53
  -5  -1  -8    1.95    0.90
  -5   2   8   -0.68    1.13
  -5   2   8    1.04    0.70
  -5   2   8   -0.42    0.82
  -4   2   8    1.80    0.63
  -4   2   8    0.15    0.76
  -4   2   8    0.62    0.45
  -3   2   8   43.09    1.45
  -3   2   8   42.95    1.28
  -3   2   8   44.58    1.89
   2  -2  -8   21.49    0.76
   2  -2  -8   21.49    0.64
   2  -2  -8   22.15    0.78
  -2   2   8   21.25    0.94
  -2   2   8   20.90    1.19
  -2   2   8   22.11    0.79
   1  -2  -8    0.15    0.23
   1  -2  -8    0.46    0.21
   1  -2  -8    0.68    0.20
  -1   2   8    0.27    0.20
  -1   2   8    0.31    0.26
   0  -2  -8   80.96    1.84
   0  -2  -8   82.65    2.01
   0  -2  -8   81.27    1.96
   0   2   8   79.69    2.04
   0   2   8   81.15    1.84
  -1  -2  -8   34.07    1.20
  -1  -2  -8   32.23    1.01
  -1  -2  -8   32.99    1.24
   1   2   8   33.46    1.21
   1   2   8   33.46    1.11
  -2  -2  -8    0.95    0.42
  -2  -2  -8    1.35    0.32
  -2  -2  -8    0.78    0.43
   2   2   8    1.07    0.34
   2   2   8    1.23    0.44
   2   2   8    1.68    0.42
  -3  -2  -8   -0.37    0.34
  -3  -2  -8   -0.19    0.58
  -3  -2  -8    0.41    0.58
   3   2   8    0.03    0.46
   3   2   8   -0.08    0.49
   3   2   8   -0.11    0.45
  -4  -2  -8   20.32    1.25
  -4  -2  -8   20.73    1.67
   4   2   8   20.77    1.90
  -5   3   8    1.37    0.81
  -5   3   8    1.84    1.25
  -4   3   8    1.32    0.66
  -4   3   8    1.68    0.52
  -4   3   8    1.41    0.92
  -3   3   8    4.15    0.79
  -3   3   8    3.99    0.49
  -3   3   8    4.09    0.62
   2  -3  -8   13.85    0.50
   2  -3  -8   13.85    0.70
   2  -3  -8   14.19    0.72
  -2   3   8   13.44    1.03
  -2   3   8   14.50    0.71
  -2   3   8   13.23    0.87
   1  -3  -8   22.29    0.92
   1  -3  -8   20.91    0.78
   1  -3  -8   20.75    0.83
  -1   3   8   20.18    0.99
  -1   3   8   22.72    0.82
  -1   3   8   21.31    1.05
   0  -3  -8  221.15    4.41
   0  -3  -8  221.26    4.25
   0  -3  -8  219.26    4.43
   0   3   8  213.54    4.50
   0   3   8  218.47    4.20
  -1  -3  -8   -0.36    0.34
  -1  -3  -8    0.25    0.23
  -1  -3  -8    0.33    0.35
   1   3   8    0.02    0.26
   1   3   8    0.58    0.36
  -2  -3  -8    3.44    0.62
  -2  -3  -8    3.92    0.59
  -2  -3  -8    5.17    0.55
   2   3   8    4.42    0.53
   2   3   8    4.86    0.57
   2   3   8    5.29    0.65
  -3  -3  -8   16.23    1.24
  -3  -3  -8   16.12    1.37
   3   3   8   15.56    0.95
   3   3   8   15.25    1.07
   3   3   8   14.43    1.03
  -4  -3  -8   63.56    2.03
  -5   4   8   12.10    1.45
  -5   4   8    9.49    1.12
  -5   4   8    8.82    1.64
  -4   4   8    0.80    0.89
  -4   4   8    0.40    0.71
  -4   4   8    2.11    0.60
   3  -4  -8  160.31    3.31
   3  -4  -8  164.18    3.30
  -3   4   8  164.63    3.83
  -3   4   8  165.69    3.51
  -3   4   8  158.21    4.42
   2  -4  -8    1.20    0.37
   2  -4  -8    0.99    0.24
  -2   4   8    0.56    0.32
  -2   4   8    0.45    0.43
  -2   4   8    1.18    0.53
   1  -4  -8   20.60    0.98
   1  -4  -8   19.06    0.86
   1  -4  -8   20.38    0.83
  -1   4   8   19.99    1.11
  -1   4   8   20.57    0.85
  -1   4   8   21.21    1.08
   0  -4  -8  114.76    2.55
   0  -4  -8  114.62    2.73
   0   4   8  109.66    2.64
   0   4   8  110.36    2.77
   0   4   8  111.78    2.46
  -1  -4  -8   45.71    1.38
  -1  -4  -8   48.13    1.61
   1   4   8   49.03    1.42
   1   4   8   46.91    1.63
  -2  -4  -8   23.91    0.99
  -2  -4  -8   24.94    1.28
   2   4   8   23.72    1.06
   2   4   8   24.29    0.87
   2   4   8   23.14    1.22
  -3  -4  -8    0.56    0.40
  -3  -4  -8    0.07    0.67
   3   4   8    0.17    0.57
   3   4   8    0.74    0.55
  -4  -4  -8  218.02    4.68
  -5   5   8    1.60    1.28
  -5   5   8   -2.50    1.28
  -4   5   8    1.08    0.65
  -4   5   8    0.40    0.85
  -4   5   8   -1.30    0.93
   3  -5  -8    1.51    0.46
   3  -5  -8    1.88    0.54
  -3   5   8    2.26    0.55
  -3   5   8    2.36    0.65
  -3   5   8    1.74    0.78
   2  -5  -8  130.75    3.07
   2  -5  -8  135.68    3.06
   2  -5  -8  133.34    2.63
  -2   5   8  128.69    3.30
  -2   5   8  133.24    2.97
  -2   5   8  133.95    3.60
   1  -5  -8   87.22    2.11
   1  -5  -8   85.64    2.20
  -1   5   8   85.27    2.10
  -1   5   8   83.89    2.41
  -1   5   8   83.50    2.46
   0  -5  -8   30.79    1.15
   0   5   8   31.39    1.09
   0   5   8   30.97    1.39
   0   5   8   31.58    1.27
  -1  -5  -8    9.88    0.69
  -1  -5  -8    8.03    0.90
   1   5   8    8.91    0.72
   1   5   8   11.04    0.98
   1   5   8    9.15    0.72
  -2  -5  -8    6.92    0.85
   2   5   8    7.69    0.85
   2   5   8    8.29    0.83
  -3  -5  -8   -0.51    0.76
  -3  -5  -8    1.33    0.48
   3   5   8    1.00    0.60
   3   5   8    0.66    0.67
  -4  -5  -8   15.82    1.29
  -4   6   8    1.35    1.03
  -4   6   8    0.88    0.98
   3  -6  -8    1.47    0.55
   3  -6  -8    1.26    0.62
  -3   6   8    2.29    0.61
  -3   6   8    0.38    0.80
  -3   6   8    1.39    0.75
   2  -6  -8   83.06    1.90
   2  -6  -8   83.25    2.29
  -2   6   8   84.37    2.78
  -2   6   8   80.01    2.17
   1  -6  -8   12.92    0.87
   1  -6  -8   12.92    1.04
  -1   6   8   11.58    1.13
  -1   6   8   11.17    0.79
  -1   6   8   13.29    1.06
   0  -6  -8    3.40    0.70
   0  -6  -8    2.88    0.47
   0   6   8    3.83    0.49
   0   6   8    4.00    0.65
   0   6   8    2.75    0.62
  -1  -6  -8    9.65    1.02
   1   6   8    9.97    1.05
   1   6   8    9.09    0.79
   1   6   8    8.80    0.78
  -2  -6  -8    1.54    0.72
  -2  -6  -8    0.27    0.42
   2   6   8   -0.07    0.61
   2   6   8    0.04    0.47
  -3  -6  -8    2.09    0.61
   3   6   8    1.68    0.67
   3   6   8    2.32    0.79
  -4  -6  -8    2.52    0.86
   4  -7  -8    7.34    0.87
  -4   7   8    9.68    1.42
  -4   7   8    7.25    1.40
   3  -7  -8    1.58    0.61
  -3   7   8    1.82    0.98
  -3   7   8    2.55    0.92
   2  -7  -8   17.08    1.31
   2  -7  -8   20.13    0.96
   2  -7  -8   18.51    0.95
  -2   7   8   17.60    1.46
  -2   7   8   17.88    1.10
  -2   7   8   18.85    1.56
   1  -7  -8   41.32    1.57
   1  -7  -8   38.95    1.71
  -1   7   8   42.36    1.46
  -1   7   8   39.06    1.80
  -1   7   8   40.44    1.84
   0  -7  -8    0.72    0.42
   0  -7  -8   -0.68    0.58
   0   7   8   -0.27    0.56
   0   7   8   -0.24    0.50
   0   7   8    0.09    0.38
  -1  -7  -8    1.05    0.48
   1   7   8    0.48    0.45
   1   7   8    1.62    0.50
  -2  -7  -8    2.89    0.60
   2   7   8    2.84    0.67
   2   7   8    3.46    0.84
  -3  -7  -8    1.63    0.65
   3   7   8    2.05    0.92
  -4   8   8   17.70    2.05
  -4   8   8   19.36    2.36
   3  -8  -8    0.55    0.73
  -3   8   8    1.11    1.04
  -3   8   8   -0.20    1.03
   2  -8  -8   -0.09    0.57
   2  -8  -8   -0.78    0.46
   2  -8  -8    1.30    0.85
  -2   8   8    1.74    0.85
  -2   8   8    0.60    0.81
   1  -8  -8    0.31    0.50
   1  -8  -8   -0.36    0.78
  -1   8   8    1.37    0.79
  -1   8   8    0.28    0.52
  -1   8   8    0.01    0.73
   0  -8  -8    5.97    0.76
   0  -8  -8    6.73    1.09
   0   8   8    5.45    0.69
   0   8   8    5.52    0.92
   0   8   8    6.64    0.88
  -1  -8  -8    0.79    0.54
   1   8   8    0.09    0.74
   1   8   8    0.45    0.55
  -2  -8  -8    1.64    0.64
   2   8   8    1.11    0.72
   2   8   8    2.38    0.88
  -3  -8  -8    6.22    0.98
   3  -9  -8    8.94    1.20
  -3   9   8    9.52    1.44
  -3   9   8   10.54    1.57
   2  -9  -8    9.48    1.10
   2  -9  -8    8.08    1.04
  -2   9   8    9.10    1.37
  -2   9   8    7.96    1.29
   1  -9  -8    5.39    0.84
  -1   9   8    7.26    1.09
  -1   9   8    7.93    1.17
   0  -9  -8   65.31    2.30
   0   9   8   66.74    2.60
   0   9   8   63.90    2.20
  -1  -9  -8    6.29    0.93
   1   9   8   12.56    1.67
  -2  -9  -8    5.45    0.94
   2   9   8    5.51    1.26
   2   9   8    4.80    1.18
   3 -10  -8    2.38    1.15
  -3  10   8    0.37    1.50
  -3  10   8    0.01    1.49
   2 -10  -8    0.19    0.90
   2 -10  -8   -0.17    0.75
  -2  10   8    1.95    1.22
  -2  10   8   -1.62    1.13
   1 -10  -8    1.20    0.86
   1 -10  -8    1.12    0.80
  -1  10   8    0.97    1.02
  -1  10   8   -0.52    1.10
   0 -10  -8   27.11    1.67
   0  10   8   21.95    2.04
   0  10   8   26.38    1.69
  -1 -10  -8   50.54    2.20
   1  10   8   55.69    2.68
   1 -11  -8   16.87    1.82
   1 -11  -8   22.00    2.04
  -1  11   8   17.34    2.17
  -1  11   8   18.64    2.34
   0 -11  -8    0.06    0.89
   0  11   8   -0.84    1.24
   0  13  -9    1.08    1.13
   0 -13   9    2.65    1.08
   0 -13   9    2.54    1.20
  -1  13  -9   10.23    1.46
   1 -13   9    7.95    1.59
   1 -13   9   10.78    1.30
  -2 -12   9   -0.80    1.14
  -2 -12   9   -0.88    1.04
  -1 -12   9    2.03    1.02
  -1 -12   9    2.63    1.27
  -1 -12   9    0.57    0.94
   0  12  -9   -0.72    0.84
   0  12  -9   -0.11    0.78
   0 -12   9   -0.36    0.78
   0 -12   9   -2.04    0.85
  -1  12  -9    0.85    1.00
   1 -12   9   -0.37    0.88
   1 -12   9    0.11    0.78
  -2  12  -9   -1.17    1.12
   2 -12   9   -0.54    1.01
   2 -12   9   -0.44    0.84
  -2 -11   9   -1.28    0.83
  -2 -11   9   -1.42    1.18
  -2 -11   9    0.41    0.87
   1  11  -9    1.33    0.49
  -1 -11   9   -1.01    0.69
  -1 -11   9   -0.20    0.75
  -1 -11   9    2.81    1.00
   0  11  -9    1.48    0.73
   0  11  -9    0.16    0.67
   0 -11   9    0.78    0.68
   0 -11   9    0.01    0.71
   0 -11   9    0.98    1.04
  -1  11  -9    0.09    0.81
   1 -11   9    0.12    0.61
   1 -11   9    0.41    0.74
  -2  11  -9   16.46    1.82
   2 -11   9   20.49    1.50
   2 -11   9   22.65    1.79
  -3  11  -9   15.68    1.69
  -3  11  -9    9.64    1.35
   3 -11   9   14.99    1.71
   3 -11   9   11.19    1.45
  -3 -10   9    1.60    0.91
  -3 -10   9    1.32    1.03
  -2 -10   9   14.46    1.46
  -2 -10   9   14.98    1.57
  -2 -10   9   13.91    1.40
   1  10  -9   11.47    0.69
   1  10  -9   10.19    0.74
  -1 -10   9   10.70    1.29
  -1 -10   9   11.14    1.41
  -1 -10   9   11.51    1.18
  -1 -10   9   10.48    1.21
   0  10  -9   12.33    1.12
   0  10  -9   15.06    1.10
   0 -10   9   12.46    1.22
   0 -10   9   15.51    1.52
   0 -10   9   14.05    1.52
   0 -10   9   14.18    1.16
  -1  10  -9    1.46    0.70
  -1  10  -9    0.02    0.80
  -1  10  -9    0.36    0.66
   1 -10   9    0.46    0.64
   1 -10   9    0.97    0.94
   1 -10   9    0.70    0.53
  -2  10  -9    5.70    1.34
  -2  10  -9    5.51    1.00
  -2  10  -9    4.60    0.84
   2 -10   9    5.17    0.82
   2 -10   9    6.51    1.00
  -3  10  -9    3.86    1.12
  -3  10  -9    2.73    1.00
   3 -10   9    2.66    0.99
   3 -10   9    3.35    0.90
  -3  -9   9   -0.11    0.71
  -3  -9   9    1.10    0.66
  -3  -9   9   -1.35    0.80
  -3  -9   9   -1.45    0.76
  -2  -9   9   -0.42    0.60
  -2  -9   9    0.36    0.68
  -2  -9   9   -0.14    0.55
  -2  -9   9   -0.02    0.63
   1   9  -9    0.83    0.33
   1   9  -9    0.97    0.33
  -1  -9   9    1.97    0.70
  -1  -9   9    1.96    0.63
  -1  -9   9    2.89    0.62
  -1  -9   9    0.59    0.50
   0   9  -9   61.68    1.80
   0   9  -9   59.36    1.82
   0  -9   9   59.89    2.15
   0  -9   9   60.24    2.20
   0  -9   9   47.15    2.21
   0  -9   9   59.96    2.03
  -1   9  -9   15.64    1.44
  -1   9  -9   16.56    1.21
  -1   9  -9   14.33    1.36
   1  -9   9   17.33    1.11
   1  -9   9   17.46    1.56
   1  -9   9   13.96    1.20
   1  -9   9   18.85    1.50
  -2   9  -9    8.53    1.08
  -2   9  -9    7.51    1.01
  -2   9  -9    8.65    1.16
   2  -9   9    9.57    1.20
   2  -9   9    9.51    1.00
  -3   9  -9   -0.92    0.95
  -3   9  -9    2.15    0.90
  -3   9  -9    0.57    0.81
   3  -9   9    1.82    0.70
   3  -9   9    2.05    0.88
  -4   9  -9    1.47    1.20
  -4   9  -9   -0.83    1.31
   4  -9   9    4.79    1.26
   4  -9   9    1.05    1.07
  -4  -8   9   15.06    1.76
  -4  -8   9   18.03    1.67
  -3  -8   9    3.12    0.65
  -3  -8   9    4.44    0.74
  -3  -8   9    5.47    0.96
  -3  -8   9    3.98    0.65
  -2  -8   9    4.44    0.69
  -2  -8   9    4.20    0.64
  -2  -8   9    5.49    0.81
  -2  -8   9    2.64    0.55
   1   8  -9    5.66    0.50
   1   8  -9    5.19    0.86
   1   8  -9    6.52    0.49
  -1  -8   9    5.35    0.71
  -1  -8   9    6.78    0.79
  -1  -8   9    5.69    0.77
  -1  -8   9    6.17    0.82
   0   8  -9   93.84    2.35
   0   8  -9   96.31    2.37
   0   8  -9   94.64    2.78
   0  -8   9   97.60    2.72
   0  -8   9   96.24    2.59
   0  -8   9   96.56    2.63
   0  -8   9   96.05    2.69
  -1   8  -9   12.93    1.10
  -1   8  -9   11.08    0.96
  -1   8  -9   12.12    1.04
   1  -8   9    9.09    1.22
   1  -8   9   11.14    1.24
   1  -8   9   11.49    0.88
   1  -8   9   11.80    1.28
  -2   8  -9   -0.64    0.56
  -2   8  -9   -0.89    0.46
  -2   8  -9    0.17    0.61
  -2   8  -9   -1.22    0.61
   2  -8   9   -0.16    0.55
   2  -8   9    0.60    0.92
   2  -8   9   -1.60    0.71
  -3   8  -9   14.79    1.42
  -3   8  -9   13.18    1.43
  -3   8  -9   12.50    1.45
   3  -8   9   13.49    1.17
   3  -8   9   12.08    1.37
  -4   8  -9    3.48    1.07
  -4   8  -9    3.40    1.20
  -4   8  -9    1.36    2.01
   4  -8   9    2.28    0.99
   4  -8   9    2.31    1.06
  -4  -7   9    0.13    0.81
  -4  -7   9   -0.10    0.81
  -3  -7   9   -0.21    0.41
  -3  -7   9   -0.85    0.48
  -3  -7   9   -0.91    0.56
  -2  -7   9    0.13    0.41
  -2  -7   9   -0.04    0.54
  -2  -7   9   -0.46    0.45
  -2  -7   9   -0.58    0.35
   1   7  -9   29.81    0.82
   1   7  -9   25.49    1.35
   1   7  -9   29.76    0.86
  -1  -7   9   30.92    1.25
  -1  -7   9   29.30    1.19
  -1  -7   9   29.66    1.30
  -1  -7   9   31.27    1.31
   0   7  -9  238.31    5.28
   0   7  -9  255.78    4.94
   0   7  -9  249.94    4.86
   0  -7   9  247.22    5.12
   0  -7   9  251.81    5.20
   0  -7   9  254.68    5.24
   0  -7   9  248.89    5.19
  -1   7  -9   98.43    2.69
  -1   7  -9   99.48    2.55
   1  -7   9  100.15    2.82
   1  -7   9   99.53    2.65
   1  -7   9   97.46    2.73
   1  -7   9   98.26    2.55
  -2   7  -9   30.42    1.52
  -2   7  -9   33.13    1.50
  -2   7  -9   32.86    1.43
  -2   7  -9   33.53    1.51
   2  -7   9   31.29    1.45
   2  -7   9   32.99    1.77
   2  -7   9   33.19    1.69
   2  -7   9   33.55    1.40
  -3   7  -9    9.01    1.04
  -3   7  -9    8.42    0.95
  -3   7  -9    8.61    1.01
   3  -7   9    6.29    1.09
   3  -7   9    8.71    1.02
   3  -7   9   10.49    1.16
  -4   7  -9   20.21    1.79
  -4   7  -9   17.20    1.83
  -4   7  -9   19.65    1.78
   4  -7   9   16.62    1.66
  -4  -6   9   18.71    1.53
  -4  -6   9   13.65    1.37
  -3  -6   9   33.02    1.06
  -3  -6   9   31.67    1.50
  -2  -6   9  118.27    2.58
  -2  -6   9  119.39    2.62
  -2  -6   9  115.47    2.95
   1   6  -9   38.56    1.53
   1   6  -9   40.74    0.95
   1   6  -9   40.00    1.00
  -1  -6   9   40.58    1.32
  -1  -6   9   39.80    1.49
  -1  -6   9   38.47    1.42
  -1  -6   9   41.49    1.34
   0   6  -9   42.49    1.34
   0   6  -9   43.17    1.29
   0   6  -9   42.31    1.54
   0  -6   9   42.23    1.43
   0  -6   9   42.55    1.46
   0  -6   9   43.55    1.50
   0  -6   9   41.60    1.49
  -1   6  -9    4.50    0.61
  -1   6  -9    3.14    0.55
  -1   6  -9    3.93    0.56
   1  -6   9    5.01    0.61
   1  -6   9    2.66    0.56
   1  -6   9    4.80    0.69
   1  -6   9    3.60    0.55
  -2   6  -9   21.82    1.19
  -2   6  -9   22.03    1.12
  -2   6  -9   20.75    1.23
  -2   6  -9   23.67    1.19
   2  -6   9   21.99    1.11
   2  -6   9   20.72    1.15
   2  -6   9   19.91    1.40
   2  -6   9   20.08    1.29
  -3   6  -9  123.49    3.23
  -3   6  -9  121.17    3.10
  -3   6  -9  125.80    3.19
  -3   6  -9  114.54    3.25
   3  -6   9  117.88    3.33
   3  -6   9  122.98    3.14
   3  -6   9  118.15    3.13
   3  -6   9  114.22    3.63
  -4   6  -9   13.04    1.56
  -4   6  -9   11.26    1.50
  -4   6  -9   15.38    1.57
   4  -6   9   15.87    1.43
   4  -6   9   12.10    1.44
  -5  -5   9    4.69    1.02
  -5  -5   9    6.40    1.36
  -4  -5   9   13.37    1.39
  -4  -5   9   11.28    1.47
  -3  -5   9   36.70    1.44
   2   5  -9    5.19    0.68
  -2  -5   9    5.05    0.50
  -2  -5   9    5.20    0.52
  -2  -5   9    5.03    0.65
   1   5  -9   50.44    1.14
   1   5  -9   48.29    1.05
   1   5  -9   45.81    1.59
  -1  -5   9   49.40    1.41
  -1  -5   9   46.83    1.51
  -1  -5   9   48.65    1.40
   0   5  -9   16.90    0.75
   0   5  -9   16.24    0.92
   0   5  -9   17.49    0.82
   0  -5   9   17.07    0.93
   0  -5   9   16.87    0.85
   0  -5   9   16.34    0.85
   0  -5   9   16.40    0.89
  -1   5  -9  102.74    2.55
  -1   5  -9  100.71    2.42
  -1   5  -9  104.17    2.53
   1  -5   9   97.99    2.58
   1  -5   9  100.75    2.52
   1  -5   9  100.95    2.63
   1  -5   9  100.11    2.49
  -2   5  -9    3.13    0.60
  -2   5  -9    4.19    0.63
  -2   5  -9    3.41    0.54
   2  -5   9    4.35    0.61
   2  -5   9    3.81    0.62
   2  -5   9    3.20    0.62
   2  -5   9    3.67    0.70
  -3   5  -9    4.47    0.82
  -3   5  -9    4.77    0.77
  -3   5  -9    4.57    0.76
  -3   5  -9    5.81    0.74
   3  -5   9    6.40    1.32
   3  -5   9    6.53    0.94
   3  -5   9    4.88    0.72
   3  -5   9    4.61    0.90
  -4   5  -9   13.61    1.49
  -4   5  -9   16.54    1.45
  -4   5  -9   13.68    1.50
   4  -5   9   16.17    1.81
   4  -5   9   16.74    1.35
  -5  -4   9   -0.58    1.14
  -4  -4   9   16.21    1.42
  -4  -4   9   16.99    1.12
  -3  -4   9  112.91    2.73
   2   4  -9    2.56    0.48
  -2  -4   9    3.17    0.35
  -2  -4   9    3.38    0.46
  -2  -4   9    3.38    0.43
   1   4  -9   38.44    1.36
   1   4  -9   38.49    0.97
   1   4  -9   37.38    0.86
  -1  -4   9   39.43    1.16
  -1  -4   9   39.15    1.14
  -1  -4   9   39.29    1.27
   0   4  -9   31.35    1.16
   0   4  -9   30.99    0.95
   0   4  -9   30.73    1.06
   0  -4   9   29.84    1.09
   0  -4   9   30.72    1.09
   0  -4   9   30.42    1.09
   0  -4   9   30.65    1.12
  -1   4  -9    0.20    0.30
  -1   4  -9   -0.26    0.31
  -1   4  -9   -0.05    0.27
   1  -4   9    0.48    0.38
   1  -4   9    0.10    0.27
   1  -4   9   -0.16    0.28
   1  -4   9    0.17    0.35
  -2   4  -9    6.14    0.74
  -2   4  -9    6.83    0.72
  -2   4  -9    6.51    0.82
   2  -4   9    6.66    0.73
   2  -4   9    5.53    0.70
   2  -4   9    7.72    0.73
   2  -4   9    6.46    0.73
  -3   4  -9   14.43    1.31
  -3   4  -9   15.29    1.08
  -3   4  -9   15.34    1.22
  -3   4  -9   13.49    1.03
   3  -4   9   14.23    1.04
   3  -4   9   16.68    1.24
   3  -4   9   14.97    1.39
  -4   4  -9    0.43    0.71
  -4   4  -9   -0.71    0.71
  -4   4  -9    0.51    0.65
   4  -4   9    1.00    0.91
  -5   4  -9    6.16    1.22
  -5   4  -9    5.63    1.18
  -5  -3   9    5.43    0.81
  -5  -3   9    3.32    1.19
  -4  -3   9   15.09    1.36
  -4  -3   9   13.90    0.96
  -3  -3   9    1.27    0.37
  -3  -3   9    1.08    0.54
   2   3  -9   29.64    1.15
  -2  -3   9   30.33    0.89
  -2  -3   9   29.51    0.82
  -2  -3   9   30.25    1.06
   1   3  -9  155.95    3.29
   1   3  -9  152.10    2.80
   1   3  -9  156.11    2.91
  -1  -3   9  155.27    3.03
  -1  -3   9  148.36    3.20
  -1  -3   9  150.03    3.09
   0   3  -9  302.31    5.56
   0   3  -9  309.66    5.85
   0   3  -9  308.02    5.74
   0  -3   9  303.59    5.79
   0  -3   9  308.66    5.75
   0  -3   9  304.41    5.83
  -1   3  -9   65.34    1.77
  -1   3  -9   64.41    1.78
  -1   3  -9   62.35    1.66
   1  -3   9   62.14    1.76
   1  -3   9   63.40    1.76
   1  -3   9   62.30    1.78
   1  -3   9   64.06    1.77
  -2   3  -9   12.06    0.79
  -2   3  -9   12.28    0.91
  -2   3  -9   11.74    0.81
   2  -3   9   12.27    0.82
   2  -3   9   12.47    0.96
   2  -3   9   12.53    0.86
   2  -3   9   10.98    0.91
  -3   3  -9    2.04    0.64
  -3   3  -9    1.97    0.55
   3  -3   9    1.79    0.49
   3  -3   9    2.28    0.64
   3  -3   9    1.78    0.68
  -4   3  -9   17.67    1.43
  -4   3  -9   17.64    1.41
  -4   3  -9   19.39    1.34
   4  -3   9   19.15    1.30
   4  -3   9   20.20    1.59
   4  -3   9   17.75    1.93
  -5   3  -9   -0.36    0.91
  -5   3  -9   -0.32    0.96
  -5  -2   9   11.24    1.55
  -5  -2   9   10.78    0.98
  -4  -2   9   64.92    1.74
  -3  -2   9  157.56    2.87
  -3  -2   9  154.22    3.22
  -3  -2   9  155.80    3.79
   2   2  -9   28.52    1.05
  -2  -2   9   28.56    0.86
  -2  -2   9   27.94    0.96
  -2  -2   9   28.30    0.77
   1   2  -9    1.72    0.27
   1   2  -9    1.94    0.23
   1   2  -9    1.39    0.32
  -1  -2   9    1.45    0.29
  -1  -2   9    1.65    0.26
  -1  -2   9    2.12    0.34
   0   2  -9   76.44    1.81
   0   2  -9   73.72    1.65
   0   2  -9   76.34    1.86
   0  -2   9   71.23    1.81
   0  -2   9   72.89    1.77
   0  -2   9   72.33    1.83
  -1   2  -9   -0.05    0.22
  -1   2  -9    0.24    0.30
  -1   2  -9   -0.19    0.25
   1  -2   9   -0.30    0.26
   1  -2   9    0.35    0.30
   1  -2   9    0.39    0.28
   1  -2   9    0.52    0.30
  -2   2  -9    0.02    0.35
  -2   2  -9    0.04    0.38
  -2   2  -9    0.14    0.32
   2  -2   9    0.32    0.39
   2  -2   9    0.08    0.39
   2  -2   9    0.55    0.36
  -3   2  -9    2.17    0.51
  -3   2  -9    1.58    0.53
  -3   2  -9    0.63    0.56
   3  -2   9    1.28    0.47
   3  -2   9    1.62    0.63
   3  -2   9    1.52    0.58
  -4   2  -9   38.17    1.71
  -4   2  -9   37.83    1.84
   4  -2   9   40.44    2.16
   4  -2   9   37.73    1.80
  -5   2  -9    0.22    0.92
  -5  -1   9   18.60    2.18
  -4  -1   9   37.46    1.11
  -4  -1   9   37.06    1.90
  -3  -1   9   14.99    0.57
  -3  -1   9   15.20    0.67
  -3  -1   9   15.29    1.14
   2   1  -9    2.40    0.36
  -2  -1   9    1.79    0.29
  -2  -1   9    2.28    0.33
  -2  -1   9    2.45    0.31
   1   1  -9   19.38    0.71
   1   1  -9   21.55    0.64
   1   1  -9   20.96    0.80
  -1  -1   9   19.77    0.78
  -1  -1   9   21.09    0.71
  -1  -1   9   20.70    0.78
   0   1  -9   70.05    1.74
   0   1  -9   69.97    1.59
   0   1  -9   71.20    1.75
   0  -1   9   69.63    1.78
   0  -1   9   69.26    1.78
   0  -1   9   72.86    1.71
  -1   1  -9  169.12    3.59
  -1   1  -9  170.85    3.43
  -1   1  -9  170.37    3.61
   1  -1   9  168.66    3.59
   1  -1   9  172.92    3.61
   1  -1   9  170.26    3.70
   1  -1   9  173.78    3.49
  -2   1  -9    0.24    0.35
  -2   1  -9    0.33    0.40
  -2   1  -9    0.11    0.29
   2  -1   9    0.36    0.38
   2  -1   9    0.41    0.33
   2  -1   9    0.22    0.36
  -3   1  -9    5.30    0.70
  -3   1  -9    6.61    0.78
  -3   1  -9    7.59    0.96
   3  -1   9    7.05    0.93
   3  -1   9    6.94    0.90
   3  -1   9    6.80    0.81
  -4   1  -9    0.17    0.59
  -4   1  -9    0.17    0.74
   4  -1   9    0.82    0.93
   4  -1   9    0.14    0.59
   4  -1   9    0.01    0.74
  -5   1  -9    0.47    0.94
  -5   0   9    2.31    0.74
  -5   0   9    2.65    1.33
  -4   0   9    3.99    0.58
  -4   0   9    3.64    0.44
  -4   0   9    2.49    0.82
  -3   0   9   74.03    2.43
  -3   0   9   76.30    1.68
  -3   0   9   75.41    1.84
  -3   0   9   75.66    1.63
   2   0  -9    1.00    0.27
  -2   0   9    1.63    0.25
  -2   0   9    1.26    0.29
  -2   0   9    1.31    0.25
   1   0  -9   16.23    0.68
   1   0  -9   15.63    0.58
   1   0  -9   16.55    0.68
  -1   0   9   15.31    0.68
  -1   0   9   15.45    0.62
  -1   0   9   15.19    0.72
   0   0  -9   52.38    1.40
   0   0  -9   49.51    1.39
   0   0  -9   48.51    1.23
   0   0   9   50.44    1.31
   0   0   9   47.32    1.42
   0   0   9   47.51    1.41
  -1   0  -9    5.58    0.61
  -1   0  -9    5.07    0.47
  -1   0  -9    5.80    0.59
   1   0   9    5.50    0.51
   1   0   9    6.01    0.58
   1   0   9    5.98    0.58
  -2   0  -9   32.87    1.15
  -2   0  -9   34.56    1.34
  -2   0  -9   35.56    1.35
   2   0   9   34.57    1.26
   2   0   9   32.47    1.28
   2   0   9   34.44    1.28
  -3   0  -9    5.55    0.77
  -3   0  -9    7.38    0.99
  -3   0  -9    6.39    0.73
   3   0   9    6.27    0.74
   3   0   9    7.03    0.84
   3   0   9    5.85    0.78
  -4   0  -9   15.47    1.20
   4   0   9   13.17    1.59
   4   0   9   14.90    1.76
   4   0   9   14.03    1.35
  -5   0  -9   13.01    1.67
  -5   1   9    8.29    1.54
  -5   1   9    6.41    0.98
  -4   1   9    0.73    0.80
  -4   1   9    1.14    0.48
  -4   1   9    0.79    0.54
  -3   1   9    3.07    0.40
  -3   1   9    3.59    0.51
  -3   1   9    3.80    0.78
   2  -1  -9    2.51    0.32
   2  -1  -9    1.88    0.28
   2  -1  -9    2.26    0.31
  -2   1   9    2.52    0.55
  -2   1   9    2.04    0.40
  -2   1   9    1.60    0.27
  -2   1   9    1.55    0.26
   1  -1  -9   25.83    0.86
   1  -1  -9   25.11    0.82
   1  -1  -9   25.39    0.90
  -1   1   9   26.84    0.84
   0  -1  -9    0.66    0.29
   0  -1  -9    0.97    0.24
   0  -1  -9    1.12    0.31
   0   1   9    0.53    0.28
  -1  -1  -9    4.93    0.47
  -1  -1  -9    4.71    0.59
  -1  -1  -9    4.65    0.59
   1   1   9    4.20    0.50
  -2  -1  -9    2.21    0.38
  -2  -1  -9    3.12    0.56
  -2  -1  -9    2.66    0.54
   2   1   9    2.36    0.47
   2   1   9    2.72    0.47
   2   1   9    2.82    0.52
  -3  -1  -9    2.87    0.69
  -3  -1  -9    2.53    0.72
   3   1   9    2.80    0.61
   3   1   9    3.26    0.59
   3   1   9    4.02    0.68
  -4  -1  -9    5.73    0.79
   4   1   9    6.09    0.86
   4   1   9    7.78    1.08
   4   1   9    6.58    0.83
  -5   2   9   12.26    1.42
  -5   2   9   14.59    1.60
  -5   2   9   10.33    1.55
  -4   2   9    6.97    0.79
  -4   2   9    7.25    0.87
  -4   2   9    7.62    1.15
  -3   2   9   24.40    0.96
  -3   2   9   24.28    1.48
  -3   2   9   22.17    1.14
   2  -2  -9   11.33    0.52
   2  -2  -9   11.86    0.63
   2  -2  -9   11.12    0.59
  -2   2   9   11.39    0.97
  -2   2   9   10.38    0.78
   1  -2  -9    4.01    0.47
   1  -2  -9    3.72    0.43
   1  -2  -9    4.28    0.43
  -1   2   9    4.32    0.56
  -1   2   9    4.36    0.58
   0  -2  -9   79.37    1.99
   0  -2  -9   79.53    2.04
   0  -2  -9   81.34    1.88
   0   2   9   78.82    2.11
   0   2   9   82.17    1.90
  -1  -2  -9    7.55    0.54
  -1  -2  -9    8.62    0.74
  -1  -2  -9    9.45    0.76
   1   2   9    8.20    0.64
   1   2   9    9.17    0.76
  -2  -2  -9    2.64    0.54
  -2  -2  -9    2.48    0.40
  -2  -2  -9    2.15    0.52
   2   2   9    2.29    0.49
   2   2   9    3.62    0.49
   2   2   9    3.50    0.57
  -3  -2  -9    6.06    0.77
  -3  -2  -9    4.39    0.79
  -3  -2  -9    6.93    0.89
   3   2   9    6.14    0.73
   3   2   9    5.22    0.71
   3   2   9    5.53    0.74
  -4  -2  -9    0.46    0.65
   4   2   9    2.49    0.93
   4   2   9    1.32    0.72
   4   2   9    1.47    1.00
  -5   3   9   -1.95    1.26
  -5   3   9   -0.80    0.81
  -5   3   9   -2.49    0.97
  -4   3   9    8.83    1.40
  -4   3   9    9.60    0.96
  -4   3   9   11.89    1.26
  -3   3   9    3.31    0.86
  -3   3   9    2.82    0.60
  -3   3   9    2.81    0.48
   2  -3  -9    3.86    0.39
   2  -3  -9    3.31    0.45
   2  -3  -9    3.28    0.43
  -2   3   9    3.16    0.55
  -2   3   9    2.74    0.40
  -2   3   9    3.18    0.64
   1  -3  -9   17.80    0.80
   1  -3  -9   18.50    0.77
   1  -3  -9   19.45    0.92
  -1   3   9   17.37    0.77
  -1   3   9   18.50    1.00
  -1   3   9   17.67    1.05
   0  -3  -9   31.65    1.21
   0  -3  -9   31.01    1.05
   0   3   9   30.50    1.04
   0   3   9   29.96    1.25
  -1  -3  -9    5.68    0.76
  -1  -3  -9    6.46    0.55
  -1  -3  -9    7.21    0.73
   1   3   9    6.96    0.78
   1   3   9    5.95    0.64
  -2  -3  -9   23.69    0.99
  -2  -3  -9   23.58    1.27
  -2  -3  -9   23.15    1.33
   2   3   9   22.37    1.08
   2   3   9   24.65    0.96
   2   3   9   23.43    1.23
  -3  -3  -9    2.34    0.77
  -3  -3  -9    3.68    0.93
  -3  -3  -9    3.37    0.59
   3   3   9    4.47    0.66
   3   3   9    3.83    0.68
   3   3   9    4.75    0.75
  -4  -3  -9   13.88    1.25
  -5   4   9    1.51    1.19
  -5   4   9    1.18    1.32
  -4   4   9    3.37    0.71
  -4   4   9    0.92    1.44
  -4   4   9    1.66    0.95
   3  -4  -9   77.63    1.91
   3  -4  -9   77.12    1.90
  -3   4   9   76.79    2.36
  -3   4   9   78.40    2.79
  -3   4   9   74.74    2.05
   2  -4  -9    5.21    0.45
   2  -4  -9    4.25    0.56
   2  -4  -9    4.64    0.57
  -2   4   9    4.63    0.75
  -2   4   9    4.08    0.51
  -2   4   9    4.84    0.67
   1  -4  -9   56.08    1.73
   1  -4  -9   58.64    1.65
   1  -4  -9   57.97    1.57
  -1   4   9   57.13    1.95
  -1   4   9   56.49    1.56
  -1   4   9   58.69    1.89
   0  -4  -9    2.30    0.49
   0  -4  -9    2.43    0.40
   0  -4  -9    3.24    0.52
   0   4   9    3.06    0.52
   0   4   9    2.55    0.51
   0   4   9    2.52    0.38
  -1  -4  -9    0.84    0.48
  -1  -4  -9    0.88    0.30
  -1  -4  -9    0.85    0.45
   1   4   9    0.69    0.37
   1   4   9    0.37    0.46
  -2  -4  -9    4.89    0.78
  -2  -4  -9    4.37    0.75
   2   4   9    4.55    0.61
   2   4   9    3.54    0.68
   2   4   9    5.58    0.63
  -3  -4  -9    0.41    0.47
  -3  -4  -9    0.28    0.75
   3   4   9    1.16    0.65
   3   4   9   -0.21    0.60
  -4  -4  -9    9.79    1.26
  -5   5   9    6.96    1.53
  -5   5   9    6.21    1.97
  -4   5   9    7.89    1.31
  -4   5   9    7.98    0.93
  -4   5   9    8.77    1.18
   3  -5  -9   21.72    1.09
   3  -5  -9   23.38    1.16
  -3   5   9   19.88    1.14
  -3   5   9   19.69    1.64
  -3   5   9   21.71    1.75
   2  -5  -9   23.32    1.11
   2  -5  -9   22.90    0.82
   2  -5  -9   23.00    1.17
  -2   5   9   21.81    1.29
  -2   5   9   22.66    1.49
  -2   5   9   25.30    1.08
   1  -5  -9   30.94    1.22
   1  -5  -9   31.33    1.34
   1  -5  -9   31.11    1.17
  -1   5   9   32.08    1.44
  -1   5   9   31.45    1.15
  -1   5   9   28.35    1.47
   0  -5  -9    0.16    0.30
   0  -5  -9    0.71    0.46
   0   5   9    0.19    0.42
   0   5   9    0.90    0.36
   0   5   9    1.04    0.46
  -1  -5  -9   97.49    2.45
  -1  -5  -9   96.88    2.70
   1   5   9  101.34    2.74
   1   5   9   99.01    2.40
   1   5   9   97.14    2.35
  -2  -5  -9    3.60    0.79
  -2  -5  -9    2.49    0.48
   2   5   9    3.44    0.60
   2   5   9    2.60    0.66
  -3  -5  -9    1.66    0.57
   3   5   9    1.19    0.75
   3   5   9    2.77    0.73
  -4  -5  -9    1.39    0.75
  -4   6   9    5.06    1.26
  -4   6   9    6.47    1.47
   3  -6  -9    0.20    0.51
   3  -6  -9    1.23    0.67
  -3   6   9   -0.54    0.59
  -3   6   9    0.71    0.90
  -3   6   9   -0.23    0.78
   2  -6  -9   62.23    2.04
   2  -6  -9   61.37    1.57
   2  -6  -9   62.26    1.96
  -2   6   9   62.30    2.25
  -2   6   9   62.07    1.85
   1  -6  -9   12.07    0.89
   1  -6  -9   11.75    0.95
  -1   6   9   10.45    1.15
  -1   6   9    8.56    0.79
  -1   6   9    9.37    1.27
   0  -6  -9    0.47    0.54
   0   6   9    0.77    0.54
   0   6   9    0.24    0.39
  -1  -6  -9    7.44    0.78
  -1  -6  -9    6.91    0.91
   1   6   9    6.30    0.69
   1   6   9    6.48    0.85
   1   6   9    6.27    1.00
  -2  -6  -9    1.75    0.99
  -2  -6  -9    0.54    0.46
   2   6   9   -1.18    0.52
   2   6   9   -0.64    0.62
  -3  -6  -9    2.04    0.66
   3   6   9    2.05    0.78
   3   6   9    2.02    0.90
   4  -7  -9    4.22    0.85
  -4   7   9    3.51    1.33
  -4   7   9    4.22    1.32
   3  -7  -9    4.34    0.92
  -3   7   9    4.71    1.08
  -3   7   9    2.82    1.05
   2  -7  -9    1.31    0.46
   2  -7  -9    0.30    0.55
  -2   7   9    0.01    0.72
  -2   7   9    0.62    0.56
  -2   7   9    0.06    0.76
   1  -7  -9    1.84    0.53
  -1   7   9    2.51    0.52
  -1   7   9    2.78    0.76
  -1   7   9    1.89    0.71
   0  -7  -9  209.33    4.55
   0   7   9  208.77    4.56
   0   7   9  200.46    4.80
   0   7   9  197.49    4.26
  -1  -7  -9   28.82    1.37
   1   7   9   27.73    1.65
   1   7   9   25.85    1.30
   1   7   9   28.88    1.26
  -2  -7  -9    5.42    0.77
   2   7   9    6.50    0.82
   2   7   9    6.04    0.97
  -3  -7  -9   -0.21    0.71
   3   7   9   -0.43    1.01
   4  -8  -9   15.36    1.91
  -4   8   9   11.95    1.72
  -4   8   9   12.64    2.16
   3  -8  -9    2.12    0.85
   3  -8  -9    2.13    1.03
  -3   8   9    0.21    1.03
  -3   8   9    2.56    1.31
   2  -8  -9    4.32    0.81
   2  -8  -9    5.52    0.72
  -2   8   9    5.31    1.10
  -2   8   9    6.67    1.15
   1  -8  -9   -0.41    0.53
  -1   8   9   -0.62    0.77
  -1   8   9   -1.96    0.75
   0  -8  -9   55.80    2.02
   0   8   9   53.52    2.04
   0   8   9   53.98    2.31
  -1  -8  -9   12.83    1.17
   1   8   9   12.58    1.54
   1   8   9   11.13    1.17
  -2  -8  -9    1.94    0.71
   2   8   9    1.56    0.81
   2   8   9    0.64    0.99
   3  -9  -9    1.67    1.01
  -3   9   9   -2.58    1.23
  -3   9   9    0.32    1.34
   2  -9  -9    7.54    1.05
   2  -9  -9    9.19    1.15
  -2   9   9    3.89    1.17
  -2   9   9    3.65    1.27
   1  -9  -9    5.34    0.88
  -1   9   9    7.45    1.21
  -1   9   9    6.41    1.29
   0  -9  -9   12.37    1.30
   0   9   9   12.60    1.45
   0   9   9   13.22    1.70
  -1  -9  -9  109.03    3.22
   1   9   9  115.04    3.56
  -2  -9  -9   16.03    1.55
   2   9   9   12.76    1.63
   2 -10  -9   56.98    2.49
   2 -10  -9   53.19    2.12
  -2  10   9   51.80    3.00
  -2  10   9   52.77    2.84
   1 -10  -9    0.20    0.85
  -1  10   9    1.26    1.15
  -1  10   9    1.50    1.23
   0 -10  -9    4.84    0.96
   0  10   9    4.42    1.02
   0  10   9    5.75    1.31
  -1 -10  -9    1.30    0.90
   1  10   9    1.25    1.29
  -1 -12  10   -1.03    1.33
  -1 -12  10   -0.44    0.95
  -1 -12  10    0.66    0.86
   0  12 -10   36.68    1.88
   0  12 -10   30.26    2.15
   0 -12  10   34.85    2.13
   0 -12  10   36.11    2.05
  -1  12 -10   16.35    1.86
   1 -12  10   16.91    1.83
   1 -12  10   17.83    1.59
  -2  12 -10    8.23    1.41
   2 -12  10    7.63    1.36
   2 -12  10    8.58    1.17
  -2 -11  10    1.14    0.93
  -2 -11  10    1.86    0.95
  -1 -11  10    2.14    0.87
  -1 -11  10    0.69    0.70
  -1 -11  10   -0.52    1.01
   0  11 -10    3.09    0.77
   0  11 -10    4.26    0.91
   0 -11  10    5.04    0.92
   0 -11  10    4.75    0.95
   0 -11  10    3.40    1.15
  -1  11 -10   -0.91    0.84
   1 -11  10   -0.62    0.77
   1 -11  10    0.38    0.65
  -2  11 -10   -2.54    0.97
   2 -11  10   -0.72    0.88
   2 -11  10   -1.04    0.72
  -3 -10  10   -0.61    0.94
  -2 -10  10    1.80    0.91
  -2 -10  10    2.67    0.87
  -2 -10  10    2.20    0.81
  -2 -10  10    1.60    0.88
  -1 -10  10    1.01    0.87
  -1 -10  10   -0.29    0.56
  -1 -10  10    0.14    0.63
  -1 -10  10   -1.79    0.78
   0  10 -10    0.34    0.60
   0  10 -10    0.01    0.54
   0 -10  10   -0.43    0.60
   0 -10  10    0.43    0.94
   0 -10  10    0.18    0.84
   0 -10  10    0.11    0.57
  -1  10 -10   26.75    1.60
  -1  10 -10   27.14    1.57
   1 -10  10   29.04    1.51
   1 -10  10   32.99    1.74
  -2  10 -10    0.19    0.87
   2 -10  10    0.40    0.67
   2 -10  10   -0.32    0.73
  -3  10 -10   13.07    1.39
  -3  10 -10    9.42    1.39
   3 -10  10   11.17    1.28
   3 -10  10    9.50    1.30
  -3  -9  10    0.96    0.80
  -3  -9  10    0.31    0.69
  -3  -9  10   -0.25    0.83
  -3  -9  10    0.02    0.87
  -2  -9  10    0.34    0.75
  -2  -9  10    2.64    0.75
  -2  -9  10    1.02    0.69
  -2  -9  10    1.62    0.65
   1   9 -10    1.35    0.36
  -1  -9  10    1.90    0.60
  -1  -9  10    0.80    0.54
  -1  -9  10    0.23    0.71
  -1  -9  10    0.80    0.70
   0   9 -10   11.32    1.31
   0   9 -10   13.75    1.01
   0   9 -10   13.95    0.98
   0  -9  10   12.02    1.10
   0  -9  10   13.32    1.11
   0  -9  10   10.85    1.30
   0  -9  10   10.54    1.33
  -1   9 -10   -0.40    0.55
  -1   9 -10    0.48    0.78
  -1   9 -10    0.16    0.63
   1  -9  10   -0.52    0.82
   1  -9  10    0.68    0.82
   1  -9  10   -0.54    0.44
   1  -9  10    0.67    0.60
  -2   9 -10   23.22    1.71
  -2   9 -10   25.86    1.66
   2  -9  10   24.97    1.39
   2  -9  10   26.90    1.63
  -3   9 -10    1.49    0.96
  -3   9 -10   -1.29    0.79
   3  -9  10   -0.35    0.85
   3  -9  10    0.39    0.77
  -4  -8  10    0.88    1.03
  -4  -8  10    1.21    0.99
  -3  -8  10    0.68    0.64
  -3  -8  10    1.49    0.77
  -3  -8  10    3.20    0.75
  -3  -8  10    2.07    0.63
  -2  -8  10   55.27    2.05
  -2  -8  10   57.62    1.79
  -2  -8  10   57.17    1.91
  -2  -8  10   55.50    1.81
   1   8 -10    1.09    0.29
   1   8 -10    1.01    0.66
   1   8 -10    1.65    0.33
  -1  -8  10    1.98    0.54
  -1  -8  10    1.37    0.59
  -1  -8  10    2.46    0.63
  -1  -8  10    1.30    0.55
   0   8 -10   56.11    1.69
   0   8 -10   57.28    1.73
   0  -8  10   57.77    1.94
   0  -8  10   56.96    2.05
   0  -8  10   56.29    1.91
   0  -8  10   58.29    2.06
  -1   8 -10   19.21    1.31
  -1   8 -10   16.41    1.16
  -1   8 -10   18.68    1.15
   1  -8  10   18.69    1.08
   1  -8  10   18.04    1.45
   1  -8  10   15.81    1.38
   1  -8  10   17.96    1.17
  -2   8 -10    0.21    0.62
  -2   8 -10    1.07    0.73
  -2   8 -10    0.54    0.66
   2  -8  10    1.53    0.88
   2  -8  10    0.43    0.53
   2  -8  10    0.12    0.82
   2  -8  10    0.26    0.60
  -3   8 -10    0.52    0.90
  -3   8 -10    1.64    0.90
  -3   8 -10    0.53    0.72
   3  -8  10    0.95    0.65
   3  -8  10    2.64    0.85
  -4   8 -10    3.70    1.14
  -4   8 -10    1.04    1.00
   4  -8  10    2.31    1.04
  -4  -7  10    1.89    0.88
  -4  -7  10    0.80    0.91
  -3  -7  10   91.27    2.22
  -3  -7  10   90.67    2.73
  -3  -7  10   90.08    2.29
  -2  -7  10    1.11    0.48
  -2  -7  10    1.77    0.51
  -2  -7  10    1.01    0.54
  -2  -7  10    1.49    0.46
   1   7 -10    1.39    0.30
   1   7 -10    1.12    0.24
   1   7 -10    0.75    0.52
  -1  -7  10    1.20    0.39
  -1  -7  10    0.84    0.44
  -1  -7  10    1.18    0.51
  -1  -7  10    1.58    0.46
   0   7 -10   21.72    1.04
   0   7 -10   21.53    0.98
   0  -7  10   20.91    1.10
   0  -7  10   23.56    1.27
   0  -7  10   19.27    1.23
   0  -7  10   22.32    1.13
  -1   7 -10  113.08    2.90
  -1   7 -10  111.00    3.02
  -1   7 -10  118.04    2.86
   1  -7  10  113.66    3.15
   1  -7  10  120.05    3.01
   1  -7  10  120.06    2.96
   1  -7  10  114.10    3.10
  -2   7 -10  151.88    3.70
  -2   7 -10  159.03    3.79
   2  -7  10  157.99    3.81
   2  -7  10  151.86    3.95
  -3   7 -10    0.39    0.75
  -3   7 -10   -0.43    0.69
  -3   7 -10    0.82    0.66
   3  -7  10    0.23    0.60
   3  -7  10    1.35    0.69
  -4   7 -10   19.20    1.78
  -4   7 -10   18.63    1.91
   4  -7  10   18.59    1.74
  -4  -6  10   21.66    1.52
  -4  -6  10   26.95    1.81
  -3  -6  10   17.10    0.87
  -3  -6  10   16.20    0.92
   2   6 -10   10.54    1.07
  -2  -6  10   12.07    0.79
  -2  -6  10   11.31    0.86
  -2  -6  10   12.32    0.89
   1   6 -10    0.16    0.19
   1   6 -10    0.41    0.47
   1   6 -10    0.38    0.25
  -1  -6  10    0.72    0.44
  -1  -6  10    0.00    0.33
  -1  -6  10    0.29    0.36
  -1  -6  10    0.44    0.34
   0   6 -10   98.77    2.25
   0   6 -10   96.49    2.61
   0   6 -10   88.60    2.66
   0  -6  10   98.69    2.52
   0  -6  10   97.96    2.48
   0  -6  10   95.04    2.49
   0  -6  10  101.86    2.57
  -1   6 -10  162.01    3.76
  -1   6 -10  166.12    3.70
  -1   6 -10  164.78    3.59
   1  -6  10  165.61    3.76
   1  -6  10  163.28    3.83
   1  -6  10  161.83    3.87
   1  -6  10  161.81    3.69
  -2   6 -10    2.57    0.75
  -2   6 -10    2.55    0.59
  -2   6 -10    3.02    0.63
   2  -6  10    2.69    0.70
   2  -6  10    3.20    0.68
   2  -6  10    2.31    0.77
   2  -6  10    2.91    0.55
  -3   6 -10    3.34    0.72
  -3   6 -10    5.33    0.88
  -3   6 -10    3.55    0.76
   3  -6  10    4.24    0.76
   3  -6  10    5.28    0.81
   3  -6  10    3.85    0.99
  -4   6 -10   15.38    1.70
  -4   6 -10   17.45    1.67
   4  -6  10   15.25    1.58
  -5  -5  10   -0.39    1.30
  -5  -5  10    0.25    0.95
  -3  -5  10   85.04    1.88
  -3  -5  10   82.33    1.87
  -3  -5  10   82.49    2.34
   2   5 -10   -0.91    0.46
  -2  -5  10   -0.04    0.32
  -2  -5  10   -0.17    0.32
  -2  -5  10   -0.23    0.29
   1   5 -10    2.02    0.23
   1   5 -10    2.16    0.31
   1   5 -10    1.54    0.43
  -1  -5  10    2.03    0.44
  -1  -5  10    1.83    0.39
  -1  -5  10    1.70    0.39
   0   5 -10    4.11    0.50
   0   5 -10    3.96    0.50
   0   5 -10    3.54    0.54
   0  -5  10    3.77    0.51
   0  -5  10    3.22    0.49
   0  -5  10    2.73    0.53
   0  -5  10    4.06    0.53
  -1   5 -10   19.44    1.06
  -1   5 -10   19.97    1.07
  -1   5 -10   19.20    0.94
   1  -5  10   18.89    1.10
   1  -5  10   19.22    1.12
   1  -5  10   17.68    0.99
   1  -5  10   20.08    1.01
  -2   5 -10    8.37    0.94
  -2   5 -10    8.66    0.88
  -2   5 -10    8.43    0.85
   2  -5  10    8.78    0.83
   2  -5  10    7.87    1.07
   2  -5  10    7.92    1.06
   2  -5  10    7.73    0.83
  -3   5 -10    5.09    0.89
  -3   5 -10    7.27    0.94
  -3   5 -10    8.43    1.05
   3  -5  10    4.80    0.98
   3  -5  10    7.48    0.86
   3  -5  10    5.41    0.80
   3  -5  10    6.52    0.97
  -4   5 -10   14.11    1.53
  -4   5 -10   15.29    1.95
  -4   5 -10   13.49    1.52
   4  -5  10   16.13    1.45
   4  -5  10   15.92    1.95
  -5  -4  10   -0.74    1.26
  -4  -4  10   12.09    1.42
  -4  -4  10   10.86    1.00
  -3  -4  10   33.94    1.32
   2   4 -10   62.60    1.90
  -2  -4  10   57.41    1.50
  -2  -4  10   61.19    1.75
  -2  -4  10   59.76    1.46
   1   4 -10    0.47    0.35
   1   4 -10    0.37    0.23
   1   4 -10    0.21    0.15
  -1  -4  10    0.19    0.27
  -1  -4  10   -0.04    0.26
  -1  -4  10    0.39    0.29
   0   4 -10    0.43    0.34
   0   4 -10    0.49    0.23
   0   4 -10    0.42    0.32
   0  -4  10    0.25    0.29
   0  -4  10    0.46    0.35
   0  -4  10   -0.09    0.27
   0  -4  10   -0.12    0.27
  -1   4 -10    4.42    0.61
  -1   4 -10    3.26    0.47
  -1   4 -10    5.36    0.69
   1  -4  10    3.33    0.46
   1  -4  10    3.99    0.58
   1  -4  10    4.42    0.59
   1  -4  10    4.23    0.56
  -2   4 -10    3.02    0.58
  -2   4 -10    1.25    0.44
  -2   4 -10    3.57    0.64
   2  -4  10    1.89    0.49
   2  -4  10    2.10    0.56
   2  -4  10    2.34    0.58
   2  -4  10    1.88    0.49
  -3   4 -10   14.53    1.12
  -3   4 -10   15.77    1.15
  -3   4 -10   17.31    1.34
   3  -4  10   16.98    1.49
   3  -4  10   15.66    1.34
  -4   4 -10    2.29    0.84
  -4   4 -10    2.35    1.08
   4  -4  10    2.78    0.76
   4  -4  10    3.38    1.09
  -5  -3  10    0.22    1.25
  -5  -3  10    0.27    0.65
  -4  -3  10   -0.16    0.70
  -4  -3  10   -0.10    0.42
  -3  -3  10  112.77    2.65
  -3  -3  10  115.74    2.24
  -2  -3  10    2.45    0.40
  -2  -3  10    2.85    0.33
  -2  -3  10    2.88    0.36
   1   3 -10   49.52    1.23
   1   3 -10   47.88    1.10
  -1  -3  10   51.10    1.33
  -1  -3  10   49.12    1.44
  -1  -3  10   47.73    1.37
   0   3 -10    4.72    0.44
   0   3 -10    4.25    0.55
   0   3 -10    5.59    0.56
   0  -3  10    4.06    0.51
   0  -3  10    4.65    0.54
  -1   3 -10  126.92    2.81
  -1   3 -10  130.06    2.99
   1  -3  10  129.15    3.00
   1  -3  10  131.10    3.03
   1  -3  10  131.11    3.03
   1  -3  10  133.67    3.01
  -2   3 -10   20.83    1.01
  -2   3 -10   22.21    1.10
  -2   3 -10   21.45    1.15
   2  -3  10   22.05    1.22
   2  -3  10   23.20    1.22
   2  -3  10   21.15    1.08
   2  -3  10   20.83    1.13
  -3   3 -10   23.75    1.23
  -3   3 -10   23.25    1.30
  -3   3 -10   22.52    1.42
   3  -3  10   21.26    1.51
   3  -3  10   24.92    1.28
   3  -3  10   22.56    1.42
  -4   3 -10    1.04    0.74
  -4   3 -10    0.43    1.48
   4  -3  10    2.44    0.75
   4  -3  10    1.35    0.97
   4  -3  10    2.05    1.14
  -5  -2  10    1.82    1.28
  -5  -2  10    1.51    0.68
  -4  -2  10    0.59    0.80
  -4  -2  10   -0.27    0.40
  -3  -2  10   43.96    1.79
  -3  -2  10   42.80    1.06
  -3  -2  10   45.27    1.21
  -3  -2  10   44.02    1.33
   2   2 -10    4.26    0.57
  -2  -2  10    4.63    0.41
  -2  -2  10    4.49    0.48
  -2  -2  10    4.51    0.48
   1   2 -10    1.06    0.20
   1   2 -10    1.18    0.32
   1   2 -10    1.05    0.25
  -1  -2  10    0.85    0.27
  -1  -2  10    1.04    0.29
  -1  -2  10    0.99    0.28
   0   2 -10    1.82    0.37
   0   2 -10    1.58    0.27
   0  -2  10    1.52    0.35
   0  -2  10    1.96    0.38
  -1   2 -10  147.82    3.27
  -1   2 -10  151.06    3.32
  -1   2 -10  146.05    3.10
   1  -2  10  149.00    3.23
   1  -2  10  148.32    3.36
   1  -2  10  151.15    3.30
   1  -2  10  146.33    3.28
  -2   2 -10   23.78    1.20
  -2   2 -10   24.99    1.05
  -2   2 -10   27.53    1.21
   2  -2  10   25.93    1.25
   2  -2  10   24.57    1.23
   2  -2  10   24.21    1.13
  -3   2 -10    8.99    1.08
  -3   2 -10    7.18    0.99
  -3   2 -10    8.10    0.89
   3  -2  10    7.30    0.92
   3  -2  10    8.16    1.01
   3  -2  10    8.50    1.08
  -4   2 -10    1.92    0.72
   4  -2  10    1.37    0.92
   4  -2  10    0.65    1.01
  -5  -1  10    7.02    1.52
  -4  -1  10    3.09    0.39
  -4  -1  10    3.19    0.42
  -4  -1  10    2.53    0.92
  -4  -1  10    3.42    0.55
  -3  -1  10  364.85    7.46
  -3  -1  10  361.75    6.43
  -3  -1  10  360.02    6.59
   2   1 -10   90.19    2.12
  -2  -1  10   94.47    1.92
  -2  -1  10   89.93    2.06
  -2  -1  10   86.29    2.03
   1   1 -10    1.13    0.31
   1   1 -10    1.38    0.23
   1   1 -10    1.07    0.28
  -1  -1  10    1.54    0.31
  -1  -1  10    1.23    0.27
  -1  -1  10    1.30    0.29
   0   1 -10    9.49    0.65
   0   1 -10   10.13    0.65
   0   1 -10    8.90    0.52
   0  -1  10    8.62    0.63
   0  -1  10    8.99    0.63
  -1   1 -10   15.59    0.73
  -1   1 -10   15.63    0.87
  -1   1 -10   16.70    0.90
   1  -1  10   14.95    0.82
   1  -1  10   15.86    0.91
   1  -1  10   15.12    0.86
   1  -1  10   17.58    0.90
  -2   1 -10    9.34    0.86
  -2   1 -10   10.30    0.84
  -2   1 -10    8.87    0.70
   2  -1  10    9.79    0.85
   2  -1  10    9.54    0.88
   2  -1  10    8.51    0.78
  -3   1 -10   16.59    1.19
  -3   1 -10   14.71    1.21
  -3   1 -10   17.74    1.04
   3  -1  10   15.00    1.17
   3  -1  10   15.59    1.07
   3  -1  10   16.76    1.27
  -4   1 -10    4.77    0.82
   4  -1  10    4.21    0.81
   4  -1  10    4.52    1.12
   4  -1  10    3.73    0.94
  -5   0  10    1.59    1.26
  -5   0  10    2.87    0.84
  -4   0  10   -0.36    0.73
  -4   0  10    0.76    0.56
  -4   0  10    0.77    0.38
  -3   0  10   66.65    2.34
  -3   0  10   68.51    1.56
  -3   0  10   66.62    1.57
  -3   0  10   66.24    1.78
   2   0 -10   45.04    1.26
  -2   0  10   43.84    1.23
  -2   0  10   45.75    1.35
  -2   0  10   46.35    1.18
   1   0 -10    0.89    0.28
   1   0 -10    0.67    0.22
   1   0 -10    0.56    0.27
  -1   0  10    0.31    0.23
  -1   0  10    0.65    0.28
  -1   0  10    0.08    0.24
   0   0 -10   10.75    0.69
   0   0 -10   10.05    0.65
   0   0 -10   10.51    0.55
   0   0  10   10.35    0.71
   0   0  10   10.16    0.69
   0   0  10    9.54    0.61
  -1   0 -10   72.23    1.98
  -1   0 -10   71.75    1.78
  -1   0 -10   70.64    1.95
   1   0  10   72.65    1.83
   1   0  10   70.49    1.97
   1   0  10   74.18    1.91
  -2   0 -10   16.19    1.03
  -2   0 -10   18.81    0.88
  -2   0 -10   19.19    1.11
   2   0  10   15.81    1.00
   2   0  10   18.03    1.02
   2   0  10   18.75    1.01
  -3   0 -10    2.54    0.54
  -3   0 -10    4.14    0.79
  -3   0 -10    1.39    0.68
   3   0  10    2.96    0.72
   3   0  10    2.32    0.63
   3   0  10    3.00    0.61
  -4   0 -10    4.23    0.77
   4   0  10    4.73    0.85
   4   0  10    4.22    1.05
   4   0  10    3.85    0.92
  -5   1  10    2.54    0.88
  -5   1  10    0.75    1.33
  -4   1  10    1.46    0.48
  -4   1  10    1.78    0.65
  -4   1  10    1.31    0.91
  -3   1  10   48.84    1.57
   2  -1 -10    3.93    0.40
   2  -1 -10    3.97    0.45
   2  -1 -10    3.93    0.46
  -2   1  10    3.91    0.45
  -2   1  10    3.19    0.60
  -2   1  10    2.98    0.60
  -2   1  10    3.15    0.49
   1  -1 -10  122.78    2.61
   1  -1 -10  126.13    2.73
   1  -1 -10  129.53    2.69
  -1   1  10  127.52    2.69
   0  -1 -10   21.28    0.94
   0  -1 -10   21.42    0.81
   0   1  10   21.01    0.86
  -1  -1 -10    1.65    0.45
  -1  -1 -10    1.54    0.31
  -1  -1 -10    1.76    0.44
   1   1  10    1.91    0.42
  -2  -1 -10    0.48    0.47
  -2  -1 -10    0.49    0.32
  -2  -1 -10   -0.85    0.42
   2   1  10    0.65    0.46
   2   1  10    0.91    0.47
   2   1  10    0.95    0.45
  -3  -1 -10   -0.68    0.66
  -3  -1 -10   -0.30    0.65
  -3  -1 -10    0.53    0.47
   3   1  10   -0.64    0.58
   3   1  10   -0.05    0.59
   3   1  10    0.19    0.53
  -4  -1 -10   -0.54    0.62
   4   1  10   -0.04    0.72
   4   1  10    0.30    0.84
   4   1  10    0.18    0.95
  -5   2  10    2.73    1.32
  -5   2  10   -0.31    0.91
  -4   2  10    0.12    0.51
  -4   2  10   -1.60    0.84
  -4   2  10    0.54    0.67
  -3   2  10   93.04    2.44
  -3   2  10   87.43    2.13
  -3   2  10   89.77    2.93
   2  -2 -10    6.21    0.55
   2  -2 -10    5.81    0.55
   2  -2 -10    5.93    0.48
  -2   2  10    5.94    0.74
  -2   2  10    5.99    0.84
  -2   2  10    5.23    0.54
   1  -2 -10    3.68    0.54
   1  -2 -10    2.78    0.39
   1  -2 -10    3.35    0.42
  -1   2  10    3.45    0.51
  -1   2  10    2.08    0.34
   0  -2 -10    0.78    0.35
   0  -2 -10    0.44    0.26
   0  -2 -10    0.70    0.36
   0   2  10    0.05    0.36
   0   2  10    0.51    0.29
  -1  -2 -10   16.31    0.95
  -1  -2 -10   15.69    0.97
  -1  -2 -10   16.11    0.78
   1   2  10   16.35    1.00
   1   2  10   16.78    0.88
  -2  -2 -10   15.58    0.86
  -2  -2 -10   15.49    1.11
  -2  -2 -10   15.78    1.14
   2   2  10   15.28    0.91
   2   2  10   16.03    1.08
   2   2  10   16.04    1.02
  -3  -2 -10   -1.03    0.74
  -3  -2 -10    0.21    0.75
  -3  -2 -10    0.52    0.45
   3   2  10    0.37    0.65
   3   2  10    0.08    0.56
  -4  -2 -10   -0.72    0.64
   4   2  10    1.23    0.81
  -5   3  10    0.37    1.29
  -5   3  10   -0.85    1.12
  -4   3  10    2.91    1.11
  -4   3  10    3.89    0.65
  -4   3  10    3.36    0.83
  -3   3  10    0.75    0.66
  -3   3  10    1.74    0.44
  -3   3  10    1.19    0.57
   2  -3 -10   36.56    1.23
   2  -3 -10   37.16    1.04
   2  -3 -10   35.11    1.20
  -2   3  10   37.60    1.22
  -2   3  10   33.44    1.61
  -2   3  10   35.94    1.46
   1  -3 -10   11.94    0.72
   1  -3 -10   11.43    0.80
   1  -3 -10   11.43    0.68
  -1   3  10   11.31    0.88
  -1   3  10   10.91    0.95
  -1   3  10   12.20    0.69
   0  -3 -10    0.79    0.39
   0  -3 -10    0.75    0.29
   0  -3 -10    0.23    0.37
   0   3  10    0.51    0.31
   0   3  10    0.33    0.39
  -1  -3 -10   46.79    1.69
  -1  -3 -10   45.68    1.63
  -1  -3 -10   44.94    1.39
   1   3  10   45.75    1.68
   1   3  10   47.26    1.47
  -2  -3 -10   19.52    1.23
  -2  -3 -10   16.38    1.09
  -2  -3 -10   21.84    1.35
   2   3  10   18.84    1.09
   2   3  10   17.56    1.15
   2   3  10   17.76    0.91
  -3  -3 -10    0.77    0.89
  -3  -3 -10    2.11    0.57
   3   3  10    0.67    0.58
   3   3  10    1.06    0.66
   3   3  10    1.14    0.65
  -4  -3 -10   -0.04    0.69
   4   3  10    0.17    0.86
  -5   4  10   17.22    2.30
  -5   4  10   19.15    2.37
  -4   4  10    1.19    0.68
  -4   4  10    1.79    0.87
  -4   4  10    0.42    1.05
   3  -4 -10    2.87    0.49
   3  -4 -10    2.73    0.50
  -3   4  10    3.69    0.71
  -3   4  10    3.51    0.93
  -3   4  10    3.20    0.57
   2  -4 -10    1.59    0.42
   2  -4 -10    3.05    0.51
   2  -4 -10    1.73    0.33
  -2   4  10    2.11    0.60
  -2   4  10    2.27    0.68
  -2   4  10    1.60    0.43
   1  -4 -10   14.05    0.79
   1  -4 -10   12.32    0.80
   1  -4 -10   14.67    0.96
  -1   4  10   14.41    0.79
  -1   4  10   12.67    1.08
  -1   4  10   15.04    1.04
   0  -4 -10   10.16    0.71
   0  -4 -10    9.51    0.86
   0  -4 -10    8.43    0.86
   0   4  10    8.87    0.93
   0   4  10    9.45    0.87
   0   4  10    9.64    0.71
  -1  -4 -10   74.16    1.97
  -1  -4 -10   74.97    2.26
  -1  -4 -10   74.06    2.30
   1   4  10   72.87    1.98
   1   4  10   74.37    2.28
  -2  -4 -10   -0.03    0.66
  -2  -4 -10    0.66    0.40
  -2  -4 -10    1.23    0.63
   2   4  10    0.33    0.39
   2   4  10    0.43    0.59
   2   4  10    0.74    0.50
  -3  -4 -10    0.29    0.53
   3   4  10    1.14    0.75
   3   4  10   -0.24    0.71
  -4  -4 -10    5.45    0.91
  -4   5  10   15.87    2.14
  -4   5  10   11.58    1.39
   3  -5 -10   -0.04    0.48
   3  -5 -10    0.37    0.60
  -3   5  10    2.13    0.91
  -3   5  10    0.46    0.72
  -3   5  10    0.80    0.55
   2  -5 -10  141.07    2.86
   2  -5 -10  137.27    3.28
   2  -5 -10  141.85    3.26
  -2   5  10  140.19    3.18
   1  -5 -10    0.28    0.49
   1  -5 -10   -0.51    0.34
   1  -5 -10   -0.08    0.41
  -1   5  10    0.54    0.38
  -1   5  10   -0.44    0.48
  -1   5  10   -0.79    0.52
   0  -5 -10    9.54    0.98
   0  -5 -10    9.79    0.97
   0  -5 -10    8.43    0.73
   0   5  10    9.86    1.02
   0   5  10    8.28    0.75
   0   5  10   10.72    1.04
  -1  -5 -10   53.91    1.95
  -1  -5 -10   53.01    1.68
  -1  -5 -10   54.37    2.02
   1   5  10   52.29    1.67
   1   5  10   52.04    2.18
   1   5  10   53.21    1.66
  -2  -5 -10   24.93    1.21
  -2  -5 -10   24.45    1.59
   2   5  10   25.16    1.07
   2   5  10   23.09    1.29
   2   5  10   25.84    1.01
  -3  -5 -10    6.14    0.83
   3   5  10    7.33    0.94
   3   5  10    8.78    1.07
  -4   6  10    0.05    1.19
  -4   6  10    1.50    1.16
   3  -6 -10    0.93    0.72
   3  -6 -10    1.46    0.61
  -3   6  10   -0.12    0.98
  -3   6  10    1.06    0.93
   2  -6 -10    8.65    1.10
   2  -6 -10   10.22    0.77
   2  -6 -10    9.21    0.92
  -2   6  10   10.10    1.19
  -2   6  10    8.47    0.94
  -2   6  10   10.14    1.27
   1  -6 -10   97.34    2.62
   1  -6 -10   95.09    2.50
   1  -6 -10   95.81    2.73
  -1   6  10   96.76    2.45
  -1   6  10   96.18    2.90
  -1   6  10   96.16    2.88
   0  -6 -10   30.39    1.32
   0  -6 -10   28.97    1.52
   0   6  10   30.53    1.59
   0   6  10   29.46    1.25
   0   6  10   31.64    1.54
  -1  -6 -10    7.24    0.83
  -1  -6 -10    6.04    0.88
   1   6  10    5.95    0.74
   1   6  10    6.21    0.89
   1   6  10    6.07    0.72
  -2  -6 -10    4.60    0.70
   2   6  10    5.31    0.92
   2   6  10    3.48    0.72
  -3  -6 -10    2.97    0.75
  -4   7  10    0.67    1.38
  -4   7  10    1.16    1.45
   3  -7 -10   -0.72    0.68
   3  -7 -10   -0.49    0.85
  -3   7  10   -0.51    0.99
  -3   7  10   -0.82    1.04
   2  -7 -10    0.65    0.59
   2  -7 -10    0.12    0.47
   2  -7 -10    2.28    0.85
  -2   7  10   -0.54    0.84
  -2   7  10    0.21    0.82
   1  -7 -10   42.76    1.73
   1  -7 -10   41.29    1.69
   1  -7 -10   38.74    1.88
  -1   7  10   46.87    2.36
  -1   7  10   40.42    1.99
  -1   7  10   41.34    2.00
   0  -7 -10    8.29    0.97
   0   7  10    4.49    0.67
   0   7  10    6.77    0.90
   0   7  10    5.90    0.96
  -1  -7 -10    2.34    0.61
   1   7  10    1.72    0.67
   1   7  10    2.87    0.66
   1   7  10    2.68    0.84
  -2  -7 -10   10.11    1.15
   2   7  10    9.45    1.23
   2   7  10    7.62    0.95
  -3  -7 -10   -0.30    0.77
   3   7  10    0.35    1.18
   3  -8 -10    4.75    0.98
  -3   8  10    4.59    1.23
  -3   8  10    5.63    1.45
   2  -8 -10    2.71    0.79
   2  -8 -10    1.94    0.69
  -2   8  10    1.04    1.05
  -2   8  10    4.24    1.11
   1  -8 -10   12.64    1.44
   1  -8 -10   12.69    1.25
  -1   8  10   14.84    1.64
   0  -8 -10   34.38    1.63
   0   8  10   32.41    1.80
   0   8  10   31.89    2.02
  -1  -8 -10   -0.87    0.59
   1   8  10   -0.32    0.65
   1   8  10    0.34    0.96
  -2  -8 -10    0.77    0.75
   2   8  10    0.54    1.17
   3  -9 -10   18.49    1.97
  -3   9  10   27.94    2.55
  -3   9  10   24.27    2.65
   2  -9 -10    1.56    0.76
   2  -9 -10    1.53    0.86
  -2   9  10    1.59    1.16
  -2   9  10    0.83    1.19
   1  -9 -10    0.82    0.76
  -1   9  10    0.69    1.09
  -1   9  10    1.71    1.05
   0  -9 -10   -0.94    0.69
   0   9  10   -0.94    1.01
   0   9  10   -0.01    0.90
  -1  -9 -10    7.78    1.03
   1   9  10    5.98    1.31
   2 -10 -10    8.17    1.31
  -2  10  10    6.99    1.75
  -2  10  10    9.18    1.91
   1 -10 -10    5.97    1.14
  -1  10  10    5.34    1.42
  -1  10  10    6.23    1.45
   0 -10 -10    3.13    0.95
   0  10  10    1.75    1.79
   0  10  10    3.16    1.29
  -1 -12  11    0.34    1.09
  -1 -12  11   -0.84    0.79
   0  12 -11   21.77    1.77
   0 -12  11   22.14    1.88
   0 -12  11   22.23    1.71
  -1  12 -11    4.64    1.23
   1 -12  11    5.87    1.25
   1 -12  11    3.51    0.98
  -2 -11  11   29.45    2.02
  -2 -11  11   32.93    2.05
  -1 -11  11   -0.85    1.11
  -1 -11  11   -0.85    0.83
  -1 -11  11    0.44    0.71
   0  11 -11    2.00    0.77
   0 -11  11    1.51    0.73
   0 -11  11    3.56    0.97
  -1  11 -11    1.46    0.92
   1 -11  11    2.05    0.83
   1 -11  11    0.28    0.88
  -2  11 -11    0.68    1.04
   2 -11  11    2.40    0.91
   2 -11  11    0.37    1.00
  -3 -10  11   -0.68    0.96
  -3 -10  11   -1.76    0.85
  -2 -10  11   13.05    1.42
  -2 -10  11   11.28    1.46
  -2 -10  11   10.45    1.22
  -2 -10  11   10.83    1.29
  -1 -10  11    0.71    0.67
  -1 -10  11    1.21    0.91
  -1 -10  11    0.43    0.70
  -1 -10  11    0.06    0.93
   0  10 -11    3.15    0.73
   0  10 -11    1.18    0.66
   0 -10  11    2.28    0.80
   0 -10  11    2.83    0.72
   0 -10  11    2.81    1.05
  -1  10 -11    3.15    0.82
  -1  10 -11    2.36    0.86
   1 -10  11    2.57    0.70
   1 -10  11    2.87    0.86
  -2  10 -11    1.18    0.89
   2 -10  11   -1.16    0.77
   2 -10  11    0.55    0.69
  -3  10 -11   16.16    2.01
   3 -10  11   13.98    1.70
   3 -10  11   16.29    1.91
  -3  -9  11    3.93    0.85
  -3  -9  11    4.85    1.01
  -3  -9  11    4.58    0.94
  -2  -9  11    2.78    0.81
  -2  -9  11    1.66    0.72
  -2  -9  11    1.43    0.79
  -2  -9  11    2.31    0.85
   1   9 -11   17.48    0.73
  -1  -9  11   19.77    1.45
  -1  -9  11   12.36    1.51
  -1  -9  11   17.55    1.27
  -1  -9  11   16.34    1.44
   0   9 -11   17.28    1.10
   0   9 -11   16.73    1.12
   0  -9  11   19.16    1.29
   0  -9  11   16.89    1.50
   0  -9  11   16.38    1.23
   0  -9  11   17.87    1.48
  -1   9 -11   10.78    1.25
  -1   9 -11   13.82    1.19
  -1   9 -11   10.14    1.39
   1  -9  11   12.90    1.09
   1  -9  11   13.21    1.26
   1  -9  11   10.48    1.29
  -2   9 -11   -0.02    0.80
   2  -9  11   -0.32    0.60
   2  -9  11    0.36    0.70
  -3   9 -11    6.39    1.13
   3  -9  11    4.75    1.07
   3  -9  11    3.47    0.92
  -4  -8  11    1.95    1.04
  -4  -8  11    1.54    1.11
  -3  -8  11    0.29    0.71
  -3  -8  11   -0.17    0.60
  -3  -8  11   -0.84    0.70
  -3  -8  11    0.45    0.77
  -2  -8  11    1.07    0.69
  -2  -8  11   -0.48    0.57
  -2  -8  11   -0.60    0.54
  -2  -8  11    0.18    0.53
   1   8 -11    2.02    0.71
  -1  -8  11    0.17    0.63
  -1  -8  11    1.44    0.60
  -1  -8  11    0.55    0.49
  -1  -8  11    0.82    0.51
   0   8 -11    1.65    0.49
   0   8 -11    1.81    0.55
   0   8 -11    1.30    0.62
   0  -8  11    0.46    0.68
   0  -8  11    0.86    0.65
   0  -8  11    1.66    0.55
  -1   8 -11   39.59    1.81
  -1   8 -11   39.02    1.68
   1  -8  11   42.93    1.98
   1  -8  11   44.34    1.80
   1  -8  11   44.19    1.94
   1  -8  11   41.66    1.67
  -2   8 -11   10.86    1.28
  -2   8 -11   11.36    1.35
   2  -8  11   10.97    1.23
   2  -8  11   12.51    1.14
  -3   8 -11    2.98    0.94
   3  -8  11    3.54    0.85
   3  -8  11    4.48    0.99
  -4   8 -11    0.33    1.05
  -4   8 -11    0.26    1.52
   4  -8  11   -0.13    1.10
  -4  -7  11    0.04    0.87
  -4  -7  11   -0.21    0.99
  -3  -7  11   26.98    1.24
  -3  -7  11   24.80    1.51
  -2  -7  11   10.54    0.91
  -2  -7  11   10.06    0.98
  -2  -7  11   10.74    1.05
   1   7 -11    2.76    0.31
   1   7 -11    2.38    0.67
   1   7 -11    2.99    0.38
  -1  -7  11    2.66    0.54
  -1  -7  11    2.97    0.65
  -1  -7  11    2.40    0.58
   0   7 -11    2.51    0.46
   0   7 -11    3.13    0.59
   0   7 -11    1.82    0.49
   0  -7  11    2.47    0.54
   0  -7  11    2.38    0.62
   0  -7  11    2.39    0.61
   0  -7  11    1.00    0.62
  -1   7 -11   43.63    1.79
  -1   7 -11   46.76    1.62
  -1   7 -11   45.56    1.72
   1  -7  11   48.94    1.95
   1  -7  11   46.13    1.93
   1  -7  11   41.98    1.90
   1  -7  11   43.87    1.74
  -2   7 -11    4.58    0.77
  -2   7 -11    4.19    0.78
  -2   7 -11    6.52    0.89
   2  -7  11    4.65    0.76
   2  -7  11    6.27    0.82
   2  -7  11    4.88    0.95
   2  -7  11    4.60    1.06
  -3   7 -11    3.18    0.85
  -3   7 -11    0.91    0.87
   3  -7  11    2.39    0.78
   3  -7  11    2.21    0.79
  -4   7 -11   10.36    1.34
   4  -7  11    9.28    1.25
  -4  -6  11    4.65    1.05
  -4  -6  11    4.31    0.88
  -3  -6  11    4.00    0.62
  -3  -6  11    4.39    0.75
  -3  -6  11    4.66    0.55
   2   6 -11    1.95    0.61
  -2  -6  11    1.91    0.48
  -2  -6  11    1.93    0.47
   1   6 -11    3.46    0.39
   1   6 -11    2.87    0.37
   1   6 -11    1.65    0.49
  -1  -6  11    3.03    0.53
  -1  -6  11    3.13    0.53
  -1  -6  11    4.22    0.58
  -1  -6  11    4.23    0.60
   0   6 -11   42.59    1.44
   0   6 -11   39.96    1.60
   0   6 -11   44.02    1.31
   0  -6  11   42.23    1.59
   0  -6  11   41.59    1.50
   0  -6  11   42.02    1.52
   0  -6  11   42.49    1.61
  -1   6 -11  241.87    5.10
  -1   6 -11  246.49    4.96
  -1   6 -11  239.35    5.16
   1  -6  11  242.17    5.29
   1  -6  11  242.51    5.14
   1  -6  11  238.40    5.24
   1  -6  11  244.77    5.12
  -2   6 -11   68.33    2.26
  -2   6 -11   67.46    2.23
  -2   6 -11   68.97    2.14
   2  -6  11   69.88    2.23
   2  -6  11   68.28    2.37
   2  -6  11   63.99    2.20
   2  -6  11   69.00    2.50
  -3   6 -11   24.93    1.63
  -3   6 -11   25.15    1.57
   3  -6  11   26.97    1.54
   3  -6  11   25.34    1.53
  -4   6 -11   -0.93    0.88
   4  -6  11    2.26    1.02
  -4  -5  11    2.56    0.97
  -4  -5  11    2.21    0.67
  -3  -5  11   21.18    1.17
  -3  -5  11   21.50    0.94
  -3  -5  11   22.19    0.93
   2   5 -11   53.85    1.89
  -2  -5  11   54.32    1.51
  -2  -5  11   52.89    1.73
  -2  -5  11   52.49    1.52
   1   5 -11  162.25    3.12
   1   5 -11  158.66    3.71
   1   5 -11  158.16    2.98
  -1  -5  11  163.62    3.46
  -1  -5  11  158.75    3.45
  -1  -5  11  159.56    3.60
   0   5 -11   19.40    0.94
   0   5 -11   17.58    1.03
   0   5 -11   18.38    0.83
   0  -5  11   18.07    0.95
   0  -5  11   18.69    1.02
   0  -5  11   18.06    0.96
   0  -5  11   18.62    1.08
  -1   5 -11   16.50    0.91
  -1   5 -11   15.42    1.01
  -1   5 -11   16.05    1.03
   1  -5  11   16.99    0.97
   1  -5  11   17.68    1.00
   1  -5  11   15.98    1.12
   1  -5  11   17.03    1.11
  -2   5 -11    9.79    0.92
  -2   5 -11   10.60    1.02
  -2   5 -11   10.43    1.09
   2  -5  11    9.20    1.17
   2  -5  11    9.46    1.22
   2  -5  11    9.78    0.90
   2  -5  11    9.09    1.13
  -3   5 -11   18.41    1.39
  -3   5 -11   18.78    1.34
   3  -5  11   15.96    1.72
   3  -5  11   18.88    1.36
   3  -5  11   19.07    1.59
   3  -5  11   18.83    1.32
  -4   5 -11   60.78    2.46
   4  -5  11   60.76    2.42
  -5  -4  11    5.08    1.49
  -4  -4  11   10.48    1.35
  -4  -4  11    7.96    0.98
  -3  -4  11   25.86    0.88
  -3  -4  11   25.26    1.17
  -3  -4  11   25.04    0.96
   2   4 -11   78.01    2.24
  -2  -4  11   78.19    1.90
  -2  -4  11   77.73    2.11
  -2  -4  11   79.04    1.86
   1   4 -11   20.12    1.05
   1   4 -11   22.21    0.78
   1   4 -11   20.31    0.64
  -1  -4  11   18.08    0.88
  -1  -4  11   18.24    0.92
   0   4 -11   47.70    1.60
   0   4 -11   49.53    1.34
   0  -4  11   50.56    1.55
   0  -4  11   46.61    1.53
   0  -4  11   49.08    1.57
   0  -4  11   50.80    1.58
  -1   4 -11    5.62    0.75
  -1   4 -11    6.07    0.76
  -1   4 -11    5.85    0.63
   1  -4  11    4.64    0.63
   1  -4  11    5.16    0.70
   1  -4  11    5.42    0.65
   1  -4  11    6.47    0.70
  -2   4 -11   61.27    1.94
  -2   4 -11   60.30    2.02
  -2   4 -11   60.89    2.00
   2  -4  11   63.65    2.03
   2  -4  11   62.60    2.17
   2  -4  11   60.36    2.07
   2  -4  11   63.38    1.98
  -3   4 -11    0.26    0.65
  -3   4 -11   -0.50    0.79
  -3   4 -11    1.15    0.57
   3  -4  11    0.34    0.58
   3  -4  11    1.57    0.79
   3  -4  11    1.60    0.79
  -4   4 -11    1.62    0.83
   4  -4  11    0.92    1.17
   4  -4  11    0.63    0.83
  -5  -3  11    1.69    1.40
  -4  -3  11    2.84    0.57
  -4  -3  11    3.24    0.97
  -3  -3  11   19.36    0.87
  -3  -3  11   20.51    0.75
  -3  -3  11   20.43    0.99
   2   3 -11  151.56    3.38
  -2  -3  11  147.37    2.95
  -2  -3  11  144.06    3.23
  -2  -3  11  148.68    3.08
   1   3 -11    1.15    0.39
   1   3 -11    0.80    0.29
   1   3 -11    0.85    0.20
  -1  -3  11    1.01    0.30
  -1  -3  11    0.96    0.32
  -1  -3  11    0.80    0.31
   0   3 -11    7.63    0.53
   0   3 -11    7.71    0.78
   0   3 -11    8.43    0.70
   0  -3  11    8.85    0.73
   0  -3  11    7.93    0.67
   0  -3  11    8.37    0.66
  -1   3 -11   29.43    1.23
  -1   3 -11   31.42    1.11
  -1   3 -11   31.84    1.29
   1  -3  11   30.37    1.23
   1  -3  11   30.35    1.29
   1  -3  11   32.18    1.28
   1  -3  11   28.89    1.25
  -2   3 -11   -0.19    0.44
  -2   3 -11    0.07    0.38
  -2   3 -11    0.95    0.53
   2  -3  11   -0.11    0.52
   2  -3  11   -0.34    0.43
   2  -3  11    0.18    0.52
   2  -3  11    0.80    0.46
  -3   3 -11    3.30    0.69
  -3   3 -11    1.60    0.55
  -3   3 -11    1.65    0.77
   3  -3  11    1.49    0.60
   3  -3  11    1.30    0.77
   3  -3  11    3.53    0.80
  -4   3 -11    9.82    1.11
   4  -3  11    8.05    1.19
   4  -3  11    7.92    1.05
  -5  -2  11   -1.38    1.27
  -4  -2  11    4.39    0.60
  -4  -2  11    4.90    0.99
  -4  -2  11    3.83    0.57
  -3  -2  11    4.66    0.75
  -3  -2  11    5.02    0.61
  -3  -2  11    3.94    0.48
  -3  -2  11    5.98    0.67
   2   2 -11    0.71    0.40
  -2  -2  11    0.33    0.28
  -2  -2  11   -0.21    0.25
  -2  -2  11   -0.55    0.29
   1   2 -11   44.88    1.11
   1   2 -11   39.74    1.56
   1   2 -11   46.40    1.25
  -1  -2  11   45.29    1.29
  -1  -2  11   44.96    1.36
  -1  -2  11   46.13    1.39
   0   2 -11  144.54    2.90
   0   2 -11  145.09    3.18
   0  -2  11  140.54    3.07
   0  -2  11  139.74    3.18
   0  -2  11  139.37    3.15
  -1   2 -11  132.73    3.12
  -1   2 -11  132.64    2.91
  -1   2 -11  131.57    3.08
   1  -2  11  135.64    3.05
   1  -2  11  135.02    3.20
   1  -2  11  135.08    3.14
   1  -2  11  136.34    3.12
  -2   2 -11   15.82    1.11
  -2   2 -11   17.34    1.06
  -2   2 -11   16.14    0.91
   2  -2  11   17.93    1.15
   2  -2  11   17.30    1.14
   2  -2  11   18.71    1.07
  -3   2 -11    4.27    0.75
  -3   2 -11    5.23    0.89
  -3   2 -11    3.42    0.63
   3  -2  11    5.63    0.85
   3  -2  11    3.80    0.80
  -4   2 -11   -0.08    0.72
   4  -2  11    0.01    1.18
   4  -2  11    0.64    1.00
  -5  -1  11    2.57    1.38
  -4  -1  11   26.37    0.93
  -4  -1  11   23.08    1.86
  -4  -1  11   25.78    1.21
  -4  -1  11   24.72    0.97
  -3  -1  11   97.67    3.12
  -3  -1  11  100.62    2.27
  -3  -1  11  104.83    2.15
   2   1 -11  240.61    4.69
  -2  -1  11  236.95    4.65
  -2  -1  11  237.29    4.44
  -2  -1  11  235.21    4.60
   1   1 -11   26.09    1.00
   1   1 -11   24.65    0.91
   1   1 -11   25.17    0.80
  -1  -1  11   24.57    0.98
  -1  -1  11   23.57    1.00
   0   1 -11    1.54    0.29
   0   1 -11    1.82    0.42
   0   1 -11    1.74    0.41
   0  -1  11    1.99    0.41
   0  -1  11    1.57    0.37
   0  -1  11    1.19    0.35
  -1   1 -11   33.71    1.28
  -1   1 -11   31.96    1.11
  -1   1 -11   30.83    1.26
   1  -1  11   33.34    1.20
   1  -1  11   34.36    1.30
   1  -1  11   31.09    1.26
   1  -1  11   30.93    1.32
  -2   1 -11    0.44    0.50
  -2   1 -11    0.18    0.34
  -2   1 -11    0.29    0.42
   2  -1  11    1.01    0.51
   2  -1  11   -0.32    0.42
   2  -1  11    0.82    0.46
  -3   1 -11    0.15    0.63
  -3   1 -11    2.03    0.76
  -3   1 -11   -0.29    0.46
   3  -1  11    0.77    0.55
   3  -1  11    1.24    0.70
   3  -1  11    0.77    0.66
  -4   1 -11    1.15    0.74
   4  -1  11   -0.08    0.94
   4  -1  11   -1.95    1.10
   4  -1  11    0.69    0.95
  -5   0  11    0.39    0.88
  -5   0  11    0.51    1.42
  -4   0  11   26.86    1.34
  -4   0  11   26.26    1.05
  -4   0  11   26.78    1.99
   3   0 -11   23.34    0.94
  -3   0  11   23.83    1.10
  -3   0  11   20.95    0.84
  -3   0  11   20.64    1.65
   2   0 -11    2.01    0.39
  -2   0  11    1.76    0.35
   1   0 -11    0.94    0.25
   1   0 -11    1.62    0.34
   1   0 -11    0.77    0.31
  -1   0  11    0.58    0.28
  -1   0  11    0.67    0.30
  -1   0  11    1.57    0.38
   0   0 -11    6.52    0.66
   0   0 -11    6.24    0.62
   0   0 -11    6.79    0.51
   0   0  11    5.37    0.63
   0   0  11    5.34    0.59
   0   0  11    5.98    0.64
  -1   0 -11   41.17    1.47
  -1   0 -11   41.83    1.26
  -1   0 -11   37.57    1.40
   1   0  11   40.03    1.39
   1   0  11   41.73    1.31
   1   0  11   39.19    1.43
  -2   0 -11   82.09    2.08
  -2   0 -11   75.80    2.29
  -2   0 -11   76.72    2.30
   2   0  11   78.06    2.25
   2   0  11   75.12    2.21
   2   0  11   83.64    2.23
  -3   0 -11    0.42    0.75
  -3   0 -11   -1.02    0.65
  -3   0 -11   -0.79    0.45
   3   0  11   -0.55    0.53
   3   0  11    1.07    0.67
   3   0  11    1.53    0.69
  -4   0 -11    3.28    0.79
   4   0  11    4.09    1.06
   4   0  11    3.33    1.14
   4   0  11    3.41    1.01
  -5   1  11    0.44    0.94
  -5   1  11   -1.84    1.26
  -4   1  11    2.03    0.51
  -4   1  11    2.00    1.04
  -4   1  11    2.19    0.73
   3  -1 -11    5.62    0.55
  -3   1  11    4.21    0.66
  -3   1  11    5.12    0.63
  -3   1  11    2.87    0.70
   2  -1 -11   99.13    2.16
   2  -1 -11   97.05    2.12
   2  -1 -11  100.67    2.23
  -2   1  11   99.89    2.84
  -2   1  11  100.14    2.22
  -2   1  11  100.22    2.50
   1  -1 -11    0.64    0.28
   1  -1 -11    0.97    0.37
   1  -1 -11    1.23    0.34
  -1   1  11    0.61    0.37
  -1   1  11    0.27    0.29
   0  -1 -11   17.96    0.79
   0  -1 -11   19.60    0.97
   0  -1 -11   16.99    0.89
   0   1  11   19.11    0.88
  -1  -1 -11    6.31    0.79
  -1  -1 -11    6.51    0.58
  -1  -1 -11    7.73    0.79
   1   1  11    7.38    0.74
  -2  -1 -11    4.05    0.77
  -2  -1 -11    4.60    0.71
  -2  -1 -11    3.95    0.67
   2   1  11    3.44    0.62
   2   1  11    3.81    0.58
   2   1  11    4.30    0.66
  -3  -1 -11   10.37    1.15
  -3  -1 -11   10.92    1.01
   3   1  11   10.59    1.19
   3   1  11   10.69    1.15
   3   1  11   11.06    1.24
  -4  -1 -11    1.64    0.74
   4   1  11    1.63    0.90
  -5   2  11   -0.68    1.43
  -5   2  11    4.59    1.17
  -4   2  11    9.79    1.41
  -4   2  11   13.02    1.02
  -4   2  11   13.03    1.36
  -3   2  11    1.42    0.79
  -3   2  11    0.54    0.38
  -3   2  11    0.41    0.53
   2  -2 -11    6.66    0.64
   2  -2 -11    6.09    0.58
   2  -2 -11    5.97    0.55
  -2   2  11    6.94    0.96
  -2   2  11    6.05    0.63
  -2   2  11    6.63    0.85
   1  -2 -11    0.52    0.36
   1  -2 -11    1.06    0.32
   1  -2 -11    0.86    0.34
  -1   2  11    1.02    0.43
  -1   2  11    0.76    0.31
   0  -2 -11   22.77    1.09
   0  -2 -11   23.56    1.06
   0  -2 -11   24.85    0.95
   0   2  11   24.12    1.01
   0   2  11   24.52    1.17
  -1  -2 -11    2.07    0.38
  -1  -2 -11    2.09    0.57
  -1  -2 -11    1.97    0.52
   1   2  11    2.03    0.52
   1   2  11    1.85    0.47
  -2  -2 -11   -0.67    0.53
  -2  -2 -11    0.07    0.36
  -2  -2 -11    0.45    0.57
   2   2  11    0.94    0.46
   2   2  11   -0.49    0.47
   2   2  11   -0.85    0.47
  -3  -2 -11   -0.75    0.48
   3   2  11   -0.64    0.62
   3   2  11    0.55    0.68
   3   2  11    0.64    0.72
  -4  -2 -11    0.62    0.71
   4   2  11    0.96    0.99
  -5   3  11   -0.51    1.40
  -5   3  11    0.08    1.19
  -4   3  11   18.13    1.20
  -4   3  11   20.51    2.11
  -4   3  11   14.17    2.09
  -3   3  11    3.02    0.72
  -3   3  11    3.90    0.89
  -3   3  11    3.19    0.54
   2  -3 -11   17.64    0.78
   2  -3 -11   18.01    0.96
   2  -3 -11   16.08    0.89
  -2   3  11   17.09    1.16
  -2   3  11   16.30    1.31
  -2   3  11   18.90    0.91
   1  -3 -11   12.28    0.90
   1  -3 -11   13.00    0.78
   1  -3 -11   13.78    0.79
  -1   3  11   13.21    1.00
  -1   3  11   11.97    0.75
  -1   3  11   13.71    1.08
   0  -3 -11    1.48    0.51
   0  -3 -11    1.91    0.48
   0  -3 -11    1.52    0.36
   0   3  11    0.88    0.39
   0   3  11    1.59    0.49
  -1  -3 -11   24.00    1.27
  -1  -3 -11   25.29    1.30
  -1  -3 -11   24.36    1.04
   1   3  11   24.53    1.12
   1   3  11   25.50    1.35
  -2  -3 -11    5.97    0.95
  -2  -3 -11    5.99    0.84
  -2  -3 -11    5.20    0.61
   2   3  11    4.55    0.69
   2   3  11    5.85    0.77
   2   3  11    5.82    0.78
  -3  -3 -11    1.42    0.58
   3   3  11    1.38    0.69
   3   3  11    1.80    0.77
  -4  -3 -11    2.63    0.85
  -4   4  11    0.53    0.74
  -4   4  11   -0.59    0.98
  -4   4  11    0.34    1.24
   3  -4 -11    6.61    0.79
   3  -4 -11    8.44    0.89
  -3   4  11    9.36    1.22
  -3   4  11   10.09    0.94
  -3   4  11    9.54    1.33
   2  -4 -11    0.12    0.41
   2  -4 -11   -0.08    0.33
   2  -4 -11    1.06    0.51
  -2   4  11    0.45    0.41
  -2   4  11   -1.21    0.52
   1  -4 -11    3.83    0.65
   1  -4 -11    3.82    0.56
   1  -4 -11    5.54    0.68
  -1   4  11    3.81    0.52
  -1   4  11    4.06    0.72
  -1   4  11    3.18    0.64
   0  -4 -11    8.18    0.87
   0  -4 -11    6.38    0.75
   0  -4 -11    6.83    0.69
   0   4  11    7.17    0.74
   0   4  11    6.57    0.77
  -1  -4 -11   13.90    1.18
  -1  -4 -11   11.55    1.10
  -1  -4 -11   11.17    0.81
   1   4  11   12.10    0.94
  -2  -4 -11   -0.13    0.41
  -2  -4 -11   -0.58    0.71
  -2  -4 -11    0.57    1.40
   2   4  11   -0.61    0.61
   2   4  11    0.23    0.57
   2   4  11    0.34    0.45
  -3  -4 -11    7.41    0.85
   3   4  11    6.91    0.99
   3   4  11    9.55    1.12
  -4   5  11   -0.10    1.27
  -4   5  11    1.31    1.15
   3  -5 -11    5.21    0.70
   3  -5 -11    5.39    0.77
  -3   5  11    3.29    0.94
  -3   5  11    4.64    0.71
  -3   5  11    2.77    1.16
   2  -5 -11   56.18    1.91
   2  -5 -11   60.00    1.87
   2  -5 -11   57.36    1.54
  -2   5  11   58.35    1.80
  -2   5  11   60.51    2.23
  -2   5  11   56.99    2.39
   1  -5 -11   12.98    0.96
   1  -5 -11   16.20    0.97
   1  -5 -11   12.15    1.11
  -1   5  11   13.90    1.22
  -1   5  11   14.42    1.25
  -1   5  11   15.06    0.93
   0  -5 -11   31.37    1.32
   0  -5 -11   33.11    1.55
   0  -5 -11   32.09    1.49
   0   5  11   31.78    1.28
   0   5  11   32.86    1.64
   0   5  11   32.67    1.53
  -1  -5 -11    3.29    0.80
  -1  -5 -11    1.79    0.72
  -1  -5 -11    2.16    0.48
   1   5  11    2.75    0.62
   1   5  11    1.68    0.57
   1   5  11    2.08    0.71
  -2  -5 -11    0.15    0.49
   2   5  11    0.34    0.53
   2   5  11   -0.84    0.70
   2   5  11    0.90    0.48
   2   5  11    0.07    0.66
  -3  -5 -11    2.15    0.71
   3   5  11    2.23    1.02
   3   5  11    1.55    0.91
  -4   6  11   11.56    1.82
  -4   6  11   13.64    1.61
   3  -6 -11   14.32    1.38
   3  -6 -11   10.07    1.17
  -3   6  11   16.97    2.07
  -3   6  11   10.70    1.35
   2  -6 -11    9.02    1.21
   2  -6 -11    8.18    0.99
   2  -6 -11    9.23    0.82
  -2   6  11    9.85    1.26
  -2   6  11    8.69    1.11
   1  -6 -11   20.32    1.21
   1  -6 -11   18.91    1.36
   1  -6 -11   20.28    1.22
  -1   6  11   21.88    1.53
  -1   6  11   19.00    1.10
  -1   6  11   22.74    1.57
   0  -6 -11    5.23    0.87
   0  -6 -11    4.79    0.84
   0  -6 -11    5.81    0.74
   0   6  11    5.28    0.86
   0   6  11    5.13    0.69
   0   6  11    6.33    0.89
  -1  -6 -11    1.83    0.90
  -1  -6 -11    1.03    0.54
   1   6  11    2.13    0.77
   1   6  11    1.57    0.63
   1   6  11    1.06    0.63
  -2  -6 -11   42.70    1.72
   2   6  11   40.69    1.83
   2   6  11   44.76    2.14
  -3  -6 -11    1.18    0.75
   3   6  11    1.71    1.21
  -4   7  11    9.11    2.06
   3  -7 -11    6.76    0.96
   3  -7 -11    8.40    1.18
  -3   7  11    6.15    1.41
  -3   7  11   10.99    1.43
   2  -7 -11   -0.15    0.99
   2  -7 -11    0.09    0.63
  -2   7  11    1.53    0.99
  -2   7  11   -1.74    0.84
   1  -7 -11   39.68    1.74
   1  -7 -11   41.90    1.73
  -1   7  11   41.13    2.09
   0  -7 -11   11.22    1.44
   0  -7 -11    9.57    1.10
   0   7  11    8.80    1.07
   0   7  11    9.14    1.23
  -1  -7 -11    3.37    0.70
   1   7  11    3.01    0.77
   1   7  11    3.39    0.99
  -2  -7 -11    0.57    0.73
   2   7  11    1.70    1.08
   3  -8 -11    3.49    1.09
  -3   8  11    2.27    1.31
  -3   8  11    2.18    1.49
   2  -8 -11    1.72    0.83
  -2   8  11    4.10    1.27
  -2   8  11    1.92    1.09
   1  -8 -11    0.24    0.91
   1  -8 -11    1.64    0.74
  -1   8  11   -0.79    0.95
  -1   8  11    0.28    0.97
   0  -8 -11   -0.33    0.64
   0   8  11   -1.14    0.91
   0   8  11    0.70    0.89
  -1  -8 -11  103.10    3.09
   1   8  11  107.83    2.80
   1   8  11  106.55    3.53
  -2  -8 -11   12.37    1.48
   2   8  11   13.09    1.62
   2  -9 -11    0.72    0.98
   2  -9 -11    1.77    0.88
  -2   9  11    0.80    1.36
  -2   9  11    1.17    1.30
   1  -9 -11    5.82    1.28
   1  -9 -11    2.25    0.91
  -1   9  11    3.30    1.26
  -1   9  11    5.05    1.30
   0  -9 -11   -0.25    0.79
   0   9  11    0.46    1.08
   0   9  11    1.14    1.18
  -1  -9 -11   21.41    1.71
   1   9  11   17.57    2.28
   1 -10 -11    5.71    1.24
  -1  10  11    7.31    1.66
  -1  10  11    7.76    1.95
  -1 -12  12    7.93    1.31
  -1 -12  12    5.22    1.34
   0  12 -12   26.71    1.80
   0 -12  12   22.95    1.87
   0 -12  12   26.16    2.05
  -1  12 -12   59.78    2.64
   1 -12  12   56.14    2.45
   1 -12  12   53.33    2.73
  -2 -11  12    0.64    0.99
  -2 -11  12    2.75    1.12
  -1 -11  12    9.53    1.23
  -1 -11  12    9.95    1.23
   0  11 -12    0.02    0.76
   0  11 -12    1.21    0.79
   0 -11  12    0.16    0.90
   0 -11  12    0.88    0.83
  -1  11 -12   25.28    1.83
   1 -11  12   26.01    1.68
   1 -11  12   24.17    1.92
  -2  11 -12   17.37    1.64
   2 -11  12   18.54    1.76
   2 -11  12   22.31    1.98
  -3 -10  12    0.36    0.95
  -2 -10  12   14.24    1.50
  -2 -10  12   15.89    1.82
  -2 -10  12   18.27    1.60
  -2 -10  12   14.52    1.60
  -1 -10  12    0.95    0.79
  -1 -10  12    1.98    1.02
  -1 -10  12    1.64    0.77
   0  10 -12    1.68    0.64
   0  10 -12    1.32    0.71
   0 -10  12    1.24    0.81
   0 -10  12    1.75    0.75
  -1  10 -12    4.96    0.92
   1 -10  12    2.47    0.76
   1 -10  12    4.00    0.91
  -2  10 -12    0.04    0.93
   2 -10  12    0.25    0.86
   2 -10  12   -0.01    0.80
  -3  10 -12    4.23    1.41
   3 -10  12    0.27    1.06
   3 -10  12    3.31    1.23
  -3  -9  12    0.81    0.93
  -3  -9  12    0.92    0.85
  -3  -9  12    2.31    0.90
  -2  -9  12    1.77    1.21
  -2  -9  12    1.10    0.72
  -2  -9  12   -0.20    0.81
  -2  -9  12   -0.57    0.83
  -1  -9  12    1.94    0.81
  -1  -9  12    3.37    0.77
  -1  -9  12    3.91    0.80
  -1  -9  12    3.37    0.89
   0   9 -12   -0.01    0.50
   0   9 -12   -1.46    0.56
   0  -9  12    1.38    0.88
   0  -9  12   -0.15    0.60
   0  -9  12   -0.27    0.55
   0  -9  12   -0.01    0.83
  -1   9 -12   -1.09    0.73
  -1   9 -12    0.65    0.64
   1  -9  12    0.30    0.54
   1  -9  12    0.49    0.70
  -2   9 -12   28.57    1.80
   2  -9  12   29.32    1.78
   2  -9  12   32.02    1.71
  -3   9 -12   -0.62    1.06
   3  -9  12    1.23    0.90
   3  -9  12    0.10    0.97
  -3  -8  12    4.71    0.92
  -3  -8  12    2.86    0.81
  -3  -8  12    4.32    0.92
  -3  -8  12    3.15    0.73
  -2  -8  12    0.85    0.74
  -2  -8  12   -0.26    0.61
  -2  -8  12    0.41    0.56
  -2  -8  12   -0.16    0.57
   1   8 -12    4.51    0.86
  -1  -8  12    4.74    0.83
  -1  -8  12    3.68    0.68
  -1  -8  12    4.06    0.75
  -1  -8  12    5.04    0.79
   0   8 -12    3.74    0.81
   0   8 -12    4.02    0.57
   0   8 -12    2.47    0.61
   0  -8  12    3.12    0.83
   0  -8  12    3.76    0.82
   0  -8  12    2.77    0.60
   0  -8  12    4.23    0.72
  -1   8 -12    9.23    1.04
  -1   8 -12    8.44    1.03
  -1   8 -12   11.08    1.20
   1  -8  12    8.60    1.15
   1  -8  12    8.22    0.99
   1  -8  12    6.55    1.03
   1  -8  12    8.58    1.02
  -2   8 -12    0.73    0.74
   2  -8  12    0.84    0.69
   2  -8  12    0.65    0.61
  -3   8 -12   21.64    1.78
   3  -8  12   14.58    1.55
   3  -8  12   19.28    1.73
  -4  -7  12    2.50    1.16
  -4  -7  12    2.48    0.94
  -3  -7  12    0.33    0.63
  -3  -7  12    0.18    0.60
  -3  -7  12    1.90    0.72
  -2  -7  12    7.12    0.82
  -2  -7  12    6.09    0.72
  -2  -7  12    6.89    0.86
   1   7 -12   58.92    1.34
   1   7 -12   59.98    1.45
   1   7 -12   56.15    2.14
  -1  -7  12   56.99    1.93
  -1  -7  12   59.36    1.98
  -1  -7  12   57.67    1.85
  -1  -7  12   56.62    1.97
   0   7 -12    2.75    0.48
   0   7 -12    2.73    0.57
   0   7 -12    0.57    0.61
   0  -7  12    2.62    0.58
   0  -7  12    1.84    0.56
   0  -7  12    1.27    0.65
   0  -7  12    1.86    0.68
  -1   7 -12   52.51    2.38
  -1   7 -12   55.12    2.05
  -1   7 -12   56.09    1.95
   1  -7  12   54.49    1.95
   1  -7  12   54.23    2.17
   1  -7  12   51.81    2.13
   1  -7  12   53.62    1.91
  -2   7 -12   11.26    1.18
  -2   7 -12   13.19    1.41
  -2   7 -12   13.56    1.71
   2  -7  12   12.09    1.14
   2  -7  12   12.43    1.20
  -3   7 -12    2.56    0.91
   3  -7  12    3.03    0.90
   3  -7  12    1.90    0.85
  -4   7 -12    0.13    1.31
   4  -7  12   -0.36    1.05
  -4  -6  12    1.95    0.81
  -4  -6  12    3.05    1.11
  -3  -6  12   -0.09    0.54
  -3  -6  12    0.09    0.51
  -3  -6  12    0.78    0.62
   2   6 -12   84.55    2.67
  -2  -6  12   91.02    2.29
  -2  -6  12   89.34    2.32
   1   6 -12   -0.35    0.31
   1   6 -12   -0.06    0.22
   1   6 -12    0.11    0.47
  -1  -6  12   -0.16    0.44
  -1  -6  12    0.07    0.34
  -1  -6  12   -0.40    0.39
  -1  -6  12   -0.08    0.52
   0   6 -12    0.67    0.54
   0   6 -12   -0.24    0.46
   0   6 -12    1.02    0.37
   0  -6  12    1.10    0.40
   0  -6  12    0.95    0.57
   0  -6  12    1.04    0.50
   0  -6  12    1.13    0.44
  -1   6 -12    9.13    0.88
  -1   6 -12    8.15    1.03
  -1   6 -12    7.73    0.98
   1  -6  12    9.31    1.10
   1  -6  12   10.53    1.18
   1  -6  12   10.87    1.10
   1  -6  12    7.82    0.98
  -2   6 -12  114.77    3.22
  -2   6 -12  118.99    3.22
  -2   6 -12  121.45    3.08
   2  -6  12  121.97    3.21
   2  -6  12  117.67    3.16
   2  -6  12  115.11    3.46
   2  -6  12  115.11    3.36
  -3   6 -12   64.86    2.35
   3  -6  12   66.42    2.40
   3  -6  12   64.40    2.44
  -4   6 -12    2.94    1.03
   4  -6  12   -0.63    1.02
  -4  -5  12    0.73    0.68
  -4  -5  12    0.85    0.97
  -3  -5  12   33.01    1.23
  -3  -5  12   33.30    1.21
  -3  -5  12   34.22    1.47
   2   5 -12   38.76    1.64
  -2  -5  12   39.18    1.32
  -2  -5  12   36.13    1.45
  -2  -5  12   36.10    1.37
   1   5 -12    7.98    0.46
   1   5 -12    7.23    0.86
   1   5 -12    9.47    0.62
  -1  -5  12    8.11    0.84
  -1  -5  12    7.39    0.72
  -1  -5  12    7.53    0.75
   0   5 -12    3.64    0.46
   0   5 -12    4.76    0.60
   0   5 -12    3.33    0.60
   0  -5  12    5.61    0.65
   0  -5  12    4.46    0.63
   0  -5  12    4.27    0.58
   0  -5  12    4.85    0.68
  -1   5 -12   68.56    2.12
  -1   5 -12   71.34    1.95
  -1   5 -12   72.15    2.19
   1  -5  12   70.80    2.14
   1  -5  12   70.33    2.13
   1  -5  12   67.02    2.21
   1  -5  12   72.29    2.26
  -2   5 -12   81.01    2.51
  -2   5 -12   78.53    2.44
  -2   5 -12   80.31    2.31
   2  -5  12   79.32    2.62
   2  -5  12   79.61    2.43
   2  -5  12   85.13    2.51
   2  -5  12   76.74    2.63
  -3   5 -12    0.29    0.66
   3  -5  12    0.10    0.64
   3  -5  12    1.98    0.75
  -4   5 -12    1.28    0.98
   4  -5  12    0.07    1.02
  -4  -4  12    0.13    0.61
  -4  -4  12    1.72    0.94
  -3  -4  12   56.13    1.50
  -3  -4  12   57.05    1.59
  -3  -4  12   58.83    1.84
   2   4 -12   89.50    2.54
  -2  -4  12   92.43    2.39
  -2  -4  12   93.27    2.33
  -2  -4  12   93.10    2.23
   1   4 -12    3.30    0.40
   1   4 -12    2.31    0.30
   1   4 -12    2.84    0.56
  -1  -4  12    1.25    0.39
  -1  -4  12    1.67    0.44
  -1  -4  12    2.92    0.48
   0   4 -12    0.04    0.26
   0   4 -12    0.16    0.39
   0   4 -12    1.06    0.44
   0  -4  12   -0.55    0.39
   0  -4  12    0.09    0.35
   0  -4  12    0.01    0.35
   0  -4  12   -0.16    0.32
  -1   4 -12   -0.58    0.44
  -1   4 -12    0.34    0.42
  -1   4 -12   -0.14    0.32
   1  -4  12   -0.37    0.34
   1  -4  12   -0.57    0.42
   1  -4  12    0.27    0.40
   1  -4  12   -0.27    0.50
  -2   4 -12   13.81    1.17
  -2   4 -12   13.55    0.96
  -2   4 -12   10.73    1.08
   2  -4  12   12.58    1.25
   2  -4  12   15.45    1.09
   2  -4  12   12.84    1.28
   2  -4  12   13.64    1.07
  -3   4 -12    7.38    0.93
  -3   4 -12    5.56    0.86
   3  -4  12    6.90    1.12
   3  -4  12    7.76    0.95
   3  -4  12    5.97    1.09
  -4   4 -12    6.97    1.05
   4  -4  12    6.98    1.17
  -5  -3  12    9.04    1.77
  -4  -3  12    0.02    0.53
  -4  -3  12    0.58    0.82
  -3  -3  12   16.77    0.98
  -3  -3  12   18.93    0.81
  -3  -3  12   18.68    0.94
   2   3 -12   44.31    1.57
  -2  -3  12   43.72    1.45
  -2  -3  12   43.16    1.37
  -2  -3  12   45.04    1.30
   1   3 -12   51.41    1.26
   1   3 -12   52.55    1.67
   1   3 -12   51.04    1.41
  -1  -3  12   53.60    1.63
  -1  -3  12   52.86    1.59
  -1  -3  12   53.08    1.52
   0   3 -12    0.49    0.39
   0   3 -12    0.50    0.26
   0   3 -12    0.08    0.35
   0  -3  12    0.19    0.29
   0  -3  12    0.25    0.38
   0  -3  12    0.27    0.33
  -1   3 -12    0.47    0.33
  -1   3 -12   -0.08    0.41
  -1   3 -12    0.12    0.45
   1  -3  12    0.57    0.37
   1  -3  12   -0.31    0.45
   1  -3  12   -0.02    0.39
   1  -3  12   -0.04    0.35
  -2   3 -12    0.56    0.58
  -2   3 -12   -0.18    0.56
  -2   3 -12   -0.02    0.41
   2  -3  12    0.43    0.58
   2  -3  12   -1.02    0.57
   2  -3  12    0.32    0.56
  -3   3 -12    1.14    0.59
  -3   3 -12    2.29    0.81
   3  -3  12    0.39    0.61
   3  -3  12   -0.13    0.78
   3  -3  12    1.06    0.84
  -4   3 -12    4.05    0.91
   4  -3  12    3.52    1.00
  -5  -2  12    1.55    1.46
  -4  -2  12    0.77    0.60
  -4  -2  12    0.69    0.38
  -4  -2  12   -0.36    0.46
  -4  -2  12    0.03    0.82
   3   2 -12    1.28    0.55
  -3  -2  12    0.60    0.38
  -3  -2  12    1.24    0.36
  -3  -2  12    1.78    0.63
  -3  -2  12    1.04    0.47
   2   2 -12  118.74    2.82
  -2  -2  12  120.45    2.75
  -2  -2  12  120.37    2.71
   1   2 -12    5.71    0.44
   1   2 -12    4.97    0.67
   1   2 -12    6.20    0.58
  -1  -2  12    5.16    0.65
  -1  -2  12    5.01    0.59
  -1  -2  12    4.55    0.52
   0   2 -12   39.78    1.19
   0   2 -12   41.89    1.40
   0   2 -12   41.21    1.43
   0  -2  12   39.82    1.42
   0  -2  12   42.28    1.45
   0  -2  12   40.92    1.39
  -1   2 -12    2.44    0.54
  -1   2 -12    1.96    0.40
  -1   2 -12    2.86    0.54
   1  -2  12    2.03    0.46
   1  -2  12    2.95    0.54
   1  -2  12    1.86    0.46
   1  -2  12    2.51    0.54
  -2   2 -12   60.00    1.82
  -2   2 -12   55.65    2.00
  -2   2 -12   59.37    1.99
   2  -2  12   60.28    2.05
   2  -2  12   62.78    2.05
   2  -2  12   59.86    2.02
  -3   2 -12   12.20    1.07
  -3   2 -12   10.48    1.20
   3  -2  12   13.76    1.19
   3  -2  12   10.34    1.42
   3  -2  12   10.52    1.12
  -4   2 -12    8.59    1.08
   4  -2  12    8.40    1.32
  -5  -1  12    5.00    1.47
  -4  -1  12    1.49    0.44
  -4  -1  12    1.90    0.66
  -4  -1  12    1.54    0.48
  -4  -1  12    1.93    0.98
   3   1 -12    1.58    0.48
  -3  -1  12    1.50    0.65
  -3  -1  12    2.20    0.43
  -3  -1  12    1.93    0.67
   2   1 -12  114.42    2.68
  -2  -1  12  116.86    2.49
  -2  -1  12  112.50    2.61
  -2  -1  12  115.56    2.68
   1   1 -12    0.92    0.27
   1   1 -12    0.32    0.35
   1   1 -12    0.70    0.35
  -1  -1  12    0.28    0.31
  -1  -1  12    0.13    0.32
  -1  -1  12    0.78    0.36
   0   1 -12    6.70    0.70
   0   1 -12    6.30    0.53
   0   1 -12    7.02    0.72
   0  -1  12    5.34    0.67
   0  -1  12    5.27    0.66
   0  -1  12    5.88    0.68
  -1   1 -12    1.29    0.43
  -1   1 -12    0.80    0.45
  -1   1 -12    0.73    0.31
   1  -1  12    0.99    0.41
   1  -1  12    0.15    0.38
   1  -1  12    0.93    0.46
  -2   1 -12   41.04    1.42
  -2   1 -12   40.52    1.66
  -2   1 -12   37.89    1.59
   2  -1  12   40.31    1.58
   2  -1  12   40.24    1.64
   2  -1  12   38.68    1.60
  -3   1 -12   16.10    1.18
   3  -1  12   17.09    1.44
   3  -1  12   16.85    1.51
  -4   1 -12    3.73    0.89
   4  -1  12    3.66    1.13
   4  -1  12    1.69    0.95
   4  -1  12    1.71    1.28
  -5   0  12    2.82    1.42
  -4   0  12    8.64    1.43
  -4   0  12   12.27    1.21
  -4   0  12   10.21    0.86
   3   0 -12    2.40    0.47
  -3   0  12    1.96    0.41
  -3   0  12    1.57    0.39
  -3   0  12    1.70    0.53
  -3   0  12    1.68    0.65
   2   0 -12  306.65    5.49
   2   0 -12  308.09    5.80
   2   0 -12  303.28    5.52
  -2   0  12  300.23    5.81
  -2   0  12  308.63    5.70
   1   0 -12   85.09    1.97
   1   0 -12   87.85    2.12
   1   0 -12   87.39    2.16
  -1   0  12   84.07    2.25
  -1   0  12   85.31    2.06
  -1   0  12   84.58    2.20
   0   0 -12    5.91    0.54
   0   0 -12    6.13    0.70
   0   0 -12    5.91    0.72
   0   0  12    6.33    0.67
   0   0  12    5.91    0.72
  -1   0 -12    1.31    0.36
  -1   0 -12    0.72    0.45
  -1   0 -12    1.09    0.43
   1   0  12    1.80    0.48
   1   0  12    1.90    0.43
   1   0  12    1.44    0.47
  -2   0 -12   25.54    1.35
  -2   0 -12   26.20    1.14
  -2   0 -12   22.52    1.36
   2   0  12   23.59    1.27
   2   0  12   24.16    1.31
  -3   0 -12    1.57    0.55
   3   0  12    0.06    0.63
   3   0  12    1.43    0.78
   3   0  12    0.17    0.77
  -4   0 -12    6.41    0.98
   4   0  12    6.58    1.14
  -5   1  12   -1.07    1.07
  -5   1  12   -2.42    1.40
  -4   1  12    2.11    1.12
  -4   1  12    2.88    0.81
  -4   1  12    2.05    0.57
   3  -1 -12   -0.32    0.36
  -3   1  12    0.21    0.65
  -3   1  12    0.88    0.41
  -3   1  12    0.24    0.57
   2  -1 -12  106.18    2.41
   2  -1 -12  108.55    2.34
   2  -1 -12  104.12    2.28
  -2   1  12  105.97    2.38
  -2   1  12  104.45    2.68
   1  -1 -12   56.91    1.66
   1  -1 -12   57.88    1.64
   1  -1 -12   57.84    1.56
  -1   1  12   59.79    1.61
  -1   1  12   55.63    1.80
   0  -1 -12   -0.39    0.25
   0  -1 -12    0.71    0.41
   0  -1 -12    0.43    0.37
   0   1  12   -0.01    0.34
  -1  -1 -12    3.79    0.63
  -1  -1 -12    2.70    0.57
  -1  -1 -12    2.29    0.38
   1   1  12    2.57    0.51
   1   1  12    2.80    0.57
  -2  -1 -12   25.46    1.15
  -2  -1 -12   23.41    1.39
  -2  -1 -12   23.18    1.42
   2   1  12   24.18    1.33
   2   1  12   25.80    1.26
  -3  -1 -12    4.50    0.72
   3   1  12    2.75    0.87
   3   1  12    4.70    0.83
   3   1  12    4.30    0.88
  -4  -1 -12    1.58    0.84
   4   1  12    0.62    1.01
  -5   2  12    2.47    1.60
  -4   2  12    1.41    0.85
  -4   2  12    2.02    0.62
  -4   2  12    1.94    1.09
  -3   2  12    4.15    0.54
  -3   2  12    5.21    0.89
  -3   2  12    4.62    0.76
   2  -2 -12   54.65    1.55
   2  -2 -12   51.58    1.48
   2  -2 -12   52.98    1.47
  -2   2  12   46.88    2.50
  -2   2  12   54.17    1.54
  -2   2  12   53.83    1.85
   1  -2 -12    0.61    0.37
   1  -2 -12    0.70    0.45
   1  -2 -12    1.75    0.37
  -1   2  12    0.70    0.37
  -1   2  12    1.37    0.52
   0  -2 -12   41.95    1.56
   0  -2 -12   43.14    1.50
   0  -2 -12   44.27    1.37
   0   2  12   44.08    1.65
   0   2  12   44.20    1.44
  -1  -2 -12    4.97    0.64
  -1  -2 -12    7.24    0.91
  -1  -2 -12    3.98    0.64
   1   2  12    3.43    0.61
   1   2  12    4.34    0.62
  -2  -2 -12    4.80    0.60
  -2  -2 -12    5.04    0.82
  -2  -2 -12    3.79    0.78
   2   2  12    3.89    0.72
   2   2  12    5.75    0.78
   2   2  12    5.07    0.67
  -3  -2 -12   -0.10    0.57
   3   2  12    0.37    0.79
   3   2  12    0.76    0.74
   3   2  12    0.58    0.75
  -4  -2 -12    1.16    0.80
   4   2  12    2.57    1.15
  -4   3  12    1.78    0.94
  -4   3  12    2.32    0.68
  -4   3  12    4.31    1.31
  -3   3  12    0.23    0.50
  -3   3  12    2.01    0.94
   2  -3 -12   76.64    1.86
   2  -3 -12   74.63    2.04
   2  -3 -12   77.12    2.02
  -2   3  12   77.32    2.65
  -2   3  12   73.22    1.98
  -2   3  12   75.92    2.35
   1  -3 -12    5.47    0.67
   1  -3 -12    4.21    0.55
   1  -3 -12    3.58    0.53
  -1   3  12    4.56    0.69
  -1   3  12    4.45    0.69
  -1   3  12    3.59    0.52
   0  -3 -12    2.23    0.55
   0  -3 -12    2.40    0.44
   0  -3 -12    1.79    0.54
   0   3  12    1.04    0.44
   0   3  12    2.30    0.55
  -1  -3 -12    0.44    0.38
  -1  -3 -12   -0.04    0.56
  -1  -3 -12    0.53    0.56
   1   3  12   -0.11    0.51
   1   3  12   -0.56    0.48
  -2  -3 -12    2.91    1.43
  -2  -3 -12    3.86    0.60
   2   3  12    3.80    0.74
   2   3  12    3.59    0.79
   2   3  12    3.45    0.62
  -3  -3 -12    1.62    0.64
   3   3  12    1.00    0.88
   3   3  12    3.03    0.89
   3   3  12    3.33    0.91
  -4   4  12    0.20    1.09
  -4   4  12    0.41    1.17
   3  -4 -12    4.85    0.63
  -3   4  12    5.48    0.73
  -3   4  12    4.36    1.09
  -3   4  12    5.61    1.14
   2  -4 -12    5.87    0.77
   2  -4 -12    7.28    0.82
   2  -4 -12    5.59    0.67
  -2   4  12    8.01    0.98
  -2   4  12    7.95    1.10
  -2   4  12    6.43    0.71
   1  -4 -12   19.07    1.03
   1  -4 -12   18.30    1.14
   1  -4 -12   18.16    1.02
  -1   4  12   19.22    1.35
  -1   4  12   18.16    1.30
  -1   4  12   16.15    0.98
   0  -4 -12    2.75    0.61
   0  -4 -12    3.59    0.70
   0  -4 -12    2.68    0.51
   0   4  12    2.97    0.55
   0   4  12    3.14    0.68
  -1  -4 -12    0.67    0.69
  -1  -4 -12    0.66    0.42
  -1  -4 -12    1.01    0.68
   1   4  12    0.52    0.62
   1   4  12    1.08    0.57
  -2  -4 -12   28.05    1.35
   2   4  12   27.67    1.65
   2   4  12   27.51    1.54
  -3  -4 -12    6.90    0.86
   3   4  12    7.67    1.25
   3   4  12    5.61    1.08
  -4   5  12   26.19    2.29
  -4   5  12   21.27    2.55
   3  -5 -12    1.30    0.71
   3  -5 -12    1.60    0.61
  -3   5  12    1.21    0.92
  -3   5  12    0.19    1.03
   2  -5 -12    2.39    0.51
   2  -5 -12    2.53    0.75
   2  -5 -12    4.04    0.68
  -2   5  12    1.63    0.91
  -2   5  12    3.55    0.85
  -2   5  12    1.82    0.59
   1  -5 -12   13.85    1.22
   1  -5 -12   12.80    1.03
   1  -5 -12   12.00    0.96
  -1   5  12   13.14    0.99
  -1   5  12   14.80    1.33
  -1   5  12   14.72    1.36
   0  -5 -12    4.76    0.66
   0  -5 -12    4.74    0.86
   0  -5 -12    5.57    0.80
   0   5  12    6.00    0.84
   0   5  12    4.08    0.85
   0   5  12    5.53    0.70
  -1  -5 -12    4.18    0.92
  -1  -5 -12    5.70    0.71
   1   5  12    4.40    0.94
   1   5  12    6.79    0.85
   1   5  12    4.37    0.73
  -2  -5 -12   21.92    1.31
   2   5  12   21.89    1.18
   2   5  12   23.22    1.76
   2   5  12   22.80    1.29
   2   5  12   19.78    1.50
  -3  -5 -12    1.65    0.75
   3   5  12    0.38    1.16
  -4   6  12   -1.38    1.50
  -4   6  12    1.34    1.41
   3  -6 -12   12.47    1.28
   3  -6 -12   12.72    1.54
  -3   6  12   15.09    1.91
  -3   6  12   13.83    1.71
   2  -6 -12    0.10    0.60
   2  -6 -12    0.84    0.81
  -2   6  12    0.02    0.83
  -2   6  12   -0.61    0.92
   1  -6 -12   75.04    2.54
   1  -6 -12   78.52    2.38
   1  -6 -12   81.02    2.32
  -1   6  12   77.53    2.76
  -1   6  12   78.56    2.92
   0  -6 -12    1.43    0.80
   0  -6 -12    1.96    0.58
   0   6  12    0.67    0.73
   0   6  12    0.87    0.79
  -1  -6 -12    1.54    0.59
   1   6  12    2.02    0.80
   1   6  12    2.21    0.92
  -2  -6 -12   18.75    1.37
   2   6  12   21.28    1.93
   3  -7 -12    1.18    0.89
   3  -7 -12    2.52    1.15
  -3   7  12    1.37    1.25
  -3   7  12    1.47    1.36
   2  -7 -12    1.38    0.68
   2  -7 -12    1.20    0.75
  -2   7  12    1.70    1.14
  -2   7  12    2.01    1.02
   1  -7 -12   22.29    1.52
   1  -7 -12   20.02    1.42
  -1   7  12   20.89    1.79
  -1   7  12   21.61    1.88
   0  -7 -12   49.71    1.97
   0  -7 -12   48.12    2.21
   0   7  12   47.57    2.19
   0   7  12   46.58    2.30
  -1  -7 -12    9.73    1.18
   1   7  12    8.87    1.08
   1   7  12    7.88    1.23
  -2  -7 -12    1.10    0.78
   2   7  12    1.14    1.23
   3  -8 -12    6.56    1.29
  -3   8  12    7.49    1.53
  -3   8  12    5.64    1.66
   2  -8 -12    0.21    0.86
  -2   8  12    1.39    1.32
  -2   8  12   -0.54    1.15
   1  -8 -12    0.01    0.95
   1  -8 -12    0.08    0.75
  -1   8  12   -0.49    1.11
  -1   8  12   -0.93    1.05
   0  -8 -12   16.46    1.46
   0   8  12   16.20    1.97
   0   8  12   14.37    1.93
  -1  -8 -12    3.45    0.90
   1   8  12    3.88    1.29
   2  -9 -12    3.24    1.11
  -2   9  12    2.75    2.00
  -2   9  12    1.96    1.57
   1  -9 -12    1.00    0.92
  -1   9  12    1.28    1.48
  -1   9  12    1.41    1.30
   0  -9 -12    4.99    1.00
   0   9  12    6.16    1.38
   0   9  12    7.09    1.49
   0  12 -13    1.70    0.98
   0 -12  13    1.33    1.21
   0 -12  13    1.48    1.10
  -2 -11  13   26.07    2.18
  -1 -11  13    1.78    0.90
  -1 -11  13    1.47    0.98
   0  11 -13    1.58    0.82
   0 -11  13    2.38    0.91
   0 -11  13    1.18    1.00
  -1  11 -13   13.76    1.80
   1 -11  13   18.08    1.85
   1 -11  13   17.17    1.62
  -2  11 -13    3.44    1.21
   2 -11  13    5.12    1.07
  -2 -10  13    1.64    0.87
  -2 -10  13    2.57    0.94
  -1 -10  13   42.83    2.04
  -1 -10  13   44.65    2.09
   0  10 -13    1.93    0.79
   0  10 -13    0.58    0.66
   0 -10  13    1.55    0.76
   0 -10  13   -0.63    0.79
  -1  10 -13    3.42    0.94
   1 -10  13    4.35    0.98
   1 -10  13    3.52    0.88
  -2  10 -13    3.57    1.08
   2 -10  13    3.24    0.97
   2 -10  13    4.10    1.03
  -3  -9  13    1.92    1.46
  -3  -9  13    1.47    0.86
  -2  -9  13    0.35    0.96
  -2  -9  13   -0.98    0.69
  -2  -9  13    2.25    0.94
  -2  -9  13   -0.23    0.70
  -1  -9  13   22.39    1.49
  -1  -9  13   24.60    1.82
  -1  -9  13   22.46    1.51
  -1  -9  13   21.25    1.72
   0   9 -13    0.14    0.56
   0   9 -13   -0.58    0.66
   0  -9  13    1.11    0.71
   0  -9  13    1.46    0.67
  -1   9 -13    2.48    0.77
  -1   9 -13    3.05    0.86
   1  -9  13    3.16    0.80
   1  -9  13    3.16    0.86
  -2   9 -13    4.81    1.00
   2  -9  13    4.19    0.89
   2  -9  13    3.55    1.00
  -3   9 -13    1.68    1.10
   3  -9  13    0.98    1.07
   3  -9  13   -0.99    0.93
  -3  -8  13    0.85    0.74
  -3  -8  13   -0.66    0.76
  -3  -8  13    0.64    0.86
  -2  -8  13    2.38    0.76
  -2  -8  13    3.57    0.80
  -2  -8  13    3.39    0.77
  -2  -8  13    2.39    0.88
   1   8 -13    3.00    0.45
  -1  -8  13    2.36    0.64
  -1  -8  13    1.93    0.84
  -1  -8  13    2.03    0.67
  -1  -8  13    2.11    0.74
   0   8 -13   14.41    0.94
   0   8 -13   13.85    1.17
   0  -8  13   14.45    1.23
   0  -8  13   12.32    1.25
   0  -8  13   15.47    1.16
   0  -8  13   15.09    1.56
  -1   8 -13   14.48    1.19
  -1   8 -13   10.30    1.29
   1  -8  13   14.91    1.31
   1  -8  13   11.78    1.17
  -2   8 -13   10.54    1.37
   2  -8  13    7.91    1.05
   2  -8  13    8.14    1.06
  -3   8 -13    0.43    0.93
   3  -8  13   -0.05    0.91
   3  -8  13   -1.45    0.94
  -4  -7  13   -0.59    1.25
  -4  -7  13    1.95    0.95
  -3  -7  13    3.15    0.82
  -3  -7  13    4.37    0.85
  -3  -7  13    2.37    0.70
   2   7 -13   -1.62    0.73
  -2  -7  13    0.11    0.55
  -2  -7  13    0.45    0.57
  -2  -7  13   -0.39    0.66
   1   7 -13   -0.28    0.27
   1   7 -13   -0.96    0.69
   1   7 -13    0.22    0.36
  -1  -7  13    0.39    0.65
  -1  -7  13    0.50    0.59
  -1  -7  13   -0.19    0.47
  -1  -7  13   -0.59    0.51
   0   7 -13    2.38    0.63
   0   7 -13    1.78    0.49
   0   7 -13    1.38    0.64
   0  -7  13    0.47    0.71
   0  -7  13    1.94    0.72
   0  -7  13    2.74    0.60
   0  -7  13    1.60    0.55
  -1   7 -13    2.23    0.75
  -1   7 -13    3.20    0.80
  -1   7 -13    2.83    0.61
   1  -7  13    3.12    0.72
   1  -7  13    3.09    0.88
   1  -7  13    4.49    0.85
   1  -7  13    2.84    0.64
  -2   7 -13   23.71    1.52
   2  -7  13   23.55    1.57
   2  -7  13   26.26    1.54
  -3   7 -13    6.00    1.10
   3  -7  13    3.77    0.98
   3  -7  13    6.92    1.10
  -4  -6  13    1.04    1.10
  -4  -6  13   -0.78    0.82
  -3  -6  13   -0.57    0.59
  -3  -6  13   -0.14    0.58
  -3  -6  13    1.17    0.67
   2   6 -13   22.27    1.55
  -2  -6  13   24.42    1.20
  -2  -6  13   25.04    1.32
  -2  -6  13   24.25    1.31
   1   6 -13   16.44    1.26
   1   6 -13   19.23    0.86
   1   6 -13   18.90    0.70
  -1  -6  13   18.28    1.10
  -1  -6  13   19.97    1.29
  -1  -6  13   20.00    1.20
  -1  -6  13   19.68    1.10
   0   6 -13   -0.14    0.52
   0   6 -13    0.38    0.51
   0   6 -13    1.14    0.39
   0  -6  13    1.22    0.67
   0  -6  13    0.22    0.53
   0  -6  13    1.77    0.54
   0  -6  13    1.34    0.44
  -1   6 -13    1.55    0.65
  -1   6 -13    2.29    0.68
   1  -6  13    0.29    0.64
   1  -6  13    0.57    0.50
   1  -6  13    1.30    0.74
   1  -6  13    0.32    0.47
  -2   6 -13   13.27    1.22
  -2   6 -13   11.73    1.38
   2  -6  13   15.25    1.29
   2  -6  13   14.03    1.20
  -3   6 -13    2.95    0.86
   3  -6  13    0.96    0.82
   3  -6  13    1.17    0.84
   4  -6  13    5.51    1.26
  -4  -5  13    0.88    1.04
  -4  -5  13    0.23    0.72
  -3  -5  13    5.12    0.67
  -3  -5  13    4.02    0.79
  -3  -5  13    4.85    0.67
   2   5 -13    9.19    1.12
  -2  -5  13   10.73    0.90
  -2  -5  13    9.99    0.89
  -2  -5  13   10.40    0.93
   1   5 -13   10.25    0.55
   1   5 -13    9.94    1.02
   1   5 -13   10.83    0.74
  -1  -5  13    8.66    0.84
  -1  -5  13    9.86    0.97
  -1  -5  13   10.64    0.86
   0   5 -13   10.99    0.74
   0   5 -13   11.93    1.04
   0   5 -13   11.24    0.95
   0  -5  13   11.18    1.10
   0  -5  13   12.08    0.95
   0  -5  13   12.34    1.03
   0  -5  13   11.77    0.89
  -1   5 -13   40.07    1.69
  -1   5 -13   41.63    1.66
  -1   5 -13   40.25    1.43
   1  -5  13   40.70    1.78
   1  -5  13   39.79    1.73
   1  -5  13   41.09    1.63
   1  -5  13   41.03    1.63
  -2   5 -13  157.90    4.00
  -2   5 -13  175.49    3.87
  -2   5 -13  158.40    4.05
   2  -5  13  171.88    4.05
   2  -5  13  160.07    4.15
   2  -5  13  159.82    4.25
   2  -5  13  167.74    4.10
  -3   5 -13   36.65    1.82
   3  -5  13   35.46    1.88
  -4   5 -13   21.21    1.92
   4  -5  13   20.71    1.99
  -4  -4  13    4.14    1.18
  -4  -4  13    3.24    0.72
  -3  -4  13    4.33    0.67
  -3  -4  13    4.04    0.61
   2   4 -13   21.32    1.26
  -2  -4  13   20.11    1.05
  -2  -4  13   20.72    1.03
  -2  -4  13   19.73    1.05
   1   4 -13   56.44    1.34
   1   4 -13   57.80    1.52
   1   4 -13   54.86    1.86
  -1  -4  13   56.38    1.75
  -1  -4  13   54.37    1.71
  -1  -4  13   55.85    1.79
   0   4 -13  116.95    2.78
   0   4 -13  115.78    2.52
   0   4 -13  112.57    2.92
   0  -4  13  112.21    2.83
   0  -4  13  113.00    2.86
   0  -4  13  108.71    2.78
   0  -4  13  116.03    2.90
  -1   4 -13    6.45    0.88
  -1   4 -13    7.58    0.96
  -1   4 -13    6.47    0.73
   1  -4  13    7.70    0.97
   1  -4  13    8.46    1.07
  -2   4 -13    2.10    0.56
  -2   4 -13    1.86    0.74
  -2   4 -13    3.17    0.80
   2  -4  13    2.63    0.78
   2  -4  13    4.21    0.86
   2  -4  13    3.10    0.67
   2  -4  13    2.45    0.69
  -3   4 -13   17.20    1.37
   3  -4  13   18.44    1.47
  -4   4 -13   10.45    1.21
   4  -4  13   12.01    1.39
  -4  -3  13    6.13    1.20
  -4  -3  13    7.44    0.98
  -4  -3  13    4.73    0.58
   3   3 -13    8.75    1.08
  -3  -3  13    8.66    0.88
  -3  -3  13    7.43    0.83
  -3  -3  13    6.89    0.86
   2   3 -13   39.95    1.58
  -2  -3  13   41.11    1.46
  -2  -3  13   42.48    1.43
  -2  -3  13   43.03    1.34
   1   3 -13  115.52    2.53
   1   3 -13  111.77    2.82
   1   3 -13  112.54    2.34
  -1  -3  13  116.12    2.68
  -1  -3  13  111.09    2.73
  -1  -3  13  112.39    2.78
   0   3 -13   26.16    1.22
   0   3 -13   25.23    0.96
   0   3 -13   25.42    1.17
   0  -3  13   24.45    1.20
   0  -3  13   24.60    1.16
   0  -3  13   25.09    1.18
  -1   3 -13   23.53    1.24
  -1   3 -13   22.85    1.04
  -1   3 -13   21.62    1.26
   1  -3  13   23.82    1.31
   1  -3  13   25.21    1.21
   1  -3  13   23.31    1.22
   1  -3  13   23.13    1.24
  -2   3 -13   -0.47    0.51
  -2   3 -13   -0.06    0.43
  -2   3 -13    0.51    0.65
   2  -3  13   -0.34    0.61
   2  -3  13    0.51    0.56
   2  -3  13   -0.62    0.51
   2  -3  13   -0.77    0.68
  -3   3 -13   33.24    1.58
   3  -3  13   26.39    1.94
   3  -3  13   31.44    1.69
  -4   3 -13    0.12    0.84
   4  -3  13   -0.05    1.04
  -4  -2  13    2.87    0.64
  -4  -2  13    4.74    1.21
  -4  -2  13    3.61    0.54
  -4  -2  13    2.90    0.72
   3   2 -13   12.03    1.04
  -3  -2  13   12.52    0.79
  -3  -2  13   11.98    0.89
  -3  -2  13   11.03    0.97
   2   2 -13   13.36    0.99
  -2  -2  13   14.18    0.91
  -2  -2  13   14.34    0.84
  -2  -2  13   14.35    0.86
   1   2 -13  129.43    2.66
   1   2 -13  130.24    3.07
   1   2 -13  129.04    2.83
  -1  -2  13  129.89    3.06
  -1  -2  13  131.96    2.92
  -1  -2  13  129.63    3.04
   0   2 -13   -0.05    0.42
   0   2 -13    0.02    0.43
   0   2 -13    0.30    0.28
   0  -2  13   -0.23    0.36
   0  -2  13   -0.60    0.33
   0  -2  13   -0.29    0.42
  -1   2 -13   -0.51    0.49
  -1   2 -13    0.20    0.34
  -1   2 -13   -0.60    0.42
   1  -2  13    0.73    0.45
   1  -2  13   -0.38    0.40
   1  -2  13   -0.83    0.37
   1  -2  13   -0.38    0.48
  -2   2 -13   13.60    1.27
  -2   2 -13   15.70    1.02
  -2   2 -13   16.91    1.22
   2  -2  13   15.66    1.15
   2  -2  13   15.21    1.32
   2  -2  13   15.84    1.27
  -3   2 -13    1.67    0.65
   3  -2  13    1.42    0.71
   3  -2  13   -1.22    0.87
   3  -2  13    3.21    0.95
  -4   2 -13    0.75    0.85
  -4  -1  13    3.42    0.79
  -4  -1  13    2.82    0.54
  -4  -1  13    4.65    0.61
  -4  -1  13    5.96    1.29
   3   1 -13    0.37    0.93
  -3  -1  13    0.73    0.66
  -3  -1  13    0.03    0.41
  -3  -1  13    0.76    0.44
   2   1 -13    0.47    0.44
  -2  -1  13    0.34    0.36
  -2  -1  13    0.79    0.40
  -2  -1  13    0.83    0.45
   1   1 -13    1.11    0.42
   1   1 -13   -0.14    0.36
   1   1 -13    0.26    0.29
  -1  -1  13    0.47    0.41
  -1  -1  13    0.06    0.38
  -1  -1  13    0.04    0.36
   0   1 -13   39.78    1.24
   0   1 -13   41.71    1.47
   0   1 -13   41.15    1.48
   0  -1  13   41.29    1.50
   0  -1  13   39.47    1.43
   0  -1  13   38.30    1.49
  -1   1 -13   85.09    2.42
  -1   1 -13   84.26    2.40
  -1   1 -13   88.84    2.19
   1  -1  13   85.05    2.44
   1  -1  13   88.29    2.32
   1  -1  13   87.61    2.42
  -2   1 -13   51.89    1.69
  -2   1 -13   53.36    2.00
  -2   1 -13   49.83    1.94
   2  -1  13   54.55    1.94
   2  -1  13   51.25    1.96
   2  -1  13   54.50    1.93
  -3   1 -13    4.01    0.74
   3  -1  13    3.27    0.97
   3  -1  13    3.80    0.96
  -4   1 -13   -0.92    0.80
   4  -1  13    4.45    1.17
  -4   0  13    0.79    1.05
  -4   0  13   -0.13    0.53
  -4   0  13    0.33    0.77
   3   0 -13   34.69    1.28
  -3   0  13   33.80    1.21
  -3   0  13   33.92    1.92
  -3   0  13   35.79    1.52
  -3   0  13   36.04    1.22
   2   0 -13   98.25    2.10
   2   0 -13  100.55    2.17
  -2   0  13   99.42    2.30
  -2   0  13   96.20    2.40
   1   0 -13  227.17    4.70
   1   0 -13  234.20    4.50
   1   0 -13  233.02    4.65
  -1   0  13  231.27    4.86
  -1   0  13  232.24    4.62
  -1   0  13  230.58    4.83
   0   0 -13   10.31    0.88
   0   0 -13   10.14    0.84
   0   0 -13   10.54    0.69
   0   0  13   11.05    0.88
   0   0  13   10.77    0.86
  -1   0 -13    0.54    0.34
  -1   0 -13    0.12    0.47
  -1   0 -13   -0.77    0.49
   1   0  13    1.04    0.44
   1   0  13    0.08    0.46
   1   0  13    0.77    0.51
  -2   0 -13    9.97    1.09
  -2   0 -13    7.62    0.94
  -2   0 -13    9.93    0.88
   2   0  13   10.15    1.10
   2   0  13    7.60    0.89
  -3   0 -13    0.22    0.62
   3   0  13    2.18    0.80
   3   0  13    1.44    0.88
   3   0  13   -0.53    0.84
  -4   0 -13    0.78    0.86
   4   0  13    1.50    1.11
  -4   1  13    3.15    0.64
  -4   1  13    2.07    0.92
  -4   1  13    4.90    1.27
   3  -1 -13   21.77    1.01
  -3   1  13   21.71    1.71
  -3   1  13   24.81    1.45
  -3   1  13   22.94    1.07
   2  -1 -13    9.03    0.77
   2  -1 -13   10.18    0.67
   2  -1 -13   10.31    0.78
  -2   1  13    9.43    1.00
  -2   1  13    9.13    0.76
   1  -1 -13    2.32    0.50
   1  -1 -13    2.83    0.44
   1  -1 -13    2.72    0.53
  -1   1  13    3.55    0.52
  -1   1  13    3.01    0.57
   0  -1 -13   -0.16    0.28
   0  -1 -13    0.59    0.48
   0  -1 -13    0.51    0.44
   0   1  13    0.55    0.46
   0   1  13    0.52    0.42
  -1  -1 -13    0.53    0.46
  -1  -1 -13    0.35    0.40
  -1  -1 -13    0.36    0.56
   1   1  13   -0.26    0.47
   1   1  13   -0.06    0.55
  -2  -1 -13   11.74    0.94
  -2  -1 -13   11.36    1.30
  -2  -1 -13   12.43    1.23
   2   1  13   11.88    1.10
   2   1  13   11.46    1.22
   2   1  13   12.72    1.22
  -3  -1 -13   40.97    1.71
   3   1  13   38.83    2.02
   3   1  13   40.73    1.96
   3   1  13   38.70    1.99
  -4  -1 -13    2.51    0.91
   4   1  13   -0.19    1.14
  -4   2  13    1.64    0.69
  -4   2  13    1.98    0.96
  -4   2  13    1.16    1.19
   3  -2 -13    0.74    0.42
  -3   2  13    1.67    0.52
  -3   2  13   -0.03    0.77
  -3   2  13    1.43    0.70
   2  -2 -13    7.30    0.87
   2  -2 -13    7.36    0.73
   2  -2 -13    7.31    0.74
  -2   2  13    7.43    0.78
  -2   2  13    7.38    0.87
  -2   2  13    5.91    0.90
   1  -2 -13   75.22    2.13
   1  -2 -13   75.35    1.97
   1  -2 -13   77.01    2.05
  -1   2  13   72.99    2.01
  -1   2  13   74.10    2.29
   0  -2 -13    0.03    0.47
   0  -2 -13    0.40    0.35
   0  -2 -13   -0.02    0.48
   0   2  13   -0.45    0.41
  -1  -2 -13    9.33    1.14
  -1  -2 -13    8.77    0.78
   1   2  13    8.70    1.05
   1   2  13    8.92    1.00
  -2  -2 -13   -0.26    0.42
   2   2  13    1.41    0.70
   2   2  13    0.99    0.68
   2   2  13    0.43    0.57
  -3  -2 -13    2.58    0.74
   3   2  13    4.56    1.00
   3   2  13    1.81    0.99
   3   2  13    3.59    0.96
  -4   3  13    3.37    1.15
  -4   3  13    0.81    1.30
  -4   3  13    2.71    0.90
  -3   3  13   14.91    1.48
  -3   3  13   11.38    1.05
  -3   3  13   15.81    1.81
   2  -3 -13    1.78    0.47
   2  -3 -13    0.59    0.43
   2  -3 -13    0.86    0.57
  -2   3  13    0.69    0.62
  -2   3  13    1.80    0.81
  -2   3  13    1.01    0.49
   1  -3 -13    2.94    0.53
   1  -3 -13    3.04    0.64
   1  -3 -13    4.28    0.61
  -1   3  13    3.37    0.74
  -1   3  13    3.58    0.72
  -1   3  13    2.33    0.53
   0  -3 -13    0.11    0.52
   0  -3 -13    0.42    0.59
   0  -3 -13    0.42    0.38
   0   3  13    1.16    0.50
   0   3  13   -0.42    0.53
  -1  -3 -13   19.75    1.34
  -1  -3 -13   17.47    1.03
  -1  -3 -13   15.20    1.33
   1   3  13   18.49    1.39
   1   3  13   15.91    1.22
  -2  -3 -13    1.69    0.57
   2   3  13    0.37    0.72
   2   3  13    1.16    0.77
   2   3  13    2.15    0.63
  -3  -3 -13    1.08    0.66
   3   3  13    0.10    0.91
  -4   4  13   -1.10    1.34
  -4   4  13   -0.91    1.17
   3  -4 -13   17.48    1.09
   3  -4 -13   15.04    1.39
  -3   4  13   17.23    1.99
  -3   4  13   17.42    1.69
   2  -4 -13    1.53    0.57
   2  -4 -13    1.27    0.66
   2  -4 -13    1.41    0.52
  -2   4  13    0.37    0.76
  -2   4  13   -0.04    0.79
  -2   4  13    2.53    0.57
   1  -4 -13    6.67    0.90
   1  -4 -13    7.42    0.87
  -1   4  13    6.03    0.70
  -1   4  13    7.22    0.93
   0  -4 -13   12.23    0.95
   0  -4 -13   12.60    1.26
   0  -4 -13   13.12    1.17
   0   4  13   15.21    1.14
   0   4  13   16.21    1.34
  -1  -4 -13   -0.56    0.74
  -1  -4 -13    0.37    0.47
   1   4  13    0.91    0.68
   1   4  13   -0.25    0.63
  -2  -4 -13    8.78    0.91
   2   4  13    6.87    1.07
   2   4  13    7.46    0.83
  -3  -4 -13    0.07    0.70
   3   4  13    1.33    1.23
  -4   5  13   -1.53    1.30
  -4   5  13   -0.34    1.51
   3  -5 -13    0.14    0.62
   3  -5 -13   -0.77    0.77
  -3   5  13    0.30    1.12
  -3   5  13    3.27    1.12
   2  -5 -13    3.31    0.68
   2  -5 -13    4.51    0.84
   2  -5 -13    4.12    0.62
  -2   5  13    2.11    0.90
  -2   5  13    2.74    1.00
   1  -5 -13   -0.05    0.73
   1  -5 -13   -0.64    0.59
   1  -5 -13   -0.68    0.48
  -1   5  13   -1.66    0.67
  -1   5  13   -0.02    0.73
   0  -5 -13    1.80    0.58
   0  -5 -13    1.37    0.73
   0   5  13    0.47    0.78
   0   5  13    2.33    0.78
  -1  -5 -13    1.28    0.57
   1   5  13   -0.97    0.81
   1   5  13    2.94    0.80
  -2  -5 -13    2.32    0.70
   2   5  13    5.67    1.18
   2   5  13    3.26    0.84
   3   5  13   -0.84    1.35
   3  -6 -13    0.65    1.07
  -3   6  13   -2.45    1.25
  -3   6  13    0.85    1.15
   2  -6 -13    6.52    0.79
   2  -6 -13    5.02    0.83
   2  -6 -13    4.80    1.03
  -2   6  13    5.99    1.28
  -2   6  13    6.26    1.16
   1  -6 -13   31.23    1.57
   1  -6 -13   31.23    1.57
  -1   6  13   30.25    1.95
  -1   6  13   31.60    2.01
   0  -6 -13   17.02    1.60
   0  -6 -13   17.07    1.27
   0   6  13   15.87    1.70
   0   6  13   16.71    1.60
  -1  -6 -13    8.29    0.95
   1   6  13   11.44    1.46
   1   6  13    8.40    1.26
  -2  -6 -13   -0.29    0.71
   2   6  13    3.77    1.19
   3  -7 -13   17.89    1.79
  -3   7  13   16.46    1.78
  -3   7  13   18.93    2.63
   2  -7 -13   12.09    1.48
  -2   7  13   15.11    1.98
  -2   7  13   12.18    1.68
   1  -7 -13    1.42    0.77
   1  -7 -13    2.81    0.92
  -1   7  13    2.68    1.06
  -1   7  13    0.62    1.11
   0  -7 -13   20.58    1.48
   0   7  13   21.99    1.98
   0   7  13   22.09    1.90
  -1  -7 -13    1.75    0.76
   1   7  13    0.20    0.97
   1   7  13   -1.05    1.05
   2  -8 -13    7.30    1.16
  -2   8  13    6.46    1.63
  -2   8  13    7.84    1.49
   1  -8 -13   -0.44    0.82
   1  -8 -13   -1.59    1.14
  -1   8  13   -2.75    1.14
  -1   8  13    0.55    1.33
   0  -8 -13   21.36    1.65
   0   8  13   18.16    2.19
   0   8  13   25.22    2.96
  -1  -8 -13    5.04    1.15
   1   8  13    4.03    1.43
  -1 -11  14    9.60    1.37
  -1 -11  14    8.12    1.25
   0  11 -14   13.52    1.47
   0 -11  14   15.05    1.83
   0 -11  14   12.64    1.54
  -1  11 -14   22.07    1.96
   1 -11  14   22.69    1.85
   1 -11  14   20.79    2.06
  -2 -10  14    3.51    1.11
  -2 -10  14    2.78    1.01
  -1 -10  14    4.86    1.04
  -1 -10  14    4.02    0.93
   0  10 -14    9.60    1.23
   0  10 -14   12.34    1.45
   0 -10  14   11.15    1.30
   0 -10  14    9.66    1.23
  -1  10 -14    0.92    0.87
   1 -10  14   -0.25    0.95
   1 -10  14   -0.78    0.79
  -2  10 -14   11.33    1.37
   2 -10  14    9.42    1.30
   2 -10  14    9.81    1.35
  -3  -9  14   -0.14    0.96
  -3  -9  14    1.22    1.00
  -2  -9  14    1.66    1.12
  -2  -9  14    1.22    0.81
  -2  -9  14    1.81    0.89
  -1  -9  14   10.52    1.38
  -1  -9  14   11.79    1.33
   0   9 -14    0.91    0.76
   0   9 -14   -0.46    0.56
   0  -9  14   -1.06    0.62
   0  -9  14   -0.48    0.75
  -1   9 -14    1.84    0.78
   1  -9  14    0.64    0.82
   1  -9  14    1.88    0.75
  -2   9 -14    0.98    0.96
   2  -9  14    1.28    0.89
   2  -9  14    1.09    0.93
  -3  -8  14   -0.80    0.81
  -3  -8  14   -0.90    0.80
  -2  -8  14    4.74    1.05
  -2  -8  14    3.58    0.84
   1   8 -14    0.82    0.43
  -1  -8  14    0.69    0.65
  -1  -8  14    1.76    0.90
  -1  -8  14    1.34    0.63
  -1  -8  14    1.86    0.95
   0   8 -14    4.06    0.59
   0   8 -14    4.16    0.78
   0  -8  14    2.80    0.71
   0  -8  14    2.67    0.74
   0  -8  14    4.38    1.68
  -1   8 -14   -0.36    0.62
  -1   8 -14   -0.88    0.82
   1  -8  14   -0.54    0.62
   1  -8  14    1.79    0.74
  -2   8 -14    1.52    0.84
   2  -8  14    1.34    0.86
   2  -8  14   -1.37    0.72
  -3   8 -14   23.42    1.98
   3  -8  14   19.44    1.93
   3  -8  14   24.39    2.05
  -3  -7  14    0.37    0.90
  -3  -7  14    1.14    0.76
  -3  -7  14    1.30    0.75
  -2  -7  14    5.27    0.82
  -2  -7  14    6.11    0.91
  -2  -7  14    5.69    0.95
   1   7 -14   -0.04    0.29
   1   7 -14    0.18    0.40
   1   7 -14    1.41    0.85
  -1  -7  14    0.57    0.55
  -1  -7  14   -0.54    0.71
  -1  -7  14    0.34    0.66
  -1  -7  14    1.82    0.75
   0   7 -14    9.74    0.84
   0   7 -14    4.93    0.88
   0   7 -14    6.73    0.83
   0  -7  14    7.29    1.03
   0  -7  14    6.65    0.95
   0  -7  14    6.54    0.87
   0  -7  14    7.54    0.93
  -1   7 -14    3.25    0.65
  -1   7 -14    3.14    0.83
   1  -7  14    4.31    0.78
   1  -7  14    3.39    0.80
  -2   7 -14    4.12    0.89
   2  -7  14    4.05    0.90
   2  -7  14    3.66    0.88
  -3   7 -14   -0.51    0.89
   3  -7  14    2.12    0.99
   3  -7  14   -0.90    0.94
  -4  -6  14    4.27    1.37
  -4  -6  14    5.37    1.09
  -3  -6  14    2.24    0.76
  -3  -6  14    1.24    0.77
  -3  -6  14    2.06    0.71
   2   6 -14    1.84    0.84
  -2  -6  14    0.94    0.70
  -2  -6  14    0.78    0.56
  -2  -6  14    0.69    0.57
   1   6 -14    8.67    0.99
   1   6 -14    8.45    0.57
   1   6 -14    9.09    0.76
  -1  -6  14    7.44    0.92
  -1  -6  14    8.81    1.12
  -1  -6  14   11.02    1.20
  -1  -6  14    7.69    0.94
   0   6 -14   38.01    1.77
   0   6 -14   38.70    1.33
   0   6 -14   43.55    1.63
   0  -6  14   41.43    1.67
   0  -6  14   39.31    1.85
   0  -6  14   38.13    1.62
   0  -6  14   37.43    1.73
  -1   6 -14    3.18    0.81
  -1   6 -14    1.99    0.73
  -1   6 -14    2.16    0.54
   1  -6  14    1.99    0.86
   1  -6  14    3.06    0.66
   1  -6  14    1.69    0.79
   1  -6  14    1.91    0.61
  -2   6 -14   45.09    1.87
   2  -6  14   45.83    2.02
   2  -6  14   44.77    2.00
  -3   6 -14    4.54    0.95
   3  -6  14    4.91    1.02
   3  -6  14    6.41    1.17
  -4  -5  14    6.18    0.97
  -4  -5  14    3.48    1.23
  -3  -5  14    5.90    0.79
  -3  -5  14    9.64    1.09
  -3  -5  14    7.84    0.92
   2   5 -14    0.93    0.73
  -2  -5  14   -0.08    0.56
  -2  -5  14    0.09    0.45
  -2  -5  14    0.29    0.53
   1   5 -14   58.68    1.41
   1   5 -14   55.68    2.06
   1   5 -14   60.44    1.62
  -1  -5  14   57.07    1.98
  -1  -5  14   58.91    1.94
  -1  -5  14   60.60    1.91
   0   5 -14    0.95    0.60
   0   5 -14    0.20    0.37
   0   5 -14    1.08    0.56
   0  -5  14    0.58    0.57
   0  -5  14    0.33    0.48
   0  -5  14    0.22    0.62
  -1   5 -14    1.89    0.51
  -1   5 -14    0.75    0.69
  -1   5 -14    0.86    0.64
   1  -5  14    2.74    0.67
   1  -5  14    1.55    0.78
   1  -5  14    2.04    0.73
   1  -5  14    3.17    0.63
  -2   5 -14    1.75    0.65
   2  -5  14    2.08    0.70
   2  -5  14    2.56    0.72
  -3   5 -14   83.63    2.67
   3  -5  14   84.06    2.86
  -4  -4  14    0.28    0.74
  -4  -4  14    2.31    1.12
  -4  -4  14    0.72    0.77
   3   4 -14    1.99    0.85
  -3  -4  14    2.49    0.64
  -3  -4  14    2.66    0.61
  -3  -4  14    1.50    0.58
   2   4 -14   36.69    1.63
  -2  -4  14   38.35    1.42
  -2  -4  14   37.81    1.50
  -2  -4  14   39.80    1.48
   1   4 -14   52.54    1.51
   1   4 -14   49.19    1.83
   1   4 -14   51.22    1.31
  -1  -4  14   51.80    1.74
  -1  -4  14   50.80    1.75
  -1  -4  14   50.64    1.71
   0   4 -14    2.72    0.62
   0   4 -14    3.31    0.47
   0   4 -14    3.16    0.68
   0  -4  14    2.71    0.66
   0  -4  14    3.78    0.66
   0  -4  14    3.78    0.58
  -1   4 -14    4.76    0.75
  -1   4 -14    5.90    0.85
  -1   4 -14    6.62    0.83
   1  -4  14    8.06    1.10
   1  -4  14    6.82    0.91
   1  -4  14    7.26    0.92
   1  -4  14    6.54    0.88
  -2   4 -14   38.62    1.58
   2  -4  14   36.51    1.96
   2  -4  14   38.01    1.77
   2  -4  14   39.62    1.86
  -3   4 -14   34.72    1.75
   3  -4  14   34.80    1.96
  -4  -3  14   11.04    1.14
  -4  -3  14    7.33    1.29
   3   3 -14    0.42    0.68
  -3  -3  14   -0.36    0.50
  -3  -3  14   -0.38    0.54
  -3  -3  14   -0.44    0.48
   2   3 -14   37.99    1.62
  -2  -3  14   42.13    1.51
  -2  -3  14   39.45    1.41
  -2  -3  14   41.36    1.51
   1   3 -14   67.48    1.83
   1   3 -14   67.05    1.62
   1   3 -14   67.34    2.10
  -1  -3  14   68.30    2.05
  -1  -3  14   69.94    1.98
  -1  -3  14   71.39    2.06
   0   3 -14    6.89    0.90
   0   3 -14    7.66    0.64
   0   3 -14    4.83    0.65
   0  -3  14    7.72    0.85
   0  -3  14    8.21    0.82
   0  -3  14    6.58    0.77
  -1   3 -14    1.24    0.61
  -1   3 -14    2.76    0.66
   1  -3  14    2.35    0.57
   1  -3  14    1.16    0.53
   1  -3  14    3.41    0.69
   1  -3  14    1.82    0.60
  -2   3 -14    1.53    0.86
  -2   3 -14    0.40    0.51
  -2   3 -14    0.60    0.71
   2  -3  14    1.96    0.76
   2  -3  14    0.42    0.80
   2  -3  14    1.91    0.63
  -3   3 -14    8.03    0.99
   3  -3  14   10.96    1.46
  -4   3 -14    4.60    1.16
   4  -3  14    7.28    1.35
  -4  -2  14   15.84    1.14
  -4  -2  14   13.76    1.13
  -4  -2  14   14.86    1.38
  -4  -2  14   16.22    2.00
   3   2 -14    0.82    0.64
  -3  -2  14   -0.22    0.57
  -3  -2  14    0.25    0.49
  -3  -2  14    0.73    0.50
   2   2 -14   15.95    1.11
  -2  -2  14   16.93    0.95
  -2  -2  14   15.15    1.03
  -2  -2  14   14.39    0.96
   1   2 -14   39.84    1.52
   1   2 -14   38.73    1.17
  -1  -2  14   37.66    1.48
  -1  -2  14   38.84    1.43
  -1  -2  14   39.88    1.49
   0   2 -14   27.77    1.28
   0   2 -14   26.69    1.29
   0   2 -14   27.14    1.03
   0  -2  14   27.66    1.29
   0  -2  14   26.57    1.29
   0  -2  14   26.74    1.30
  -1   2 -14    0.38    0.49
  -1   2 -14    0.28    0.59
  -1   2 -14   -0.08    0.55
   1  -2  14    0.66    0.59
   1  -2  14   -0.05    0.49
   1  -2  14    0.41    0.47
   1  -2  14    0.23    0.51
  -2   2 -14   -0.24    0.82
  -2   2 -14    1.23    0.79
  -2   2 -14    0.14    0.47
   2  -2  14    0.63    0.80
   2  -2  14   -1.04    0.54
   2  -2  14    1.22    0.69
  -3   2 -14   -0.24    0.66
   3  -2  14   -0.64    1.14
   3  -2  14    1.91    0.82
  -4   2 -14    0.27    0.96
   4  -2  14    1.93    1.23
  -4  -1  14    2.81    0.65
  -4  -1  14    2.91    0.64
  -4  -1  14    1.18    1.12
  -4  -1  14    3.20    0.89
   3   1 -14    1.69    0.64
  -3  -1  14    1.36    0.52
  -3  -1  14    2.46    0.52
  -3  -1  14    3.22    0.83
   2   1 -14    4.62    0.66
  -2  -1  14    4.16    0.62
  -2  -1  14    4.87    0.63
  -2  -1  14    5.66    0.63
   1   1 -14   80.15    2.12
   1   1 -14   79.38    1.92
   1   1 -14   82.96    2.25
  -1  -1  14   79.76    2.13
  -1  -1  14   81.32    2.30
  -1  -1  14   79.66    2.26
   0   1 -14    8.42    0.86
   0   1 -14    7.05    0.64
   0   1 -14    7.60    0.82
   0  -1  14    7.85    0.90
   0  -1  14    7.98    0.86
   0  -1  14    6.06    0.73
  -1   1 -14   31.90    1.24
  -1   1 -14   29.95    1.44
  -1   1 -14   30.11    1.48
   1  -1  14   31.61    1.52
   1  -1  14   32.31    1.41
   1  -1  14   32.07    1.47
  -2   1 -14    1.55    0.53
   2  -1  14    1.55    0.74
   2  -1  14    1.29    0.79
   2  -1  14    2.97    0.69
  -3   1 -14   27.23    1.53
   3  -1  14   24.11    1.99
  -4   0  14    1.37    0.63
  -4   0  14    2.28    1.27
  -4   0  14    2.24    0.95
   3   0 -14    0.74    0.57
  -3   0  14    3.53    0.92
  -3   0  14    1.20    0.50
  -3   0  14    1.43    0.55
  -3   0  14    2.00    0.68
   2   0 -14    4.44    0.57
   2   0 -14    4.58    0.51
   2   0 -14    4.46    0.66
  -2   0  14    4.89    0.62
  -2   0  14    4.21    0.64
   1   0 -14  130.72    3.06
   1   0 -14  134.60    3.13
   1   0 -14  132.12    2.89
  -1   0  14  135.60    3.05
  -1   0  14  130.79    3.22
  -1   0  14  135.52    3.29
   0   0 -14    0.76    0.49
   0   0 -14    0.74    0.54
   0   0 -14    1.39    0.36
   0   0  14    1.89    0.54
  -1   0 -14   11.07    0.82
  -1   0 -14    9.84    1.07
  -1   0 -14    9.95    1.13
   1   0  14   11.40    1.04
   1   0  14   10.36    1.09
   1   0  14   10.13    1.00
  -2   0 -14    1.54    0.52
   2   0  14    0.29    0.75
   2   0  14    2.67    0.74
  -3   0 -14    7.85    0.90
   3   0  14    7.66    1.13
   3   0  14    4.84    1.11
  -4   1  14    6.10    1.64
  -4   1  14    5.23    1.07
  -4   1  14    5.25    0.79
   3  -1 -14   13.28    0.94
  -3   1  14   12.31    1.31
  -3   1  14   13.36    1.01
  -3   1  14   11.41    1.55
   2  -1 -14    0.63    0.36
   2  -1 -14    0.53    0.47
   2  -1 -14    0.56    0.47
  -2   1  14    1.62    0.61
  -2   1  14    1.22    0.48
   1  -1 -14  180.58    3.75
   1  -1 -14  180.84    3.92
   1  -1 -14  175.08    3.88
  -1   1  14  182.34    3.87
  -1   1  14  175.81    4.29
   0  -1 -14   38.68    1.60
   0  -1 -14   43.32    1.60
   0  -1 -14   40.79    1.37
   0   1  14   41.14    1.52
   0   1  14   41.24    1.70
  -1  -1 -14    6.19    0.85
  -1  -1 -14    6.29    0.84
  -1  -1 -14    6.95    0.76
   1   1  14    5.42    0.73
   1   1  14    5.84    0.84
  -2  -1 -14    0.14    0.49
   2   1  14   -0.59    0.64
   2   1  14   -0.71    0.77
   2   1  14    2.70    0.78
  -3  -1 -14   22.98    1.51
   3   1  14   24.25    1.94
   3   1  14   28.29    1.89
  -4   2  14   -1.19    1.16
  -4   2  14   -0.50    0.75
  -4   2  14    1.58    1.12
   3  -2 -14    2.34    0.53
  -3   2  14    2.82    0.84
  -3   2  14    0.79    0.96
  -3   2  14    1.57    0.58
   2  -2 -14   -0.69    0.52
   2  -2 -14   -0.20    0.47
   2  -2 -14   -0.66    0.40
  -2   2  14   -1.05    0.72
  -2   2  14   -0.14    0.63
  -2   2  14   -0.22    0.48
   1  -2 -14  114.86    2.70
   1  -2 -14  114.42    2.78
   1  -2 -14  112.23    2.87
  -1   2  14  114.61    3.10
  -1   2  14  111.13    2.75
   0  -2 -14   54.27    1.66
   0  -2 -14   48.64    1.86
   0  -2 -14   49.34    1.79
   0   2  14   53.09    1.76
   0   2  14   51.62    1.96
  -1  -2 -14    0.78    0.42
  -1  -2 -14   -0.91    0.61
  -1  -2 -14   -0.38    0.71
   1   2  14   -0.07    0.61
   1   2  14    0.00    0.62
   2   2  14    1.96    0.72
   2   2  14    2.73    0.87
  -3  -2 -14    7.49    0.96
   3   2  14    6.13    1.20
  -4   3  14    3.41    1.46
  -4   3  14    4.46    1.35
  -3   3  14   -0.42    0.97
  -3   3  14    0.81    0.90
  -3   3  14    1.39    0.67
   2  -3 -14    7.04    0.90
   2  -3 -14    6.90    0.80
   2  -3 -14    6.63    0.85
  -2   3  14    7.37    1.18
  -2   3  14    6.34    0.75
  -2   3  14    6.65    0.96
   1  -3 -14   42.98    1.74
   1  -3 -14   44.14    1.75
   1  -3 -14   47.45    1.65
  -1   3  14   45.49    1.64
  -1   3  14   45.91    1.99
  -1   3  14   44.82    2.00
   0  -3 -14    0.33    0.56
   0  -3 -14    0.45    0.43
   0  -3 -14   -0.05    0.66
   0   3  14    1.01    0.64
   0   3  14    0.60    0.59
  -1  -3 -14   15.85    1.41
  -1  -3 -14   16.85    1.08
   1   3  14   15.84    1.49
  -2  -3 -14   -0.53    0.52
   2   3  14    0.23    0.70
   2   3  14    1.80    0.90
  -3  -3 -14    3.39    0.86
   3   3  14    5.04    1.22
  -4   4  14   -1.31    1.57
  -4   4  14    1.10    1.30
   3  -4 -14    0.90    0.63
  -3   4  14    2.36    1.21
  -3   4  14    2.23    1.08
   2  -4 -14    2.21    0.78
   2  -4 -14    1.05    0.59
   2  -4 -14    0.30    0.53
  -2   4  14    1.30    0.87
  -2   4  14    0.38    0.83
   1  -4 -14   38.28    1.62
   1  -4 -14   43.56    1.64
   1  -4 -14   46.40    1.86
  -1   4  14   42.46    2.02
  -1   4  14   44.64    2.05
   0  -4 -14    4.12    0.97
   0  -4 -14    3.58    0.65
   0  -4 -14    2.38    0.80
   0   4  14    4.88    0.94
  -1  -4 -14    1.33    0.58
   1   4  14    2.19    0.89
  -2  -4 -14   -0.90    0.61
   2   4  14    0.52    0.93
  -3  -4 -14    1.25    0.88
   3   4  14    1.99    1.42
   3  -5 -14   -0.07    0.73
  -3   5  14   -0.61    1.34
  -3   5  14   -1.72    1.07
   2  -5 -14    7.34    1.04
   2  -5 -14    7.85    0.90
   2  -5 -14    7.74    1.02
  -2   5  14    9.55    1.42
  -2   5  14    6.87    1.13
   1  -5 -14    7.92    1.04
   1  -5 -14    7.63    1.18
   1  -5 -14    6.38    0.88
  -1   5  14    7.21    1.15
  -1   5  14    5.67    1.04
   0  -5 -14    3.69    0.72
   0  -5 -14    3.35    0.91
   0   5  14    3.65    0.96
  -1  -5 -14    1.69    0.65
   1   5  14    1.02    0.87
   1   5  14   -0.53    0.91
  -2  -5 -14   -0.58    0.71
   2   5  14   -0.45    0.90
   2   5  14   -1.01    1.10
   3  -6 -14   30.47    1.84
  -3   6  14   25.71    2.75
  -3   6  14   27.11    2.40
   2  -6 -14    0.60    0.77
  -2   6  14    0.43    1.07
  -2   6  14   -0.74    1.21
   1  -6 -14    1.26    0.75
   1  -6 -14    0.29    0.81
  -1   6  14    2.97    1.03
  -1   6  14    1.06    1.09
   0  -6 -14   19.26    1.41
   0   6  14   18.44    1.80
   0   6  14   17.22    1.85
  -1  -6 -14    1.38    0.76
   1   6  14   -0.53    1.06
   1   6  14    0.94    0.99
  -2  -6 -14    4.15    0.99
   2   6  14    1.54    1.35
   2  -7 -14    8.91    1.22
  -2   7  14    9.58    1.66
  -2   7  14   10.95    1.57
   1  -7 -14    0.62    0.97
   1  -7 -14    0.55    0.81
  -1   7  14   -1.36    1.09
  -1   7  14    2.17    1.33
   0  -7 -14   26.91    1.73
   0   7  14   29.26    2.36
   0   7  14   31.18    2.28
  -1  -7 -14    0.49    0.85
   1   7  14    2.61    1.32
   1  -8 -14    2.34    1.00
  -1   8  14    4.59    1.51
  -1   8  14    2.85    1.55
   0  -8 -14   20.61    1.85
   0   8  14   19.64    2.54
   0   8  14   16.13    1.86
   0  11 -15    0.08    0.87
   0 -11  15   -1.75    1.01
   0 -11  15   -0.03    1.07
  -2 -10  15   13.92    1.49
  -2 -10  15   14.54    1.79
  -1 -10  15   26.50    1.97
  -1 -10  15   27.64    1.87
   0  10 -15    0.83    0.74
   0 -10  15   -0.91    0.78
   0 -10  15    0.31    0.96
  -1  10 -15   -0.99    0.90
   1 -10  15    1.57    0.90
   1 -10  15    1.68    1.01
  -2  -9  15    9.10    1.25
  -2  -9  15   10.56    1.25
  -1  -9  15    3.34    0.95
  -1  -9  15    2.15    0.86
   0   9 -15   45.39    1.95
   0  -9  15   44.81    2.08
   0  -9  15   47.07    2.15
  -1   9 -15   -0.04    0.78
   1  -9  15    0.36    0.87
   1  -9  15   -0.61    0.82
  -2   9 -15    0.83    1.00
   2  -9  15    2.37    1.01
   2  -9  15    2.46    1.03
  -3  -8  15    2.01    0.97
  -3  -8  15    0.31    0.99
  -2  -8  15    2.47    0.88
  -2  -8  15    2.75    1.06
  -2  -8  15    3.34    0.89
  -1  -8  15   -0.43    0.71
  -1  -8  15    1.07    1.02
  -1  -8  15    1.14    0.71
   0   8 -15   26.36    1.55
   0   8 -15   26.98    1.27
   0  -8  15   23.39    1.62
   0  -8  15   28.68    1.61
  -1   8 -15   -1.15    0.66
   1  -8  15    0.69    0.73
   1  -8  15    0.24    0.74
  -2   8 -15    1.52    0.90
   2  -8  15    2.18    0.96
   2  -8  15    2.58    0.88
  -3  -7  15    1.32    0.83
  -3  -7  15   -0.55    0.80
  -2  -7  15    1.70    1.28
  -2  -7  15    1.93    0.89
  -2  -7  15   -0.50    0.65
   1   7 -15    1.56    0.50
   1   7 -15    1.21    0.34
  -1  -7  15    1.37    0.65
  -1  -7  15    1.42    0.69
  -1  -7  15    2.72    0.90
   0   7 -15    3.83    0.60
   0   7 -15    3.82    0.77
   0  -7  15    3.24    1.60
   0  -7  15    2.92    0.75
   0  -7  15    1.75    0.69
  -1   7 -15    8.86    1.10
  -1   7 -15   12.76    1.49
   1  -7  15    8.64    1.10
   1  -7  15   10.60    1.18
  -2   7 -15    5.60    0.94
   2  -7  15    8.90    1.20
   2  -7  15    7.28    1.10
  -3   7 -15    5.18    1.09
   3  -7  15    1.10    1.14
   3  -7  15    3.37    1.11
  -3  -6  15    1.31    0.78
  -3  -6  15    1.08    0.77
  -3  -6  15    2.26    0.91
   2   6 -15   10.12    1.31
  -2  -6  15    8.94    1.13
  -2  -6  15    8.41    0.93
  -2  -6  15    8.32    1.01
   1   6 -15    0.31    0.49
   1   6 -15    0.13    0.75
   1   6 -15    0.34    0.33
  -1  -6  15    1.17    0.79
  -1  -6  15    1.16    0.55
  -1  -6  15    0.56    0.57
  -1  -6  15   -0.34    0.65
   0   6 -15   -0.68    0.41
   0   6 -15    0.23    0.80
   0   6 -15    1.63    0.67
   0  -6  15   -0.50    0.79
   0  -6  15   -0.73    0.81
   0  -6  15   -0.67    0.57
   0  -6  15    0.94    0.57
  -1   6 -15    1.09    0.82
  -1   6 -15    2.32    0.58
   1  -6  15    1.99    0.70
   1  -6  15    1.69    0.72
  -2   6 -15    3.32    0.80
   2  -6  15    3.75    0.91
   2  -6  15    1.28    0.80
  -3   6 -15   11.17    1.24
   3  -6  15   14.64    1.63
   3  -6  15   11.49    1.40
  -4  -5  15   -1.21    1.14
  -4  -5  15    0.10    0.82
  -3  -5  15    0.57    0.73
  -3  -5  15    0.67    0.66
  -3  -5  15    0.35    0.66
   2   5 -15    0.30    0.79
  -2  -5  15    0.56    0.68
  -2  -5  15    1.17    0.61
  -2  -5  15   -0.10    0.55
   1   5 -15   18.47    1.36
   1   5 -15   20.68    1.02
   1   5 -15   18.91    0.80
  -1  -5  15   18.62    1.21
  -1  -5  15   18.45    1.41
  -1  -5  15   17.82    1.33
   0   5 -15   23.23    1.04
   0   5 -15   23.97    1.35
   0   5 -15   21.91    1.48
   0  -5  15   23.91    1.35
   0  -5  15   22.88    1.55
   0  -5  15   23.85    1.35
   0  -5  15   22.97    1.47
  -1   5 -15   -0.02    0.49
  -1   5 -15    2.38    0.76
   1  -5  15    0.30    0.61
   1  -5  15    0.55    0.56
  -2   5 -15    0.06    0.65
   2  -5  15    0.15    0.72
   2  -5  15    1.37    0.76
  -3   5 -15    4.37    0.94
   3  -5  15    4.10    1.05
  -4  -4  15   45.80    2.58
  -4  -4  15   41.13    2.19
  -4  -4  15   39.61    1.83
   3   4 -15    3.68    0.94
  -3  -4  15    1.42    0.72
  -3  -4  15    2.21    0.66
  -3  -4  15    2.32    0.67
   2   4 -15    5.74    0.91
  -2  -4  15    5.07    0.77
  -2  -4  15    3.73    1.06
  -2  -4  15    5.14    0.73
   1   4 -15    9.22    0.90
   1   4 -15    9.56    0.65
   1   4 -15    8.57    1.10
  -1  -4  15    9.41    0.93
  -1  -4  15    8.97    1.00
  -1  -4  15    8.15    1.07
   0   4 -15   22.83    1.40
   0   4 -15   22.21    0.99
   0   4 -15   21.48    1.31
   0  -4  15   21.17    1.25
   0  -4  15   22.49    1.43
   0  -4  15   19.68    1.29
   0  -4  15   22.70    1.31
  -1   4 -15   14.66    1.01
  -1   4 -15   13.52    1.28
  -1   4 -15   10.51    1.28
   1  -4  15   15.29    1.23
   1  -4  15   14.52    1.37
   1  -4  15   12.89    1.43
   1  -4  15   15.21    1.22
  -2   4 -15   28.55    1.46
   2  -4  15   26.20    1.64
   2  -4  15   23.30    1.66
  -3   4 -15   95.89    2.89
   3  -4  15   96.43    3.12
  -4  -3  15    1.32    0.80
  -4  -3  15    2.24    1.25
   3   3 -15    5.60    0.94
  -3  -3  15    6.71    0.83
  -3  -3  15    6.01    0.74
  -3  -3  15    6.86    0.83
  -2  -3  15    1.61    0.54
  -2  -3  15    2.40    0.59
  -2  -3  15    2.39    0.62
   1   3 -15   12.65    1.07
   1   3 -15   11.68    0.69
   1   3 -15    9.70    1.08
  -1  -3  15   11.43    0.97
  -1  -3  15   13.03    1.04
  -1  -3  15   11.55    1.05
   0   3 -15   40.34    1.61
   0   3 -15   38.20    1.65
   0   3 -15   40.50    1.32
   0  -3  15   39.50    1.66
   0  -3  15   39.19    1.62
   0  -3  15   40.48    1.65
  -1   3 -15   45.85    1.89
  -1   3 -15   41.85    1.83
  -1   3 -15   46.43    1.57
   1  -3  15   42.92    1.84
   1  -3  15   46.88    1.96
   1  -3  15   47.15    1.85
   1  -3  15   43.53    1.88
  -2   3 -15    0.98    0.59
   2  -3  15    2.56    0.80
   2  -3  15    2.39    1.03
  -3   3 -15   -0.41    0.75
   3  -3  15    1.15    0.93
  -4  -2  15   21.57    1.64
  -4  -2  15   25.85    2.30
  -4  -2  15   19.42    1.35
   3   2 -15    4.50    0.84
  -3  -2  15    5.82    0.70
  -3  -2  15    4.38    0.82
  -3  -2  15    4.64    0.72
   2   2 -15    2.77    0.70
  -2  -2  15    2.14    0.56
  -2  -2  15    3.82    0.66
  -2  -2  15    4.07    0.66
   1   2 -15   45.02    1.55
   1   2 -15   45.78    1.33
   1   2 -15   44.57    1.71
  -1  -2  15   44.86    1.68
  -1  -2  15   44.47    1.69
  -1  -2  15   42.82    1.60
   0   2 -15  110.21    2.91
   0   2 -15  106.32    2.83
   0   2 -15  110.69    2.54
   0  -2  15  106.16    3.28
   0  -2  15  108.64    2.85
   0  -2  15  109.25    2.94
  -1   2 -15   18.47    1.05
  -1   2 -15   19.01    1.35
  -1   2 -15   17.70    1.29
   1  -2  15   17.31    1.44
   1  -2  15   18.83    1.29
   1  -2  15   17.01    1.29
   1  -2  15   18.47    1.27
  -2   2 -15    7.58    0.85
   2  -2  15    8.06    1.00
   2  -2  15    6.58    0.99
  -3   2 -15    0.57    0.76
   3  -2  15    0.69    0.92
  -4  -1  15    0.85    1.19
  -4  -1  15   -1.12    0.90
  -4  -1  15   -0.45    0.67
   3   1 -15    0.73    0.70
  -3  -1  15    0.84    0.75
  -3  -1  15    1.41    0.61
  -3  -1  15    2.40    1.04
  -3  -1  15    1.45    0.61
   2   1 -15   17.60    1.19
  -2  -1  15   15.70    1.07
  -2  -1  15   16.85    1.19
  -2  -1  15   16.71    1.10
   1   1 -15    7.60    0.69
   1   1 -15    7.38    0.92
   1   1 -15    8.64    0.96
  -1  -1  15    8.80    1.11
  -1  -1  15   10.07    0.96
  -1  -1  15    6.99    0.91
   0   1 -15   79.75    2.36
   0   1 -15   78.79    2.35
   0   1 -15   79.31    2.07
   0  -1  15   80.51    2.43
   0  -1  15   83.29    2.37
  -1   1 -15   -0.77    0.60
  -1   1 -15   -0.77    0.39
  -1   1 -15    0.76    0.70
   1  -1  15    0.22    0.69
   1  -1  15    0.44    0.59
   1  -1  15    0.48    0.60
  -2   1 -15    1.11    0.56
   2  -1  15    0.32    0.73
   2  -1  15    0.74    0.80
  -3   1 -15    4.63    0.87
  -4   0  15    1.38    0.75
  -4   0  15   -2.29    1.18
  -4   0  15    0.90    1.02
   3   0 -15    5.86    0.80
  -3   0  15    5.60    0.75
  -3   0  15    5.33    0.72
  -3   0  15    3.88    1.09
   2   0 -15    0.03    0.36
   2   0 -15   -0.19    0.46
   2   0 -15   -0.51    0.55
  -2   0  15    1.22    0.54
  -2   0  15    0.29    0.97
  -2   0  15    0.56    0.55
   1   0 -15   -0.27    0.55
   1   0 -15    1.01    0.55
   1   0 -15    0.31    0.38
  -1   0  15    0.66    0.51
   0   0 -15    1.40    0.49
   0   0 -15    0.32    0.63
   0   0 -15    0.94    0.54
   0   0  15    1.97    0.60
   0   0  15    0.00    0.55
  -1   0 -15   24.22    1.54
  -1   0 -15   22.97    1.13
  -1   0 -15   22.63    1.47
   1   0  15   25.42    1.38
   1   0  15   20.77    1.43
  -2   0 -15   40.00    1.65
   2   0  15   36.53    1.83
   2   0  15   41.30    2.00
  -3   0 -15   21.18    1.55
   3   0  15   20.49    1.93
   3   0  15   18.14    2.07
  -4   1  15    1.18    0.81
  -4   1  15   -0.06    1.14
  -4   1  15    0.36    1.29
   3  -1 -15   -0.71    0.59
  -3   1  15   -0.93    0.79
  -3   1  15    0.36    0.86
  -3   1  15    0.72    0.61
   2  -1 -15   29.42    1.17
   2  -1 -15   29.38    1.36
   2  -1 -15   29.11    1.34
  -2   1  15   28.88    1.57
  -2   1  15   28.44    1.33
   1  -1 -15   63.52    1.81
   1  -1 -15   63.45    1.98
   1  -1 -15   60.81    1.99
  -1   1  15   59.99    2.16
  -1   1  15   62.14    1.94
   0  -1 -15  150.05    3.67
   0  -1 -15  153.42    3.38
   0  -1 -15  147.69    3.61
   0   1  15  155.54    3.85
   0   1  15  147.20    3.55
  -1  -1 -15    3.36    0.79
  -1  -1 -15    3.93    0.59
  -1  -1 -15    4.34    0.98
   1   1  15    4.06    0.80
   1   1  15    3.31    0.69
  -2  -1 -15    0.44    0.53
   2   1  15   -1.50    0.73
   2   1  15    0.85    0.82
   3   1  15    7.09    1.21
  -4   2  15   28.16    2.38
  -4   2  15   27.13    2.75
   3  -2 -15    4.02    0.71
  -3   2  15    6.08    1.13
  -3   2  15    4.45    0.77
  -3   2  15    1.37    1.05
   2  -2 -15   14.95    1.17
   2  -2 -15   14.22    0.96
   2  -2 -15   11.94    1.07
  -2   2  15   14.72    1.15
  -2   2  15   12.04    1.42
  -2   2  15   10.90    1.55
   1  -2 -15    4.03    0.70
   1  -2 -15    3.40    0.75
   1  -2 -15    4.14    0.59
  -1   2  15    3.51    0.81
  -1   2  15    2.06    0.65
   0  -2 -15   11.54    1.18
   0  -2 -15   13.50    0.97
   0  -2 -15   15.19    1.30
   0   2  15   14.26    1.32
   0   2  15   11.75    1.30
  -1  -2 -15    0.83    0.51
   1   2  15    0.73    0.76
  -2  -2 -15    0.10    0.56
   2   2  15    1.21    0.81
   2   2  15    0.37    0.88
  -3  -2 -15    2.94    0.82
   3   2  15    1.85    1.20
  -4   3  15    1.91    1.40
  -4   3  15    3.24    1.87
  -3   3  15    1.83    1.13
  -3   3  15    1.25    1.06
   2  -3 -15   -0.11    0.59
   2  -3 -15    0.72    0.75
   2  -3 -15    0.42    0.55
  -2   3  15    1.78    0.89
  -2   3  15   -1.11    0.78
   1  -3 -15    8.87    1.09
   1  -3 -15    6.90    0.91
   1  -3 -15    6.94    0.88
  -1   3  15    8.32    1.09
  -1   3  15    7.26    1.06
   0  -3 -15   40.72    1.75
   0  -3 -15   43.04    1.62
   0  -3 -15   40.77    2.10
   0   3  15   42.06    2.04
  -1  -3 -15    0.55    0.52
   1   3  15    0.35    0.87
  -2  -3 -15    4.52    0.78
   2   3  15    4.03    0.93
   2   3  15    3.98    1.08
   3  -4 -15    2.47    0.74
  -3   4  15    0.45    1.13
  -3   4  15    1.64    1.42
   2  -4 -15    7.02    1.02
   2  -4 -15    7.00    0.85
   2  -4 -15    7.33    0.84
  -2   4  15    9.64    1.31
  -2   4  15    7.34    1.15
   1  -4 -15    3.32    0.77
   1  -4 -15    1.01    0.88
   1  -4 -15    1.44    0.60
  -1   4  15    0.99    0.93
  -1   4  15    2.74    0.93
   0  -4 -15    1.33    0.81
   0  -4 -15    0.72    0.59
   0   4  15    1.40    0.87
  -1  -4 -15   -0.46    0.56
   1   4  15   -1.81    0.89
  -2  -4 -15    9.21    1.02
   2   4  15   10.12    1.37
   3  -5 -15    1.14    0.88
  -3   5  15   -0.98    1.24
  -3   5  15   -1.52    1.42
   2  -5 -15    9.83    1.22
   2  -5 -15    9.65    1.06
  -2   5  15    8.38    1.55
  -2   5  15    9.16    1.35
   1  -5 -15    2.28    0.76
   1  -5 -15    0.47    0.81
  -1   5  15    1.77    1.06
  -1   5  15    0.39    0.96
   0  -5 -15    2.04    0.68
   0   5  15    1.32    0.94
   0   5  15    0.71    0.95
  -1  -5 -15   11.26    1.27
   1   5  15   15.53    1.80
   1   5  15   10.21    1.39
  -2  -5 -15    0.44    0.85
   2   5  15    0.90    1.28
   2  -6 -15    0.06    0.85
  -2   6  15    0.04    1.20
  -2   6  15    0.00    1.32
   1  -6 -15    1.80    0.96
   1  -6 -15    1.66    0.82
  -1   6  15    1.81    1.30
  -1   6  15    2.19    1.16
   0  -6 -15    0.23    0.77
   0   6  15    0.03    1.18
   0   6  15   -0.97    1.10
  -1  -6 -15    0.88    0.82
   1   6  15   -1.49    1.14
   1   6  15    0.37    1.25
   2  -7 -15    0.40    1.06
  -2   7  15   -2.41    1.53
  -2   7  15    3.46    1.97
   1  -7 -15    2.51    1.03
  -1   7  15    0.11    1.46
  -1   7  15    1.96    1.31
   0  -7 -15   12.98    1.64
   0   7  15   15.28    1.84
   0   7  15   17.42    2.31
  -1 -10  16    2.53    1.14
  -1 -10  16    2.65    1.01
   0  10 -16    6.94    0.96
   0 -10  16    7.58    1.12
   0 -10  16    8.80    1.25
  -1  10 -16   17.05    1.81
   1 -10  16   16.15    2.01
   1 -10  16   19.54    2.00
  -2  -9  16   -0.74    0.91
  -2  -9  16    1.45    1.06
  -1  -9  16    1.89    0.84
  -1  -9  16    0.29    0.93
   0   9 -16    5.79    0.83
   0   9 -16    5.89    1.06
   0  -9  16    3.95    0.99
   0  -9  16    7.40    1.22
  -1   9 -16    7.92    1.03
   1  -9  16    8.71    1.16
   1  -9  16    7.78    1.26
  -2   9 -16    0.62    1.00
   2  -9  16    1.81    1.07
  -2  -8  16   -0.57    0.78
  -2  -8  16    0.43    0.92
  -1  -8  16    1.78    0.76
  -1  -8  16    2.07    0.91
   0   8 -16    5.11    0.93
   0   8 -16    4.16    0.83
   0  -8  16    2.14    0.81
   0  -8  16    4.23    0.98
  -1   8 -16    0.57    0.76
   1  -8  16    2.04    0.87
   1  -8  16    1.01    0.90
  -2   8 -16    1.29    0.92
   2  -8  16    1.22    1.00
   2  -8  16   -0.72    0.89
  -3  -7  16   14.13    1.62
  -3  -7  16   11.22    1.34
  -2  -7  16    0.42    1.03
  -2  -7  16   -0.55    0.77
  -2  -7  16    0.74    0.74
   1   7 -16    6.12    0.65
   1   7 -16    6.42    0.67
  -1  -7  16    5.61    0.93
  -1  -7  16    6.91    1.42
  -1  -7  16    7.73    1.00
   0   7 -16    0.15    0.61
   0   7 -16    1.03    0.80
   0  -7  16    0.29    0.67
   0  -7  16    0.89    0.76
  -1   7 -16    2.12    0.73
   1  -7  16    1.52    0.82
   1  -7  16    0.37    0.76
  -2   7 -16   -0.87    0.79
   2  -7  16   -0.55    0.88
   2  -7  16    0.03    0.89
  -3  -6  16    2.58    1.03
  -3  -6  16    1.10    0.83
  -2  -6  16    1.28    0.73
  -2  -6  16    3.49    0.94
  -2  -6  16    3.51    0.85
   1   6 -16    4.43    0.65
   1   6 -16    5.32    0.63
  -1  -6  16    4.14    0.84
  -1  -6  16    6.07    0.90
  -1  -6  16    5.05    0.99
   0   6 -16    3.09    0.78
   0   6 -16    0.17    0.45
   0  -6  16    0.04    0.61
   0  -6  16    0.70    0.72
  -1   6 -16    7.16    0.86
   1  -6  16    6.18    0.94
   1  -6  16    7.09    0.99
  -2   6 -16    4.63    0.89
   2  -6  16    2.19    0.91
   2  -6  16    2.98    0.90
  -3   6 -16    0.87    1.04
   3  -6  16    1.26    1.16
  -3  -5  16   12.95    1.48
  -3  -5  16   10.30    1.36
  -3  -5  16    9.89    1.07
   2   5 -16    0.64    0.94
  -2  -5  16    0.24    0.67
  -2  -5  16    0.59    0.77
   1   5 -16    2.08    0.88
   1   5 -16    0.35    0.38
  -1  -5  16    0.58    0.58
  -1  -5  16    2.48    0.78
  -1  -5  16    0.08    0.61
   0   5 -16    7.94    0.81
   0   5 -16    8.46    0.95
   0  -5  16    7.26    0.92
   0  -5  16    6.18    1.02
   0  -5  16    8.16    0.96
  -1   5 -16   23.54    1.66
  -1   5 -16   19.91    1.25
   1  -5  16   22.09    1.53
   1  -5  16   20.67    1.49
  -2   5 -16    1.04    0.73
   2  -5  16    0.94    0.85
   2  -5  16    0.50    0.86
  -3   5 -16   36.35    1.98
   3  -5  16   32.06    2.24
  -4  -4  16    0.42    1.19
  -4  -4  16   -0.35    0.89
   3   4 -16    5.79    1.10
  -3  -4  16    5.48    0.96
  -3  -4  16    7.68    0.97
  -3  -4  16    5.22    0.90
   2   4 -16   13.00    1.42
  -2  -4  16   10.95    1.10
  -2  -4  16   10.80    1.34
  -2  -4  16    9.20    0.97
   1   4 -16    1.94    0.74
   1   4 -16    0.47    0.56
   1   4 -16    0.61    0.37
  -1  -4  16   -0.50    0.68
  -1  -4  16    0.48    0.58
  -1  -4  16    1.54    0.65
   0   4 -16   25.56    1.49
   0   4 -16   25.27    1.09
   0   4 -16   22.47    1.58
   0  -4  16   29.79    2.12
   0  -4  16   25.07    1.44
   0  -4  16   24.27    1.47
   0  -4  16   22.11    1.58
  -1   4 -16    0.19    0.81
  -1   4 -16    0.82    0.54
   1  -4  16    1.10    0.72
   1  -4  16   -0.13    0.62
  -2   4 -16    2.39    0.71
   2  -4  16    2.46    0.83
   2  -4  16    2.90    0.94
  -3   4 -16   -1.68    0.84
   3  -4  16   -0.94    1.05
  -4  -3  16    6.69    1.48
   3   3 -16    5.46    1.03
  -3  -3  16    4.79    0.79
  -3  -3  16    3.42    0.86
   2   3 -16    3.50    0.83
  -2  -3  16    5.20    1.02
  -2  -3  16    2.83    0.69
  -2  -3  16    3.69    0.81
   1   3 -16   30.98    1.62
   1   3 -16   33.82    1.40
   1   3 -16   31.21    1.11
  -1  -3  16   30.41    1.51
  -1  -3  16   30.37    1.52
  -1  -3  16   33.54    1.56
   0   3 -16   44.90    1.89
   0   3 -16   46.51    1.82
   0   3 -16   49.51    1.50
   0  -3  16   47.42    1.92
   0  -3  16   45.26    1.93
   0  -3  16   46.76    1.88
  -1   3 -16    0.70    0.50
  -1   3 -16    1.03    0.81
   1  -3  16   -2.22    1.21
   1  -3  16   -0.07    0.66
   1  -3  16   -0.17    0.65
  -2   3 -16    5.39    0.81
   2  -3  16    6.67    1.01
  -3   3 -16   16.51    1.57
   3  -3  16   17.35    1.85
  -4  -2  16    3.21    1.32
  -4  -2  16    1.05    1.23
   3   2 -16    6.01    1.00
  -3  -2  16    6.38    0.87
  -3  -2  16    6.42    1.20
  -3  -2  16    5.75    0.80
   2   2 -16    0.70    0.72
  -2  -2  16   -0.67    0.56
  -2  -2  16   -0.19    0.59
   1   2 -16   18.85    1.20
   1   2 -16   17.86    0.89
   1   2 -16   16.86    1.30
  -1  -2  16   19.04    1.26
  -1  -2  16   17.24    1.26
  -1  -2  16   18.74    1.26
   0   2 -16   35.11    1.65
   0   2 -16   29.46    1.59
   0  -2  16   37.95    1.72
   0  -2  16   35.83    1.70
   0  -2  16   35.63    1.67
  -1   2 -16    3.41    0.88
  -1   2 -16    4.34    0.63
   1  -2  16    5.44    0.86
   1  -2  16    3.77    0.81
  -2   2 -16    6.40    0.83
   2  -2  16    4.43    0.91
  -3   2 -16    0.14    0.83
   3  -2  16    1.04    1.06
  -4  -1  16   -0.93    1.08
  -4  -1  16    1.15    1.32
   3   1 -16   14.29    1.41
  -3  -1  16   16.83    1.51
  -3  -1  16   17.12    1.84
  -3  -1  16   15.50    1.29
  -3  -1  16   14.91    1.25
   2   1 -16    0.63    0.70
  -2  -1  16    2.62    0.71
  -2  -1  16    1.57    0.62
  -2  -1  16    1.91    0.64
   1   1 -16    6.85    0.82
   1   1 -16    6.55    0.82
   1   1 -16    8.83    0.77
  -1  -1  16    7.21    0.90
  -1  -1  16    8.19    1.34
  -1  -1  16    6.26    0.81
   0   1 -16   23.54    1.44
   0   1 -16   24.42    1.09
   0   1 -16   19.23    1.35
   0  -1  16   23.72    1.48
   0  -1  16   22.77    1.41
  -1   1 -16    9.54    0.97
   1  -1  16   10.45    1.30
   1  -1  16    7.10    1.00
  -2   1 -16   -0.25    0.59
   2  -1  16    0.27    1.57
   2  -1  16   -0.90    0.77
  -3   1 -16    0.01    0.82
   3  -1  16    2.80    1.12
  -4   0  16    5.08    1.29
  -4   0  16    5.45    1.51
   3   0 -16    7.61    0.93
  -3   0  16    5.35    1.14
  -3   0  16    9.37    1.20
  -3   0  16    8.11    0.91
   2   0 -16    4.31    0.80
   2   0 -16    4.71    0.64
   2   0 -16    4.94    0.57
  -2   0  16    6.54    0.93
  -2   0  16    4.79    0.77
   1   0 -16    5.99    0.82
   1   0 -16    4.86    0.61
   1   0 -16    6.75    0.86
  -1   0  16    6.24    0.82
   0   0 -16   38.16    1.78
   0   0 -16   39.86    1.76
   0   0 -16   41.82    1.47
   0   0  16   41.84    2.05
  -1   0 -16    8.79    0.96
   1   0  16    9.05    1.24
  -2   0 -16   22.01    1.35
   2   0  16   17.16    1.70
   2   0  16   24.84    1.80
  -3   0 -16    1.41    0.81
   3   0  16    0.95    1.17
  -4   1  16    0.12    1.49
  -4   1  16   -0.50    1.35
  -3   1  16   -0.48    1.10
  -3   1  16    0.37    0.97
  -3   1  16    0.45    0.89
   2  -1 -16    0.75    0.51
   2  -1 -16    1.30    0.66
   2  -1 -16    0.91    0.69
  -2   1  16    2.16    0.79
  -2   1  16    0.59    0.64
   1  -1 -16    3.28    0.78
   1  -1 -16    4.66    0.78
   1  -1 -16    3.33    0.59
  -1   1  16    2.97    0.84
  -1   1  16    3.28    0.76
   0  -1 -16  103.08    3.00
   0  -1 -16  108.76    2.70
   0  -1 -16  105.00    2.93
   0   1  16  109.67    3.19
  -1  -1 -16    4.02    0.70
   1   1  16    3.64    0.78
   1   1  16    3.25    0.91
  -2  -1 -16   10.92    1.19
   2   1  16   11.11    1.56
   2   1  16    9.60    1.28
  -3  -1 -16    1.66    1.00
   3   1  16    2.11    1.25
  -3   2  16    7.88    1.46
  -3   2  16    8.30    1.32
   2  -2 -16   12.69    1.31
   2  -2 -16   13.46    1.20
   2  -2 -16   12.43    1.02
  -2   2  16    9.87    1.42
  -2   2  16   12.46    1.34
   1  -2 -16    0.84    0.68
   1  -2 -16    1.55    0.55
   1  -2 -16    1.43    0.80
  -1   2  16    1.61    0.82
   0  -2 -16   87.66    3.86
   0  -2 -16   71.69    2.45
   0  -2 -16   75.02    2.22
   0   2  16   76.52    2.71
  -1  -2 -16   15.82    1.22
   1   2  16   16.33    1.64
  -2  -2 -16    3.47    0.78
   2   2  16    5.05    1.01
   2   2  16    3.35    1.08
  -3   3  16    4.35    1.42
  -3   3  16    3.70    1.26
   2  -3 -16    0.61    0.62
   2  -3 -16    0.73    0.84
   2  -3 -16    0.77    0.73
  -2   3  16    0.51    0.97
  -2   3  16    2.01    1.04
   1  -3 -16   -0.16    0.57
   1  -3 -16    0.29    0.70
   1  -3 -16    0.01    0.88
  -1   3  16   -0.13    0.88
  -1   3  16    0.00    0.83
   0  -3 -16   88.57    2.57
   0  -3 -16   92.65    4.04
   0   3  16   90.67    3.11
  -1  -3 -16   40.83    1.73
   1   3  16   40.72    2.26
  -2  -3 -16   -0.30    0.75
   2   3  16    0.63    1.10
  -3   4  16    8.12    1.69
  -3   4  16    5.64    1.46
   2  -4 -16    0.01    0.95
   2  -4 -16    0.69    0.72
   2  -4 -16    2.42    1.20
  -2   4  16   -0.88    1.01
  -2   4  16    1.23    1.17
   1  -4 -16    6.52    0.92
   1  -4 -16    5.38    0.95
  -1   4  16    5.67    1.17
  -1   4  16    7.24    1.19
   0  -4 -16   27.55    1.54
   0   4  16   26.29    1.98
   0   4  16   29.15    2.03
  -1  -4 -16    0.46    0.68
   1   4  16   -0.77    1.04
  -2  -4 -16    5.40    1.05
   2   4  16    6.77    1.37
   2  -5 -16    0.92    0.91
  -2   5  16   -2.48    1.26
  -2   5  16   -1.16    1.20
   1  -5 -16    2.10    1.02
   1  -5 -16    1.28    0.83
  -1   5  16   -0.60    1.08
  -1   5  16    2.07    1.22
   0  -5 -16   21.37    1.52
   0   5  16   16.15    2.03
   0   5  16   20.18    2.10
  -1  -5 -16    3.03    0.84
   1   5  16    3.32    1.28
   1   5  16    4.12    1.29
   2  -6 -16   -1.87    1.02
  -2   6  16   -2.52    1.46
  -2   6  16    1.66    1.35
   1  -6 -16    7.07    1.13
  -1   6  16    6.70    1.56
  -1   6  16    6.19    1.34
   0  -6 -16    4.73    1.04
   0   6  16    6.37    1.36
   0   6  16    5.31    1.56
  -1  -9  17    8.65    1.18
  -1  -9  17   11.74    1.43
   0   9 -17   21.15    1.53
   0  -9  17   21.93    1.94
   0  -9  17   27.48    1.92
  -1   9 -17    3.96    1.01
   1  -9  17    3.78    1.10
   1  -9  17    3.78    1.16
  -2  -8  17   -0.02    1.07
  -2  -8  17   -0.08    0.88
  -1  -8  17   13.80    1.55
  -1  -8  17   14.46    1.70
   0   8 -17    7.71    1.13
   0   8 -17    6.93    0.82
   0  -8  17    9.12    1.22
   0  -8  17    8.98    1.22
  -1   8 -17   37.75    1.88
   1  -8  17   38.15    2.20
   1  -8  17   35.87    2.08
   2  -8  17    2.76    1.23
  -2  -7  17    2.28    1.02
  -2  -7  17    0.69    0.83
  -1  -7  17    3.03    0.98
  -1  -7  17    5.57    0.97
   0   7 -17    1.84    0.59
   0   7 -17    3.14    0.92
   0  -7  17    0.09    0.81
   0  -7  17   -0.09    0.77
  -1   7 -17   16.22    1.41
   1  -7  17   20.69    1.74
   1  -7  17   18.72    1.76
  -2   7 -17   -0.51    0.86
   2  -7  17   -0.90    0.94
  -3  -6  17   -0.19    0.88
  -3  -6  17    0.79    1.01
  -2  -6  17    1.65    0.88
  -2  -6  17   -0.09    0.77
  -2  -6  17   -0.77    1.06
   1   6 -17    1.18    0.46
  -1  -6  17    0.96    0.79
  -1  -6  17    1.00    0.73
   0   6 -17    1.71    0.55
   0   6 -17    1.22    0.87
   0  -6  17    1.18    0.82
   0  -6  17    0.49    0.72
  -1   6 -17    1.46    0.71
   1  -6  17    2.40    0.88
   1  -6  17    2.24    0.80
  -2   6 -17    4.76    0.93
   2  -6  17    4.31    1.11
   2  -6  17    3.27    1.06
  -3  -5  17   11.16    1.54
  -3  -5  17   15.16    1.64
  -2  -5  17    2.25    0.82
  -2  -5  17    1.76    0.81
  -2  -5  17    3.06    0.97
   1   5 -17   10.26    1.15
   1   5 -17   11.59    0.81
  -1  -5  17   12.28    1.46
  -1  -5  17   10.27    1.32
  -1  -5  17   11.74    1.29
   0   5 -17   -0.35    0.45
   0   5 -17    0.15    0.80
   0  -5  17   -0.34    0.69
   0  -5  17    0.57    0.73
  -1   5 -17    0.47    0.63
   1  -5  17    0.26    0.73
   1  -5  17    1.01    0.81
  -2   5 -17    0.20    0.77
   2  -5  17   -1.53    0.89
   2  -5  17    0.93    0.93
   3   4 -17    0.72    1.12
  -3  -4  17   -0.13    0.90
  -3  -4  17    1.19    0.84
  -3  -4  17   -0.52    0.92
   2   4 -17    0.33    0.90
  -2  -4  17   -0.10    0.67
  -2  -4  17    0.43    0.76
  -2  -4  17   -0.45    0.82
   1   4 -17    1.62    0.69
   1   4 -17    1.51    0.44
  -1  -4  17    0.67    0.82
  -1  -4  17    2.32    0.74
  -1  -4  17    0.52    0.68
   0   4 -17   13.75    0.94
   0   4 -17   13.44    1.42
   0  -4  17   10.87    1.25
   0  -4  17   11.21    1.34
  -1   4 -17   19.86    1.26
   1  -4  17   15.49    1.49
   1  -4  17   17.53    1.55
  -2   4 -17    0.12    0.70
   2  -4  17   -1.66    0.88
   3   3 -17   50.75    2.31
  -3  -3  17   56.19    2.23
  -3  -3  17   51.25    2.08
  -3  -3  17   53.01    2.08
   2   3 -17    3.68    0.89
  -2  -3  17    1.48    0.78
  -2  -3  17    1.72    0.71
  -2  -3  17    1.78    0.81
   1   3 -17    4.23    0.77
   1   3 -17    2.40    0.87
   1   3 -17    4.04    0.55
  -1  -3  17    3.85    0.78
  -1  -3  17    4.80    0.86
  -1  -3  17    3.62    0.84
   0   3 -17    2.68    0.81
   0   3 -17    1.07    0.51
   0  -3  17    2.12    0.78
   0  -3  17    3.59    0.81
  -1   3 -17   25.57    1.36
   1  -3  17   23.94    1.69
   1  -3  17   23.42    1.64
  -2   3 -17   10.03    1.06
   2  -3  17    9.75    1.29
   3  -3  17   17.27    2.04
   3   2 -17    1.17    0.98
  -3  -2  17    4.55    1.59
  -3  -2  17    1.47    0.81
   2   2 -17    7.68    1.03
  -2  -2  17    9.83    1.31
  -2  -2  17    8.52    1.02
  -2  -2  17    9.71    1.08
   1   2 -17    0.87    0.45
   1   2 -17    1.32    0.70
   1   2 -17    2.43    0.84
  -1  -2  17    1.69    0.72
  -1  -2  17    0.16    0.72
  -1  -2  17    1.96    0.73
   0   2 -17    6.60    0.94
   0   2 -17    6.59    0.84
   0  -2  17    6.47    0.98
   0  -2  17    5.03    0.90
  -1   2 -17   17.96    1.20
   1  -2  17   16.03    1.49
  -2   2 -17   12.44    1.33
   2  -2  17   13.40    1.64
  -3  -1  17   25.95    1.60
  -3  -1  17   26.41    2.23
  -3  -1  17   22.12    1.60
  -3  -1  17   25.87    1.91
   2   1 -17    3.34    0.85
  -2  -1  17    1.97    0.78
   1   1 -17    1.82    0.73
   1   1 -17    0.77    0.74
   1   1 -17    1.07    0.49
  -1  -1  17    0.74    0.71
  -1  -1  17    1.42    0.72
   0   1 -17   36.93    1.83
   0   1 -17   37.21    1.45
   0   1 -17   36.08    2.12
   0  -1  17   37.20    1.85
  -1   1 -17   82.30    2.37
   1  -1  17   84.08    2.83
  -2   1 -17    7.98    0.94
  -3   0  17    0.97    1.02
  -3   0  17    0.26    1.07
   2   0 -17    1.02    0.82
   2   0 -17    0.40    0.50
  -2   0  17    1.23    0.85
   1   0 -17   14.19    0.99
   1   0 -17   17.48    1.42
   1   0 -17   13.10    1.34
   0   0 -17    4.85    0.69
   0   0 -17    4.13    0.92
  -1   0 -17   32.55    1.51
  -2   0 -17   -0.21    0.67
   2   0  17   -0.70    0.99
  -3   1  17    1.01    1.32
  -3   1  17    3.13    1.22
   2  -1 -17    4.44    0.67
   2  -1 -17    3.74    0.81
   2  -1 -17    3.69    0.88
  -2   1  17    3.70    1.04
   1  -1 -17    0.80    0.80
   1  -1 -17    1.58    0.80
   1  -1 -17    0.94    0.52
  -1   1  17    1.76    0.89
   0  -1 -17    0.38    0.55
   0   1  17    0.21    0.82
  -1  -1 -17    1.69    0.64
   1   1  17    1.34    0.92
   1   1  17    3.45    1.52
  -2  -1 -17   12.25    1.35
   2   1  17   13.18    1.50
  -3   2  17    4.06    1.27
  -3   2  17    1.28    1.21
   2  -2 -17    1.65    0.83
   2  -2 -17    0.64    0.66
   2  -2 -17    0.76    0.88
  -2   2  17    1.21    1.02
  -2   2  17   -1.18    0.97
   1  -2 -17   14.50    1.18
   1  -2 -17   15.94    1.60
   1  -2 -17   14.69    1.46
  -1   2  17   15.88    1.71
   0  -2 -17   30.85    1.49
   0   2  17   32.67    2.03
  -1  -2 -17   85.73    2.57
   1   2  17   89.05    3.12
   1   2  17   81.18    3.04
  -2  -2 -17    1.03    0.77
   2   2  17    1.52    1.21
  -3   3  17   24.20    2.40
  -3   3  17   25.74    2.76
   2  -3 -17    4.52    1.10
   2  -3 -17    5.02    0.86
  -2   3  17    6.51    1.31
  -2   3  17    3.91    1.17
   1  -3 -17    6.13    0.89
   1  -3 -17    4.11    0.98
  -1   3  17    5.26    1.18
  -1   3  17    6.03    1.14
   0  -3 -17    0.62    0.65
   0   3  17    2.94    1.10
  -1  -3 -17   16.89    1.41
   1   3  17   19.12    2.04
   1   3  17   17.75    1.82
   2  -4 -17    1.14    0.89
  -2   4  17    1.49    1.25
  -2   4  17    1.96    1.30
   1  -4 -17   -1.15    0.76
   1  -4 -17   -0.34    1.00
  -1   4  17    1.48    1.15
  -1   4  17    2.85    1.17
   0  -4 -17    5.38    0.91
   0   4  17    6.81    1.28
   0   4  17    4.47    1.32
  -1  -4 -17   22.71    1.58
   1   4  17   17.51    2.17
   2  -5 -17    0.92    1.03
  -2   5  17    0.66    1.34
  -2   5  17    2.59    1.50
   1  -5 -17    2.56    0.93
  -1   5  17   -0.61    1.18
  -1   5  17    3.71    1.42
   0  -5 -17    1.15    0.83
   0   5  17   -0.69    1.33
   0   5  17    0.77    1.19
  -1  -8  18    1.96    1.11
  -1  -8  18    2.69    1.04
   0   8 -18   -0.10    0.73
   0  -8  18   -0.98    0.89
   0  -8  18   -0.90    0.98
  -1   8 -18    3.46    0.97
   1  -8  18    2.24    1.13
   1  -8  18    4.06    1.21
  -2  -7  18    1.12    1.00
  -2  -7  18    1.83    1.14
  -1  -7  18    0.78    0.90
  -1  -7  18   -0.31    0.95
   0   7 -18    1.96    1.06
   0   7 -18    3.00    0.73
   0  -7  18    2.37    0.95
   0  -7  18    1.05    0.98
  -1   7 -18    2.69    0.86
   1  -7  18    1.76    1.11
   1  -7  18    1.17    0.97
  -2  -6  18   16.13    1.78
  -2  -6  18   15.18    1.63
   1   6 -18   -0.01    0.49
  -1  -6  18   -0.41    0.90
  -1  -6  18    1.85    0.85
   0   6 -18    5.51    0.73
   0   6 -18    4.35    1.06
   0  -6  18    3.78    1.00
   0  -6  18    4.76    1.02
  -1   6 -18    0.61    0.77
   1  -6  18   -1.30    0.86
   1  -6  18    1.15    0.96
  -2   6 -18    0.90    0.90
   2  -6  18    0.78    1.14
   2  -6  18   -0.10    1.20
  -3  -5  18    2.65    1.13
  -3  -5  18    2.84    1.04
  -2  -5  18    0.68    0.91
  -2  -5  18   -0.18    0.82
   1   5 -18    2.06    0.51
   1   5 -18    1.46    0.77
  -1  -5  18    2.58    0.85
  -1  -5  18    1.69    0.87
   0   5 -18    2.67    0.62
   0   5 -18    3.71    1.02
   0  -5  18    4.84    0.97
   0  -5  18    2.96    0.91
  -1   5 -18    0.30    0.70
   1  -5  18   -0.81    0.82
   1  -5  18    1.39    0.97
  -2   5 -18    4.37    0.94
   2  -5  18    2.61    1.09
   2  -5  18    3.69    1.15
  -3  -4  18    5.49    1.16
  -3  -4  18    5.92    1.13
  -2  -4  18   10.50    1.45
  -2  -4  18   11.11    1.27
   1   4 -18    0.27    0.76
   1   4 -18    0.25    0.49
  -1  -4  18    0.51    0.75
  -1  -4  18   -0.55    0.80
   0   4 -18    0.06    0.92
   0   4 -18   -0.12    0.52
   0  -4  18   -0.60    0.73
   0  -4  18    1.26    0.84
  -1   4 -18    3.37    0.75
   1  -4  18    5.72    1.09
   1  -4  18    3.87    1.00
  -2   4 -18    7.63    1.06
   2  -4  18    7.36    1.24
  -3  -3  18    0.49    1.06
  -3  -3  18   -0.19    0.92
   2   3 -18    6.74    1.48
  -2  -3  18    5.55    0.96
  -2  -3  18    5.15    1.02
   1   3 -18    7.16    0.86
   1   3 -18    8.08    0.96
  -1  -3  18    8.10    1.10
  -1  -3  18    8.47    1.11
   0   3 -18   -0.85    0.51
   0   3 -18   -0.08    0.90
   0  -3  18    1.09    0.81
   0  -3  18   -1.21    0.75
  -1   3 -18    7.15    0.87
   1  -3  18    6.82    1.10
   1  -3  18    8.42    1.23
  -2   3 -18   -0.28    0.79
   2  -3  18    4.05    1.09
  -3  -2  18    8.13    1.14
   2   2 -18    7.43    1.16
  -2  -2  18    8.63    1.16
  -2  -2  18    8.90    1.13
   1   2 -18    5.15    0.89
   1   2 -18    4.10    0.63
  -1  -2  18    5.57    0.98
  -1  -2  18    3.88    0.88
   0   2 -18   14.00    1.67
   0   2 -18   18.20    1.15
   0  -2  18   16.41    1.58
   0  -2  18   17.45    1.55
  -1   2 -18   29.91    1.49
   1  -2  18   28.37    1.88
  -2   2 -18    0.70    0.78
   2  -2  18   -0.96    1.02
  -3  -1  18    3.52    1.11
  -3  -1  18    3.97    1.26
   2   1 -18    2.60    0.56
   2   1 -18    1.57    0.93
  -2  -1  18    3.26    0.91
   1   1 -18    0.58    0.86
   1   1 -18   -0.07    0.56
   1   1 -18    1.47    0.95
  -1  -1  18    0.35    0.80
   0   1 -18    4.53    0.71
   0  -1  18    4.90    0.98
  -1   1 -18   14.44    1.25
   1  -1  18   16.42    1.64
  -2   1 -18   -0.27    0.74
  -3   0  18   -0.60    1.17
  -3   0  18    2.58    1.43
   2   0 -18   12.06    1.06
   2   0 -18    9.68    1.18
  -2   0  18   14.92    1.78
   1   0 -18    3.19    0.96
   1   0 -18    3.47    0.70
   1   0 -18    3.01    0.93
  -1   0  18    1.90    0.98
   0   0 -18    3.53    0.73
   0   0  18    5.46    1.07
  -1   0 -18   10.70    1.23
   1   0  18   14.08    1.76
  -2   0 -18    0.48    0.74
   2   0  18    0.40    1.11
  -3   1  18    6.86    1.46
  -3   1  18    5.15    1.57
   2  -1 -18   11.19    1.18
   2  -1 -18   14.24    1.61
  -2   1  18    9.74    1.31
   1  -1 -18    6.82    1.10
   1  -1 -18    5.23    0.75
   1  -1 -18    5.40    1.11
  -1   1  18    5.89    1.15
   0  -1 -18    3.69    0.74
   0   1  18    4.48    1.07
  -1  -1 -18   14.53    1.40
   1   1  18   12.86    1.53
  -2  -1 -18    5.75    1.19
   2   1  18    6.97    1.38
  -2   2  18    1.84    1.21
  -2   2  18   -0.38    1.28
   1  -2 -18   -0.30    0.67
  -1   2  18   -0.27    1.06
   0  -2 -18    2.49    0.78
   0   2  18    2.80    1.05
  -1  -2 -18   66.80    2.33
   1   2  18   67.28    2.96
   2  -3 -18    4.75    1.00
  -2   3  18    7.86    1.43
  -2   3  18    4.96    1.56
   1  -3 -18    8.57    1.07
  -1   3  18    9.41    1.39
  -1   3  18    6.39    1.41
   0  -3 -18    1.93    0.80
   0   3  18   -1.56    1.12
  -1  -3 -18   24.49    1.70
   1   3  18   25.82    2.46
   1  -4 -18   -0.36    0.89
  -1   4  18   -0.44    1.29
  -1   4  18    1.75    1.24
   0  -4 -18    1.41    0.93
   0   4  18    1.83    1.40
   0   4  18    4.04    1.38
  -1  -7  19   -0.16    1.13
  -1  -7  19    1.17    0.98
   0   7 -19   12.81    1.42
   0  -7  19    8.55    1.34
   0  -7  19   13.74    1.74
  -1   7 -19    7.35    1.08
  -2  -6  19   12.10    1.45
  -2  -6  19   14.72    1.78
   1   6 -19   -0.10    0.99
  -1  -6  19    0.74    0.97
  -1  -6  19    0.17    0.98
   0   6 -19    4.25    0.81
   0   6 -19    2.83    1.21
   0  -6  19    4.87    1.10
   0  -6  19    5.04    1.16
  -1   6 -19    1.17    0.82
   1  -6  19   -0.08    0.91
   1  -6  19   -1.25    1.04
  -2  -5  19    0.73    0.98
  -2  -5  19   -0.96    1.03
   1   5 -19    0.22    0.57
  -1  -5  19   -0.87    0.92
  -1  -5  19   -0.09    0.87
   0   5 -19    2.05    1.19
   0   5 -19    1.29    0.66
   0  -5  19    0.27    0.89
   0  -5  19    0.74    1.03
  -1   5 -19    0.15    0.75
   1  -5  19   -0.66    0.98
   1  -5  19    0.76    1.05
  -2  -4  19   11.48    1.37
  -2  -4  19    8.72    1.25
   1   4 -19    1.81    0.60
  -1  -4  19    3.22    1.03
  -1  -4  19    1.04    0.89
   0   4 -19   10.15    1.17
   0  -4  19    8.00    1.25
   0  -4  19    9.91    1.29
  -1   4 -19   -0.67    0.70
   1  -4  19    0.09    1.05
   1  -4  19   -1.62    0.96
  -2  -3  19   -1.15    0.93
  -2  -3  19    0.16    1.00
   1   3 -19    1.79    0.95
   1   3 -19    0.87    0.62
  -1  -3  19    2.72    0.99
  -1  -3  19    1.42    0.91
   0   3 -19    2.10    0.68
   0  -3  19    2.03    1.00
   0  -3  19    1.12    0.95
  -1   3 -19    9.59    1.28
   1  -3  19    8.00    1.27
  -2  -2  19   54.58    2.53
  -2  -2  19   58.55    2.47
   1   2 -19    0.73    0.96
  -1  -2  19    2.46    1.00
  -1  -2  19    0.40    0.93
   0   2 -19    2.31    0.73
   0  -2  19    1.89    0.98
  -1   2 -19   -0.35    0.67
   1  -2  19   -0.01    1.03
  -2  -1  19    6.08    1.26
   1   1 -19    8.15    1.17
   1   1 -19   10.15    1.14
   0   1 -19   -0.84    0.63
   0  -1  19   -0.11    0.92
  -1   1 -19    2.47    0.82
   2   0 -19   17.66    1.96
   2   0 -19   18.91    1.48
  -2   0  19   19.21    2.06
   1   0 -19    0.85    0.73
   1   0 -19    0.13    1.10
  -1   0  19    3.81    1.11
   0   0 -19   -0.16    0.67
   0   0  19    0.84    1.06
  -1   0 -19   20.68    1.56
   1   0  19   22.30    2.10
   2  -1 -19    1.21    0.81
  -2   1  19    1.15    1.18
  -2   1  19    2.00    1.27
   1  -1 -19    1.67    0.81
  -1   1  19    1.25    1.12
   0  -1 -19    6.25    0.90
   0   1  19    6.03    1.34
  -1  -1 -19    2.39    0.87
   1   1  19    5.07    1.35
   2  -2 -19    2.17    0.96
  -2   2  19    3.25    1.60
  -2   2  19    1.01    1.31
   1  -2 -19    0.42    0.87
  -1   2  19    4.99    1.34
   0  -2 -19    0.55    0.83
   0   2  19    2.50    1.22
   1  -3 -19    1.89    0.96
  -1   3  19    3.34    1.45
  -1   3  19    1.04    1.43
   0  -3 -19    4.63    0.98
  -1  -6  20    0.95    1.07
  -1  -6  20   -1.21    1.16
   0   6 -20    0.30    0.83
   0  -6  20    0.91    1.17
   0  -6  20    0.58    1.09
  -1  -5  20   15.00    1.95
  -1  -5  20   12.60    1.47
   0   5 -20   -0.82    0.78
   0  -5  20    0.40    1.04
   0  -5  20   -0.26    1.06
  -2  -4  20    3.47    1.25
  -2  -4  20    3.28    1.14
   1   4 -20   -0.42    0.67
  -1  -4  20    0.03    0.96
  -1  -4  20   -0.31    1.11
   0   4 -20    2.05    0.78
   0  -4  20    1.49    1.05
   0  -4  20    0.91    1.05
  -1   4 -20    0.28    0.86
   1  -4  20    1.62    1.25
   1  -4  20    0.43    1.37
  -2  -3  20    5.55    1.28
  -2  -3  20    5.49    1.30
  -1  -3  20    7.53    1.29
  -1  -3  20    9.01    1.35
   0   3 -20    1.79    0.79
   0  -3  20    1.42    1.12
   0  -3  20    4.23    1.15
  -1   3 -20   -0.69    0.80
   1  -3  20   -0.22    1.20
  -2  -2  20    0.75    1.15
   1   2 -20    3.14    0.80
  -1  -2  20    4.03    1.16
  -1  -2  20    3.74    1.16
   0   2 -20    0.79    0.80
   0  -2  20    4.53    1.17
   1  -2  20    2.20    1.32
  -2  -1  20    7.47    1.41
   1   1 -20    8.83    1.02
   0   1 -20    2.23    0.80
  -1   1 -20    8.68    1.06
   1   0 -20    0.59    0.83
  -1   0  20    0.77    1.19
   0   0 -20    0.73    0.77
   0   0  20    1.99    1.21
   1  -1 -20    4.56    1.03
  -1   1  20    5.10    1.40
   0  -1 -20    2.66    0.92
   0   1  20    4.92    1.84
   0   0   0    0.00    0.00


 _exptl_absorpt_process_details 'SADABS 2014/5'
 _exptl_absorpt_correction_type   multi-scan
 _exptl_absorpt_correction_T_max  0.7457
 _exptl_absorpt_correction_T_min  0.7105
 _exptl_special_details
)
 The following wavelength and cell were deduced by SADABS from the
 direction cosines etc. They are given here for emergency use only:
 CELL 0.71073    4.439   10.204   15.706  100.812   95.235   93.771
)

_computing_structure_solution     'SHELXT 2014/5 (Sheldrick, 2014)'
;
_shelx_hkl_checksum              25802
loop_
_space_group_symop_operation_xyz
'x, y, z'
'-x, -y, -z'
loop_
_atom_site_label
_atom_site_type_symbol
_atom_site_fract_x
_atom_site_fract_y
_atom_site_fract_z
_atom_site_U_iso_or_equiv
_atom_site_adp_type
_atom_site_occupancy
_atom_site_site_symmetry_order
_atom_site_calc_flag
_atom_site_refinement_flags_posn
_atom_site_refinement_flags_adp
C1 C 0.3198(3) 0.50998(13) 0.83354(9) 0.0154(3) Uani 1 1 d . .
C2 C 0.3336(3) 0.59180(14) 0.77233(9) 0.0210(3) Uani 1 1 d . .
H2 H 0.4361 0.5663 0.7220 0.025 Uiso 1 1 calc R U
C3 C 0.1955(3) 0.71144(14) 0.78563(9) 0.0221(3) Uani 1 1 d . .
H3 H 0.2061 0.7681 0.7443 0.027 Uiso 1 1 calc R U
C4 C 0.0427(3) 0.74905(14) 0.85824(9) 0.0207(3) Uani 1 1 d . .
H4 H -0.0528 0.8305 0.8665 0.025 Uiso 1 1 calc R U
C5 C 0.0309(4) 0.66638(15) 0.91869(10) 0.0243(3) Uani 1 1 d . .
H5 H -0.0736 0.6913 0.9687 0.029 Uiso 1 1 calc R U
C6 C 0.1705(3) 0.54752(14) 0.90670(9) 0.0220(3) Uani 1 1 d . .
H6 H 0.1636 0.4919 0.9488 0.026 Uiso 1 1 calc R U
C7 C 0.5707(3) 0.19869(13) 0.86009(9) 0.0168(3) Uani 1 1 d . .
C8 C 0.5740(4) 0.08800(14) 0.90988(9) 0.0232(3) Uani 1 1 d . .
H8A H 0.4732 0.1134 0.9628 0.035 Uiso 1 1 calc R U
H8B H 0.7845 0.0710 0.9259 0.035 Uiso 1 1 calc R U
H8C H 0.4665 0.0068 0.8736 0.035 Uiso 1 1 calc R U
C9 C 0.7117(3) 0.20746(13) 0.78315(9) 0.0157(3) Uani 1 1 d . .
C10 C 0.6312(3) 0.32782(13) 0.76380(8) 0.0143(3) Uani 1 1 d . .
C11 C 0.8966(3) 0.12427(13) 0.72884(9) 0.0155(3) Uani 1 1 d . .
C12 C 0.9836(3) 0.18460(13) 0.65453(8) 0.0148(3) Uani 1 1 d . .
C13 C 0.8874(3) 0.30807(13) 0.64166(9) 0.0149(3) Uani 1 1 d . .
C14 C 0.9615(3) 0.36751(13) 0.57233(9) 0.0179(3) Uani 1 1 d . .
H14 H 0.8950 0.4516 0.5649 0.021 Uiso 1 1 calc R U
C15 C 1.1359(3) 0.29650(13) 0.51603(9) 0.0174(3) Uani 1 1 d . .
C16 C 1.2367(3) 0.17333(13) 0.52679(9) 0.0168(3) Uani 1 1 d . .
C17 C 1.1654(3) 0.11593(13) 0.59461(9) 0.0161(3) Uani 1 1 d . .
H17 H 1.2358 0.0322 0.6014 0.019 Uiso 1 1 calc R U
C18 C 1.3969(3) 0.22119(14) 0.40337(9) 0.0202(3) Uani 1 1 d . .
H18A H 1.2907 0.1783 0.3457 0.024 Uiso 1 1 calc R U
H18B H 1.6053 0.2536 0.3951 0.024 Uiso 1 1 calc R U
N1 N 0.4574(3) 0.38610(11) 0.82377(7) 0.0152(2) Uani 1 1 d . .
N2 N 0.4200(3) 0.30435(11) 0.88459(7) 0.0179(3) Uani 1 1 d . .
O1 O 0.7051(2) 0.38239(9) 0.69656(6) 0.0155(2) Uani 1 1 d . .
O2 O 0.9770(2) 0.01493(9) 0.74026(6) 0.0196(2) Uani 1 1 d . .
O3 O 1.4077(2) 0.12697(10) 0.46039(7) 0.0218(2) Uani 1 1 d . .
O4 O 1.2363(3) 0.33118(10) 0.44273(7) 0.0267(3) Uani 1 1 d . .
loop_
_atom_site_aniso_label
_atom_site_aniso_U_11
_atom_site_aniso_U_22
_atom_site_aniso_U_33
_atom_site_aniso_U_23
_atom_site_aniso_U_13
_atom_site_aniso_U_12
C1 0.0135(6) 0.0131(6) 0.0182(7) 0.0001(5) 0.0005(5) 0.0012(5)
C2 0.0247(7) 0.0202(7) 0.0201(7) 0.0042(5) 0.0074(6) 0.0073(6)
C3 0.0277(8) 0.0182(7) 0.0228(7) 0.0064(6) 0.0063(6) 0.0077(6)
C4 0.0204(7) 0.0155(6) 0.0259(7) 0.0008(6) 0.0040(6) 0.0060(5)
C5 0.0285(8) 0.0214(7) 0.0239(7) 0.0003(6) 0.0127(6) 0.0070(6)
C6 0.0274(8) 0.0199(7) 0.0214(7) 0.0065(6) 0.0095(6) 0.0050(6)
C7 0.0170(6) 0.0160(6) 0.0173(6) 0.0031(5) 0.0012(5) 0.0013(5)
C8 0.0306(8) 0.0192(7) 0.0221(7) 0.0074(6) 0.0061(6) 0.0053(6)
C9 0.0153(6) 0.0142(6) 0.0175(6) 0.0034(5) -0.0001(5) 0.0011(5)
C10 0.0132(6) 0.0133(6) 0.0156(6) 0.0012(5) 0.0009(5) 0.0005(5)
C11 0.0144(6) 0.0134(6) 0.0176(6) 0.0017(5) -0.0008(5) 0.0007(5)
C12 0.0131(6) 0.0127(6) 0.0178(6) 0.0011(5) 0.0010(5) 0.0018(5)
C13 0.0136(6) 0.0133(6) 0.0170(6) 0.0000(5) 0.0029(5) 0.0029(5)
C14 0.0207(7) 0.0124(6) 0.0223(7) 0.0042(5) 0.0059(5) 0.0059(5)
C15 0.0200(7) 0.0144(6) 0.0192(7) 0.0050(5) 0.0053(5) 0.0024(5)
C16 0.0148(6) 0.0136(6) 0.0210(7) -0.0013(5) 0.0040(5) 0.0039(5)
C17 0.0149(6) 0.0119(6) 0.0216(7) 0.0028(5) 0.0015(5) 0.0044(5)
C18 0.0239(7) 0.0163(6) 0.0220(7) 0.0031(5) 0.0086(6) 0.0082(6)
N1 0.0169(6) 0.0136(5) 0.0157(5) 0.0032(4) 0.0034(4) 0.0029(4)
N2 0.0209(6) 0.0161(5) 0.0175(6) 0.0051(4) 0.0025(5) 0.0020(5)
O1 0.0177(5) 0.0132(4) 0.0175(5) 0.0039(4) 0.0069(4) 0.0059(4)
O2 0.0242(5) 0.0133(5) 0.0228(5) 0.0054(4) 0.0025(4) 0.0064(4)
O3 0.0268(5) 0.0177(5) 0.0249(5) 0.0061(4) 0.0137(4) 0.0105(4)
O4 0.0395(6) 0.0189(5) 0.0287(6) 0.0092(4) 0.0221(5) 0.0148(5)
loop_
_atom_type_symbol
_atom_type_description
_atom_type_scat_dispersion_real
_atom_type_scat_dispersion_imag
_atom_type_scat_source
C C 0.0033 0.0016 'International Tables Vol C Tables 4.2.6.8 and 6.1.1.4'
H H 0.0000 0.0000 'International Tables Vol C Tables 4.2.6.8 and 6.1.1.4'
N N 0.0061 0.0033 'International Tables Vol C Tables 4.2.6.8 and 6.1.1.4'
O O 0.0106 0.0060 'International Tables Vol C Tables 4.2.6.8 and 6.1.1.4'
loop_
_geom_angle_atom_site_label_1
_geom_angle_atom_site_label_2
_geom_angle_atom_site_label_3
_geom_angle
C6 C1 C2 120.19(14)
C6 C1 N1 117.88(13)
C2 C1 N1 121.94(13)
C1 C2 C3 119.21(14)
C1 C2 H2 120.4
C3 C2 H2 120.4
C4 C3 C2 120.96(14)
C4 C3 H3 119.5
C2 C3 H3 119.5
C3 C4 C5 119.14(14)
C3 C4 H4 120.4
C5 C4 H4 120.4
C4 C5 C6 120.48(15)
C4 C5 H5 119.8
C6 C5 H5 119.8
C1 C6 C5 120.01(14)
C1 C6 H6 120.0
C5 C6 H6 120.0
N2 C7 C9 111.30(13)
N2 C7 C8 120.82(14)
C9 C7 C8 127.88(14)
C7 C8 H8A 109.5
C7 C8 H8B 109.5
H8A C8 H8B 109.5
C7 C8 H8C 109.5
H8A C8 H8C 109.5
H8B C8 H8C 109.5
C10 C9 C7 103.77(13)
C10 C9 C11 120.86(14)
C7 C9 C11 135.36(13)
O1 C10 N1 123.00(13)
O1 C10 C9 127.51(13)
N1 C10 C9 109.49(13)
O2 C11 C9 125.54(14)
O2 C11 C12 122.28(13)
C9 C11 C12 112.18(13)
C13 C12 C17 118.67(14)
C13 C12 C11 121.71(13)
C17 C12 C11 119.62(13)
O1 C13 C14 113.61(13)
O1 C13 C12 122.88(13)
C14 C13 C12 123.51(13)
C15 C14 C13 115.41(14)
C15 C14 H14 122.3
C13 C14 H14 122.3
C14 C15 O4 127.12(13)
C14 C15 C16 122.74(14)
O4 C15 C16 110.14(13)
C17 C16 O3 129.02(14)
C17 C16 C15 121.74(13)
O3 C16 C15 109.24(13)
C16 C17 C12 117.93(14)
C16 C17 H17 121.0
C12 C17 H17 121.0
O3 C18 O4 107.80(13)
O3 C18 H18A 110.1
O4 C18 H18A 110.1
O3 C18 H18B 110.1
O4 C18 H18B 110.1
H18A C18 H18B 108.5
C10 N1 N2 109.18(13)
C10 N1 C1 131.53(12)
N2 N1 C1 119.29(12)
C7 N2 N1 106.27(13)
C10 O1 C13 114.85(12)
C16 O3 C18 106.51(12)
C15 O4 C18 106.05(12)
loop_
_geom_bond_atom_site_label_1
_geom_bond_atom_site_label_2
_geom_bond_distance
C1 C6 1.383(2)
C1 C2 1.390(2)
C1 N1 1.428(2)
C2 C3 1.391(2)
C2 H2 0.9500
C3 C4 1.385(2)
C3 H3 0.9500
C4 C5 1.386(2)
C4 H4 0.9500
C5 C6 1.387(2)
C5 H5 0.9500
C6 H6 0.9500
C7 N2 1.320(2)
C7 C9 1.425(2)
C7 C8 1.491(2)
C8 H8A 0.9800
C8 H8B 0.9800
C8 H8C 0.9800
C9 C10 1.381(2)
C9 C11 1.438(2)
C10 O1 1.339(2)
C10 N1 1.348(2)
C11 O2 1.2335(19)
C11 C12 1.488(2)
C12 C13 1.401(2)
C12 C17 1.411(2)
C13 O1 1.3907(19)
C13 C14 1.397(2)
C14 C15 1.365(2)
C14 H14 0.9500
C15 O4 1.370(2)
C15 C16 1.396(2)
C16 C17 1.360(2)
C16 O3 1.376(2)
C17 H17 0.9500
C18 O3 1.433(2)
C18 O4 1.440(2)
C18 H18A 0.9900
C18 H18B 0.9900
N1 N2 1.396(2)
loop_
_geom_torsion_atom_site_label_1
_geom_torsion_atom_site_label_2
_geom_torsion_atom_site_label_3
_geom_torsion_atom_site_label_4
_geom_torsion
C6 C1 C2 C3 0.0(2)
N1 C1 C2 C3 -179.88(12)
C1 C2 C3 C4 -0.7(2)
C2 C3 C4 C5 0.7(2)
C3 C4 C5 C6 0.1(2)
C2 C1 C6 C5 0.7(2)
N1 C1 C6 C5 -179.40(13)
C4 C5 C6 C1 -0.8(2)
N2 C7 C9 C10 -0.12(15)
C8 C7 C9 C10 178.64(14)
N2 C7 C9 C11 -179.64(14)
C8 C7 C9 C11 -0.9(3)
C7 C9 C10 O1 -179.39(12)
C11 C9 C10 O1 0.2(2)
C7 C9 C10 N1 0.01(14)
C11 C9 C10 N1 179.62(11)
C10 C9 C11 O2 -179.17(13)
C7 C9 C11 O2 0.3(2)
C10 C9 C11 C12 0.57(17)
C7 C9 C11 C12 -179.97(14)
O2 C11 C12 C13 179.16(12)
C9 C11 C12 C13 -0.59(17)
O2 C11 C12 C17 -0.24(19)
C9 C11 C12 C17 -179.99(11)
C17 C12 C13 O1 179.26(11)
C11 C12 C13 O1 -0.15(19)
C17 C12 C13 C14 0.1(2)
C11 C12 C13 C14 -179.35(12)
O1 C13 C14 C15 -178.90(11)
C12 C13 C14 C15 0.4(2)
C13 C14 C15 O4 179.15(13)
C13 C14 C15 C16 -0.5(2)
C14 C15 C16 C17 0.2(2)
O4 C15 C16 C17 -179.49(12)
C14 C15 C16 O3 -179.71(13)
O4 C15 C16 O3 0.59(16)
O3 C16 C17 C12 -179.85(12)
C15 C16 C17 C12 0.2(2)
C13 C12 C17 C16 -0.36(19)
C11 C12 C17 C16 179.06(12)
O1 C10 N1 N2 179.53(11)
C9 C10 N1 N2 0.09(14)
O1 C10 N1 C1 -1.1(2)
C9 C10 N1 C1 179.47(12)
C6 C1 N1 C10 -175.24(13)
C2 C1 N1 C10 4.6(2)
C6 C1 N1 N2 4.08(18)
C2 C1 N1 N2 -176.07(12)
C9 C7 N2 N1 0.17(15)
C8 C7 N2 N1 -178.69(12)
C10 N1 N2 C7 -0.16(14)
C1 N1 N2 C7 -179.63(11)
N1 C10 O1 C13 179.70(11)
C9 C10 O1 C13 -0.97(19)
C14 C13 O1 C10 -179.82(11)
C12 C13 O1 C10 0.90(17)
C17 C16 O3 C18 176.50(14)
C15 C16 O3 C18 -3.58(15)
O4 C18 O3 C16 5.17(14)
C14 C15 O4 C18 -177.04(14)
C16 C15 O4 C18 2.65(15)
O3 C18 O4 C15 -4.80(15)
