#------------------------------------------------------------------------------
#$Date: 2017-09-07 09:19:16 +0300 (Thu, 07 Sep 2017) $
#$Revision: 200309 $
#$URL: file:///home/coder/svn-repositories/cod/cif/4/03/27/4032729.cif $
#------------------------------------------------------------------------------
#
# This file is available in the Crystallography Open Database (COD),
# http://www.crystallography.net/
#
# All data on this site have been placed in the public domain by the
# contributors.
#
data_4032729
loop_
_publ_author_name
'Diemoz, Kayla M.'
'Hein, Jason E.'
'Wilson, Sean O.'
'Fettinger, James C.'
'Franz, Annaliese K.'
_publ_section_title
;
 Reaction Progress Kinetics Analysis of 1,3-Disiloxanediols as
 Hydrogen-Bonding Catalysts.
;
_journal_issue                   13
_journal_name_full               'The Journal of organic chemistry'
_journal_page_first              6738
_journal_page_last               6747
_journal_paper_doi               10.1021/acs.joc.7b00875
_journal_volume                  82
_journal_year                    2017
_chemical_formula_moiety         'C40 H30 O3 Si2'
_chemical_formula_sum            'C40 H30 O3 Si2'
_chemical_formula_weight         614.82
_space_group_crystal_system      triclinic
_space_group_IT_number           1
_space_group_name_Hall           'P 1'
_space_group_name_H-M_alt        'P 1'
_symmetry_space_group_name_Hall  'P 1'
_symmetry_space_group_name_H-M   'P 1'
_atom_sites_solution_hydrogens   difmap
_audit_creation_method           SHELXL-2016/6
_cell_angle_alpha                100.2297(11)
_cell_angle_beta                 102.3187(11)
_cell_angle_gamma                96.3662(12)
_cell_formula_units_Z            1
_cell_length_a                   7.2895(6)
_cell_length_b                   9.2340(8)
_cell_length_c                   11.6572(10)
_cell_measurement_reflns_used    9945
_cell_measurement_temperature    90(2)
_cell_measurement_theta_max      31.00
_cell_measurement_theta_min      2.27
_cell_volume                     745.32(11)
_computing_cell_refinement       'SAINT (8.34a) (Bruker, 2013)'
_computing_data_collection       'Apex2 (2014.9-1) (Bruker, 2014)'
_computing_data_reduction        'SAINT (8.34a) (Bruker, 2013)'
_computing_molecular_graphics    'Bruker SHELXTL'
_computing_publication_material  'Bruker SHELXTL'
_computing_structure_refinement  'SHELXL-2016/6 (Sheldrick, 2016)'
_computing_structure_solution    'SHELXT (Sheldrick, 2014)'
_diffrn_ambient_temperature      90(2)
_diffrn_measured_fraction_theta_full 0.996
_diffrn_measured_fraction_theta_max 0.994
_diffrn_measurement_device_type  'Bruker APEX-II CCD'
_diffrn_measurement_method       '\f and \w scans'
_diffrn_radiation_type           MoK\a
_diffrn_radiation_wavelength     0.71073
_diffrn_reflns_av_R_equivalents  0.0114
_diffrn_reflns_av_unetI/netI     0.0192
_diffrn_reflns_Laue_measured_fraction_full 0.996
_diffrn_reflns_Laue_measured_fraction_max 0.994
_diffrn_reflns_limit_h_max       10
_diffrn_reflns_limit_h_min       -10
_diffrn_reflns_limit_k_max       13
_diffrn_reflns_limit_k_min       -13
_diffrn_reflns_limit_l_max       16
_diffrn_reflns_limit_l_min       -16
_diffrn_reflns_number            15271
_diffrn_reflns_point_group_measured_fraction_full 0.996
_diffrn_reflns_point_group_measured_fraction_max 0.994
_diffrn_reflns_theta_full        25.242
_diffrn_reflns_theta_max         30.998
_diffrn_reflns_theta_min         1.828
_exptl_absorpt_coefficient_mu    0.160
_exptl_absorpt_correction_T_max  0.9766
_exptl_absorpt_correction_T_min  0.9120
_exptl_absorpt_correction_type   multi-scan
_exptl_absorpt_process_details   'SADABS 2016/2 (Sheldrick, 2016)'
_exptl_crystal_colour            Colorless
_exptl_crystal_density_diffrn    1.370
_exptl_crystal_description       Block
_exptl_crystal_F_000             322
_exptl_crystal_size_max          0.266
_exptl_crystal_size_mid          0.197
_exptl_crystal_size_min          0.098
_refine_diff_density_max         0.462
_refine_diff_density_min         -0.390
_refine_diff_density_rms         0.099
_refine_ls_abs_structure_details
; 
 Refined as an inversion twin. 
;
_refine_ls_abs_structure_Flack   0.49(10)
_refine_ls_extinction_coef       0.019(4)
_refine_ls_extinction_expression Fc^*^=kFc[1+0.001xFc^2^\l^3^/sin(2\q)]^-1/4^
_refine_ls_extinction_method     'SHELXL-2016/6 (Sheldrick 2016)'
_refine_ls_goodness_of_fit_ref   1.080
_refine_ls_hydrogen_treatment    refall
_refine_ls_matrix_type           full
_refine_ls_number_parameters     528
_refine_ls_number_reflns         9305
_refine_ls_number_restraints     5
_refine_ls_restrained_S_all      1.080
_refine_ls_R_factor_all          0.0379
_refine_ls_R_factor_gt           0.0374
_refine_ls_shift/su_max          0.000
_refine_ls_shift/su_mean         0.000
_refine_ls_structure_factor_coef Fsqd
_refine_ls_weighting_details
'w=1/[\s^2^(Fo^2^)+(0.0618P)^2^+0.2194P] where P=(Fo^2^+2Fc^2^)/3'
_refine_ls_weighting_scheme      calc
_refine_ls_wR_factor_gt          0.1012
_refine_ls_wR_factor_ref         0.1018
_reflns_Friedel_coverage         1.000
_reflns_Friedel_fraction_full    0.996
_reflns_Friedel_fraction_max     0.994
_reflns_number_gt                9110
_reflns_number_total             9305
_reflns_threshold_expression     'I > 2\s(I)'
_cod_data_source_file            jo7b00875_si_002.cif
_cod_data_source_block           JF2609FP1
_cod_depositor_comments
;
The following automatic conversions were performed:

'_exptl_absorpt_correction_type' value 'Multi-scan' changed to
'multi-scan' according to
/home/data/users/saulius/crontab/automatic-downloads/current/ACS/lib/dictionaries/cif_core.dic
dictionary named 'cif_core.dic' version 2.4.2 from 2011-04-26.

Automatic conversion script
Id: cif_fix_values 4973 2017-02-22 13:04:09Z antanas 
;
_cod_database_code               4032729
_shelx_shelxl_version_number     2016/6
_shelx_space_group_comment
; 
The symmetry employed for this shelxl refinement is uniquely defined 
by the following loop, which should always be used as a source of 
symmetry information in preference to the above space-group names. 
They are only intended as comments. 
;
_shelx_estimated_absorpt_t_min   0.959
_shelx_estimated_absorpt_t_max   0.984
_shelx_res_file
; 
TITL JF2609FP1 in P1   FINAL ALL DATA NO MERGE 13FEB2017 
    JF2609FP1.res 
    created by SHELXL-2016/6 at 13:32:25 on 20-Mar-2017 
CELL 0.71073   7.2895   9.2340  11.6572 100.2297 102.3187  96.3662 
ZERR    1.00   0.0006   0.0008   0.0010   0.0011   0.0011   0.0012 
LATT -1 
SFAC C  H  O  Si 
UNIT 40  30  3  2 
OMIT  2  -1  -6 
OMIT -2   1   6 
OMIT -4   4   2 
OMIT -2   0   0 
OMIT  0  -2   1 
  
REM        109.97         36.60      12.08       0.054       1.75 
REM        121.75         36.59      11.64       0.054       1.75 
REM         78.83         28.64      10.02       0.047       1.47 
REM       6851.37      12676.19       7.86       1.000       3.52 
REM       4161.78       7015.52       6.80       0.744       4.50 
REM SADABS RUN AS P1 - NO SYMM AVERAGING 
REM COLORLESS BLOCK 
L.S. 7 
ACTA 
BOND $H 
FMAP 2 
PLAN 20 
HTAB 
WPDB -2 
TWIN 
EQIV $1 x+1, y, z 
HTAB O3 O1_$1 
CONF 
SIZE 0.098 0.197 0.266 
DFIX 0.84 0.01 O1 H1A 
DFIX 0.84 0.01 O3 H3A 
TEMP -183.000 
WGHT    0.061800    0.219400 
EXTI    0.018928 
BASF   0.49052 
FVAR       0.37914 
SI1   4    0.315139    0.516404    0.400555    11.00000    0.01235    0.01224 = 
         0.01175    0.00178    0.00363    0.00174 
SI2   4    0.708247    0.511088    0.589842    11.00000    0.01312    0.01201 = 
         0.01136    0.00172    0.00364    0.00166 
O1    3    0.125875    0.453294    0.444919    11.00000    0.01697    0.01473 = 
         0.02074    0.00204    0.00836   -0.00042 
H1A   2    0.090705    0.363420    0.439984    11.00000    0.04623 
O2    3    0.500000    0.500000    0.500000    11.00000    0.01586    0.01787 = 
         0.01244    0.00295    0.00223    0.00414 
O3    3    0.864093    0.598572    0.534869    11.00000    0.01954    0.01581 = 
         0.02142    0.00387    0.01112    0.00244 
H3A   2    0.942561    0.551229    0.508460    11.00000    0.03170 
C1    1    0.296114    0.712851    0.388288    11.00000    0.01298    0.01403 = 
         0.01385    0.00200    0.00337    0.00090 
C2    1    0.275623    0.744972    0.275086    11.00000    0.01856    0.01858 = 
         0.01549    0.00461    0.00483    0.00496 
REM AFIX  43 
H2    2    0.263621    0.661062    0.203654    11.00000    0.02817 
REM AFIX   0 
C3    1    0.264321    0.891231    0.254808    11.00000    0.02225    0.02305 = 
         0.01892    0.00981    0.00835    0.00714 
REM AFIX  43 
H3    2    0.264679    0.912337    0.172119    11.00000    0.03752 
REM AFIX   0 
C4    1    0.274657    1.005500    0.350148    11.00000    0.02041    0.01686 = 
         0.02425    0.00903    0.00582    0.00493 
REM AFIX  43 
H4    2    0.284735    1.101637    0.330781    11.00000    0.03297 
REM AFIX   0 
C5    1    0.293302    0.978896    0.467515    11.00000    0.01382    0.01294 = 
         0.02187    0.00389    0.00157    0.00064 
C6    1    0.300135    1.096849    0.566021    11.00000    0.02007    0.01329 = 
         0.02565    0.00144    0.00359    0.00282 
REM AFIX  43 
H6    2    0.306152    1.198569    0.551203    11.00000    0.03433 
REM AFIX   0 
C7    1    0.314418    1.070405    0.679082    11.00000    0.02204    0.01674 = 
         0.01992   -0.00332    0.00211    0.00197 
REM AFIX  43 
H7    2    0.318256    1.144905    0.745821    11.00000    0.03077 
REM AFIX   0 
C8    1    0.322743    0.924773    0.699739    11.00000    0.02430    0.02003 = 
         0.01737    0.00107    0.00490    0.00409 
REM AFIX  43 
H8    2    0.347489    0.905692    0.779764    11.00000    0.02432 
REM AFIX   0 
C9    1    0.317446    0.808699    0.605927    11.00000    0.01932    0.01448 = 
         0.01719    0.00292    0.00436    0.00214 
REM AFIX  43 
H9    2    0.334755    0.710912    0.621460    11.00000    0.02432 
REM AFIX   0 
C10   1    0.302305    0.831517    0.487469    11.00000    0.01281    0.01240 = 
         0.01648    0.00281    0.00243    0.00088 
C11   1    0.308443    0.399727    0.250422    11.00000    0.01387    0.01409 = 
         0.01233    0.00332    0.00314    0.00212 
C12   1    0.146915    0.297583    0.194031    11.00000    0.01717    0.01603 = 
         0.01649    0.00276    0.00225    0.00084 
REM AFIX  43 
H12   2    0.036253    0.293049    0.224505    11.00000    0.02011 
REM AFIX   0 
C13   1    0.130307    0.202277    0.081095    11.00000    0.02411    0.01760 = 
         0.01505   -0.00299    0.00018   -0.00184 
REM AFIX  43 
H13   2    0.018497    0.136838    0.054650    11.00000    0.02495 
REM AFIX   0 
C14   1    0.276625    0.209748    0.025247    11.00000    0.02894    0.02006 = 
         0.01524   -0.00101    0.00486    0.00259 
REM AFIX  43 
H14   2    0.267740    0.135380   -0.045646    11.00000    0.03620 
REM AFIX   0 
C15   1    0.443914    0.314306    0.076953    11.00000    0.02055    0.02084 = 
         0.01291    0.00316    0.00309    0.00656 
C16   1    0.595390    0.327662    0.017637    11.00000    0.02733    0.02929 = 
         0.01665    0.00409    0.00990    0.00997 
REM AFIX  43 
H16   2    0.585143    0.258840   -0.060034    11.00000    0.03307 
REM AFIX   0 
C17   1    0.752971    0.432011    0.066272    11.00000    0.02014    0.03506 = 
         0.01970    0.00980    0.00897    0.00929 
REM AFIX  43 
H17   2    0.851677    0.442000    0.029363    11.00000    0.01989 
REM AFIX   0 
C18   1    0.769663    0.529934    0.177748    11.00000    0.01678    0.02658 = 
         0.01806    0.00735    0.00424    0.00400 
REM AFIX  43 
H18   2    0.873671    0.605381    0.210561    11.00000    0.02094 
REM AFIX   0 
C19   1    0.627351    0.519435    0.238158    11.00000    0.01631    0.01884 = 
         0.01532    0.00443    0.00332    0.00251 
REM AFIX  43 
H19   2    0.638777    0.579944    0.313439    11.00000    0.01313 
REM AFIX   0 
C20   1    0.460164    0.411807    0.189717    11.00000    0.01663    0.01609 = 
         0.01157    0.00319    0.00324    0.00366 
C21   1    0.720652    0.627514    0.741000    11.00000    0.01547    0.01304 = 
         0.01328    0.00136    0.00266    0.00265 
C22   1    0.886741    0.727178    0.792870    11.00000    0.01694    0.01512 = 
         0.01512    0.00150    0.00313    0.00109 
REM AFIX  43 
H22   2    0.990673    0.738739    0.747026    11.00000    0.01932 
REM AFIX   0 
C23   1    0.915451    0.820782    0.907506    11.00000    0.02239    0.01788 = 
         0.01932    0.00067    0.00186   -0.00090 
REM AFIX  43 
H23   2    1.046563    0.890027    0.950547    11.00000    0.02538 
REM AFIX   0 
C24   1    0.775731    0.816007    0.969433    11.00000    0.02693    0.01799 = 
         0.01426   -0.00271    0.00170    0.00148 
REM AFIX  43 
H24   2    0.796419    0.872038    1.044155    11.00000    0.01285 
REM AFIX   0 
C25   1    0.603573    0.714302    0.921623    11.00000    0.02196    0.01770 = 
         0.01226    0.00187    0.00520    0.00548 
C26   1    0.458517    0.705708    0.985746    11.00000    0.02506    0.02700 = 
         0.01375    0.00329    0.00703    0.01004 
REM AFIX  43 
H26   2    0.484802    0.769578    1.063279    11.00000    0.02279 
REM AFIX   0 
C27   1    0.296744    0.603800    0.941331    11.00000    0.02321    0.03704 = 
         0.01747    0.00919    0.01015    0.01063 
REM AFIX  43 
H27   2    0.199560    0.596725    0.990003    11.00000    0.04112 
REM AFIX   0 
C28   1    0.270822    0.505978    0.829304    11.00000    0.01613    0.02980 = 
         0.01956    0.00708    0.00513    0.00207 
REM AFIX  43 
H28   2    0.155586    0.441363    0.801066    11.00000    0.04487 
REM AFIX   0 
C29   1    0.407229    0.512694    0.764505    11.00000    0.01605    0.02202 = 
         0.01322    0.00411    0.00316    0.00154 
REM AFIX  43 
H29   2    0.387672    0.435039    0.682545    11.00000    0.02884 
REM AFIX   0 
C30   1    0.576996    0.617572    0.807587    11.00000    0.01580    0.01513 = 
         0.01300    0.00310    0.00327    0.00385 
C31   1    0.753930    0.320112    0.607364    11.00000    0.01305    0.01352 = 
         0.01521    0.00283    0.00286    0.00164 
C32   1    0.780911    0.288487    0.721503    11.00000    0.01745    0.01743 = 
         0.01635    0.00445    0.00266    0.00285 
REM AFIX  43 
H32   2    0.783310    0.361031    0.789519    11.00000    0.02603 
REM AFIX   0 
C33   1    0.811842    0.146616    0.743093    11.00000    0.02237    0.02155 = 
         0.02183    0.01064    0.00550    0.00596 
REM AFIX  43 
H33   2    0.827176    0.123194    0.823073    11.00000    0.01032 
REM AFIX   0 
C34   1    0.816216    0.034067    0.650997    11.00000    0.02027    0.01820 = 
         0.02585    0.01021    0.00582    0.00576 
REM AFIX  43 
H34   2    0.833274   -0.062034    0.661753    11.00000    0.02624 
REM AFIX   0 
C35   1    0.791262    0.059016    0.532392    11.00000    0.01548    0.01386 = 
         0.01903    0.00421    0.00447    0.00258 
C36   1    0.797814   -0.057486    0.435985    11.00000    0.01986    0.01431 = 
         0.02525    0.00287    0.00642    0.00433 
REM AFIX  43 
H36   2    0.821596   -0.148238    0.453729    11.00000    0.01604 
REM AFIX   0 
C37   1    0.771827   -0.034337    0.321112    11.00000    0.02170    0.01683 = 
         0.02339   -0.00101    0.00479    0.00304 
REM AFIX  43 
H37   2    0.775522   -0.111595    0.252744    11.00000    0.01813 
REM AFIX   0 
C38   1    0.739500    0.106674    0.297033    11.00000    0.02207    0.01717 = 
         0.01833    0.00031    0.00551    0.00107 
REM AFIX  43 
H38   2    0.728742    0.130836    0.212569    11.00000    0.02369 
REM AFIX   0 
C39   1    0.734319    0.221949    0.389276    11.00000    0.01651    0.01578 = 
         0.01517    0.00292    0.00350    0.00105 
REM AFIX  43 
H39   2    0.711634    0.311578    0.366817    11.00000    0.03156 
REM AFIX   0 
C40   1    0.759912    0.201910    0.509844    11.00000    0.01224    0.01286 = 
         0.01515    0.00211    0.00324    0.00163 
HKLF 4 
  
  
  
  
REM  JF2609FP1 in P1   FINAL ALL DATA NO MERGE 13FEB2017 
REM R1 =  0.0374 for    9110 Fo > 4sig(Fo)  and  0.0379 for all    9305 data 
REM    528 parameters refined using      5 restraints 
  
END 
  
WGHT      0.0618      0.2194 
  
REM Instructions for potential hydrogen bonds 
HTAB O3 O1_$1 
  
REM Highest difference peak  0.462,  deepest hole -0.390,  1-sigma level  0.099 
Q1    1   0.7569  0.2972  0.6612  11.00000  0.05    0.46 
Q2    1   0.2972  0.9073  0.4721  11.00000  0.05    0.45 
Q3    1   0.7554  0.2532  0.5609  11.00000  0.05    0.45 
Q4    1   0.7533  0.1259  0.5180  11.00000  0.05    0.45 
Q5    1   0.3000  0.7772  0.4374  11.00000  0.05    0.44 
Q6    1   0.3093  0.9938  0.6855  11.00000  0.05    0.44 
Q7    1   0.2963  0.7335  0.3381  11.00000  0.05    0.44 
Q8    1   0.7647  0.0415  0.3220  11.00000  0.05    0.43 
Q9    1   0.7163  0.4079  0.5966  11.00000  0.05    0.40 
Q10   1   0.4991  0.5646  0.7892  11.00000  0.05    0.40 
Q11   1   0.5080  0.7109  0.9413  11.00000  0.05    0.38 
Q12   1   0.7608 -0.0409  0.3766  11.00000  0.05    0.38 
Q13   1   0.3126  0.6233  0.3902  11.00000  0.05    0.37 
Q14   1   0.2756  0.8195  0.5430  11.00000  0.05    0.35 
Q15   1   0.2805  1.0257  0.5213  11.00000  0.05    0.35 
Q16   1   0.7831  0.2088  0.7180  11.00000  0.05    0.35 
Q17   1   0.5340  0.3197  0.0515  11.00000  0.05    0.34 
Q18   1   0.6814  0.5204  0.2035  11.00000  0.05    0.33 
Q19   1   0.2820  1.0667  0.6206  11.00000  0.05    0.33 
Q20   1   0.5528  0.4607  0.4591  11.00000  0.05    0.32 
;
_shelx_res_checksum              55800
_shelx_hkl_file
; 
  -1   0   0  203.95    2.40 
  -1   0   0  202.99    2.47 
  -1   0   0  197.96    2.33 
  -1   0   0  206.23    2.44 
   1   0   0  199.21    2.30 
  -2   0   0  752.34   10.11 
   2   0   0  927.40   12.17 
  -3   0   0   25.80    0.40 
  -3   0   0   25.51    0.41 
  -3   0   0   26.38    0.35 
   3   0   0   25.70    0.41 
   3   0   0   25.15    0.36 
  -4   0   0  298.65    3.42 
  -4   0   0  293.41    3.63 
  -4   0   0  300.21    3.50 
   4   0   0  278.78    3.26 
   4   0   0  282.04    3.18 
  -5   0   0  127.84    1.66 
  -5   0   0  127.95    1.51 
  -5   0   0  128.74    1.63 
   5   0   0  124.89    1.62 
   5   0   0  125.50    1.52 
  -6   0   0  121.64    1.64 
  -6   0   0  119.98    1.59 
   6   0   0  120.33    1.62 
   6   0   0  120.13    1.49 
  -7   0   0   94.62    1.35 
  -7   0   0   93.88    1.40 
   7   0   0   90.92    1.35 
  -8   0   0    6.82    0.27 
  -8   0   0    6.70    0.29 
   8   0   0    7.09    0.30 
  -9   0   0    3.14    0.22 
  -9   0   0    2.76    0.20 
   9   0   0    2.51    0.20 
 -10   0   0   10.02    0.42 
 -10   0   0   10.14    0.39 
  10   0   0    9.46    0.40 
  10  -1   0    0.58    0.13 
 -10   1   0    0.88    0.15 
 -10   1   0    1.15    0.16 
   9  -1   0    0.68    0.13 
  -9   1   0    0.92    0.13 
  -9   1   0    1.03    0.14 
   8  -1   0    2.96    0.20 
  -8   1   0    3.02    0.20 
  -8   1   0    3.31    0.19 
   7  -1   0   21.60    0.51 
  -7   1   0   21.77    0.52 
  -7   1   0   22.44    0.49 
   6  -1   0    6.72    0.25 
   6  -1   0    6.53    0.20 
  -6   1   0    6.71    0.23 
  -6   1   0    6.47    0.24 
   5  -1   0    8.47    0.25 
   5  -1   0    8.36    0.21 
  -5   1   0    8.75    0.26 
  -5   1   0    9.10    0.24 
   4  -1   0   22.39    0.41 
   4  -1   0   21.78    0.36 
  -4   1   0   22.32    0.39 
  -4   1   0   22.86    0.42 
   3  -1   0  142.79    1.67 
   3  -1   0  143.14    1.71 
  -3   1   0  145.65    1.75 
  -3   1   0  147.11    1.72 
   2  -1   0   35.33    0.46 
  -2   1   0   35.52    0.48 
  -2   1   0   36.01    0.47 
  -2   1   0   35.18    0.48 
   1  -1   0   43.56    0.53 
  -1   1   0   44.15    0.54 
  -1   1   0   44.87    0.54 
  -1   1   0   44.54    0.53 
   0  -1   0  206.13    2.41 
   0  -1   0  201.13    2.43 
   0   1   0  205.96    2.48 
   0   1   0  208.41    2.47 
  -1  -1   0  303.52    3.66 
  -1  -1   0  299.56    3.53 
  -1  -1   0  315.51    3.61 
  -1  -1   0  302.13    3.63 
   1   1   0  344.37    3.97 
  -2  -1   0  387.09    4.45 
  -2  -1   0  389.61    4.60 
  -2  -1   0  374.05    4.51 
   2   1   0  406.75    4.73 
  -3  -1   0  238.80    2.77 
  -3  -1   0  240.66    2.78 
  -3  -1   0  239.80    2.76 
   3   1   0  242.41    2.78 
  -4  -1   0  102.61    1.33 
  -4  -1   0  102.48    1.31 
  -4  -1   0  102.42    1.25 
   4   1   0  104.62    1.23 
   4   1   0  100.35    1.31 
  -5  -1   0   98.48    1.33 
  -5  -1   0   97.76    1.22 
  -5  -1   0   97.97    1.30 
   5   1   0   96.05    1.29 
   5   1   0   96.16    1.18 
  -6  -1   0   11.62    0.34 
  -6  -1   0   12.17    0.32 
   6   1   0   11.42    0.32 
  -7  -1   0   17.13    0.45 
  -7  -1   0   17.54    0.43 
   7   1   0   16.40    0.43 
  -8  -1   0   20.62    0.54 
  -8  -1   0   20.35    0.51 
   8   1   0   19.05    0.51 
  -9  -1   0    1.61    0.16 
  -9  -1   0    1.24    0.15 
   9   1   0    1.52    0.17 
 -10  -1   0   11.20    0.42 
 -10  -1   0   10.97    0.45 
  10   1   0    9.81    0.41 
  10  -2   0    6.29    0.34 
 -10   2   0    7.03    0.35 
   9  -2   0    2.98    0.22 
  -9   2   0    3.24    0.22 
  -9   2   0    3.18    0.20 
   8  -2   0   11.09    0.38 
  -8   2   0   11.34    0.35 
  -8   2   0   11.91    0.40 
   7  -2   0   13.30    0.39 
   7  -2   0   12.95    0.33 
  -7   2   0   13.54    0.39 
  -7   2   0   12.94    0.35 
   6  -2   0   39.44    0.63 
   6  -2   0   38.79    0.70 
  -6   2   0   41.39    0.73 
  -6   2   0   41.35    0.68 
   5  -2   0    8.13    0.22 
   5  -2   0    8.55    0.25 
  -5   2   0    8.57    0.25 
  -5   2   0    8.18    0.23 
   4  -2   0   29.28    0.47 
   4  -2   0   29.35    0.50 
  -4   2   0   30.93    0.49 
  -4   2   0   31.17    0.52 
   3  -2   0    1.55    0.08 
   3  -2   0    1.64    0.09 
  -3   2   0    1.69    0.08 
  -3   2   0    1.61    0.08 
   2  -2   0   71.86    0.89 
  -2   2   0   73.23    0.90 
  -2   2   0   73.49    0.89 
  -2   2   0   72.63    0.91 
   1  -2   0  135.00    1.55 
   1  -2   0  133.35    1.63 
  -1   2   0  132.57    1.49 
  -1   2   0  131.12    1.65 
  -1   2   0  131.86    1.66 
   0  -2   0  140.11    1.62 
   0  -2   0  144.62    1.70 
   0   2   0  166.03    1.99 
   0   2   0  150.14    1.98 
  -1  -2   0    1.58    0.07 
  -1  -2   0    1.52    0.06 
  -1  -2   0    1.71    0.06 
   1   2   0    1.65    0.07 
   1   2   0    1.67    0.04 
  -2  -2   0   92.94    1.08 
  -2  -2   0   91.48    1.12 
  -2  -2   0   89.54    1.12 
  -2  -2   0   93.09    1.12 
   2   2   0   88.97    1.06 
  -3  -2   0   56.41    0.70 
  -3  -2   0   55.38    0.77 
  -3  -2   0   56.46    0.75 
  -3  -2   0   54.46    0.76 
   3   2   0   55.03    0.73 
  -4  -2   0    8.88    0.22 
  -4  -2   0    8.87    0.24 
  -4  -2   0    9.55    0.19 
  -4  -2   0    8.58    0.24 
   4   2   0    9.21    0.23 
  -5  -2   0   23.22    0.42 
  -5  -2   0   23.52    0.46 
  -5  -2   0   23.87    0.48 
   5   2   0   23.79    0.38 
   5   2   0   22.85    0.45 
  -6  -2   0    1.63    0.11 
  -6  -2   0    1.60    0.12 
  -6  -2   0    1.85    0.14 
   6   2   0    1.75    0.13 
  -7  -2   0    1.76    0.14 
  -7  -2   0    1.88    0.15 
   7   2   0    1.70    0.14 
  -8  -2   0    1.79    0.16 
  -8  -2   0    1.96    0.16 
   8   2   0    1.71    0.16 
  -9  -2   0    3.91    0.25 
  -9  -2   0    4.87    0.26 
   9   2   0    4.31    0.25 
  10  -3   0   11.95    0.47 
 -10   3   0   12.95    0.48 
   9  -3   0    1.63    0.17 
  -9   3   0    1.67    0.17 
  -9   3   0    1.45    0.15 
   8  -3   0    0.79    0.13 
  -8   3   0    0.71    0.11 
  -8   3   0    0.87    0.14 
   7  -3   0    1.00    0.10 
   7  -3   0    0.92    0.12 
  -7   3   0    1.03    0.12 
  -7   3   0    1.14    0.11 
   6  -3   0   21.24    0.48 
   6  -3   0   21.83    0.44 
  -6   3   0   21.93    0.48 
  -6   3   0   21.32    0.43 
   5  -3   0   82.30    1.12 
   5  -3   0   83.09    1.16 
  -5   3   0   83.52    1.12 
  -5   3   0   84.98    1.18 
   4  -3   0    5.99    0.19 
   4  -3   0    5.94    0.18 
  -4   3   0    6.55    0.18 
  -4   3   0    5.87    0.19 
   3  -3   0   35.66    0.54 
   3  -3   0   36.08    0.55 
  -3   3   0   36.84    0.53 
  -3   3   0   36.58    0.56 
   2  -3   0   20.09    0.34 
   2  -3   0   19.25    0.31 
   2  -3   0   20.25    0.27 
  -2   3   0   20.30    0.34 
  -2   3   0   19.88    0.32 
   1  -3   0   30.95    0.45 
   1  -3   0   31.18    0.40 
   1  -3   0   31.41    0.42 
  -1   3   0   31.03    0.44 
  -1   3   0   31.75    0.45 
   0  -3   0  100.40    1.20 
   0  -3   0  100.71    1.21 
   0   3   0   99.87    1.20 
   0   3   0  100.29    1.20 
  -1  -3   0   28.53    0.43 
  -1  -3   0   29.03    0.41 
  -1  -3   0   29.09    0.44 
   1   3   0   28.44    0.42 
  -2  -3   0   76.73    1.00 
  -2  -3   0   78.31    0.95 
  -2  -3   0   76.91    1.00 
   2   3   0   77.05    0.91 
   2   3   0   75.44    0.99 
  -3  -3   0   24.45    0.43 
  -3  -3   0   24.48    0.43 
  -3  -3   0   24.82    0.37 
   3   3   0   25.15    0.44 
   3   3   0   24.54    0.38 
  -4  -3   0    2.67    0.13 
  -4  -3   0    2.42    0.12 
  -4  -3   0    2.34    0.12 
  -4  -3   0    2.40    0.09 
   4   3   0    2.37    0.11 
  -5  -3   0   25.46    0.50 
  -5  -3   0   24.52    0.47 
  -5  -3   0   24.46    0.50 
   5   3   0   23.37    0.45 
  -6  -3   0    0.07    0.05 
  -6  -3   0    0.10    0.05 
  -6  -3   0    0.12    0.06 
   6   3   0    0.14    0.05 
  -7  -3   0    0.87    0.11 
  -7  -3   0    0.75    0.11 
   7   3   0    0.85    0.12 
  -8  -3   0    0.61    0.13 
  -8  -3   0    0.37    0.10 
   8   3   0    0.41    0.10 
  -9  -3   0    1.87    0.18 
   9   3   0    2.04    0.20 
  10  -4   0    5.67    0.32 
 -10   4   0    6.10    0.33 
   9  -4   0    4.48    0.27 
  -9   4   0    4.28    0.26 
  -9   4   0    4.26    0.23 
   8  -4   0   17.85    0.49 
   8  -4   0   17.37    0.50 
  -8   4   0   17.97    0.50 
  -8   4   0   18.83    0.46 
   7  -4   0    4.09    0.22 
   7  -4   0    4.21    0.20 
  -7   4   0    4.30    0.19 
  -7   4   0    4.32    0.22 
   6  -4   0    9.24    0.30 
   6  -4   0    9.37    0.28 
  -6   4   0    9.65    0.27 
  -6   4   0    9.31    0.30 
   5  -4   0   24.31    0.49 
   5  -4   0   24.72    0.48 
  -5   4   0   24.00    0.45 
  -5   4   0   24.78    0.49 
   4  -4   0   14.90    0.33 
   4  -4   0   15.03    0.33 
  -4   4   0   15.29    0.34 
  -4   4   0   15.16    0.31 
   3  -4   0    0.94    0.08 
   3  -4   0    1.01    0.07 
   3  -4   0    0.93    0.04 
  -3   4   0    0.87    0.06 
  -3   4   0    0.92    0.07 
   2  -4   0   58.09    0.81 
   2  -4   0   57.84    0.73 
   2  -4   0   59.39    0.75 
  -2   4   0   60.23    0.79 
  -2   4   0   58.71    0.81 
   1  -4   0   72.39    0.90 
   1  -4   0   72.56    0.85 
   1  -4   0   69.63    0.94 
  -1   4   0   73.37    0.92 
  -1   4   0   71.41    0.94 
   0  -4   0  112.24    1.38 
   0  -4   0  113.67    1.38 
   0   4   0  113.48    1.39 
   0   4   0  115.43    1.40 
  -1  -4   0    1.47    0.08 
  -1  -4   0    1.59    0.08 
  -1  -4   0    1.41    0.08 
   1   4   0    1.41    0.08 
  -2  -4   0    1.75    0.10 
  -2  -4   0    1.65    0.10 
  -2  -4   0    1.82    0.08 
   2   4   0    1.74    0.06 
   2   4   0    1.70    0.10 
  -3  -4   0   27.79    0.43 
  -3  -4   0   28.30    0.50 
   3   4   0   27.75    0.50 
   3   4   0   27.37    0.41 
  -4  -4   0    1.23    0.10 
  -4  -4   0    1.12    0.07 
  -4  -4   0    1.13    0.10 
   4   4   0    1.07    0.08 
   4   4   0    1.15    0.10 
  -5  -4   0    8.01    0.26 
  -5  -4   0    8.29    0.27 
   5   4   0    8.13    0.24 
   5   4   0    8.06    0.28 
  -6  -4   0    0.84    0.10 
  -6  -4   0    0.86    0.10 
   6   4   0    0.86    0.11 
   6   4   0    0.93    0.10 
  -7  -4   0    0.38    0.10 
   7   4   0    0.24    0.08 
  -8  -4   0    0.20    0.09 
   8   4   0    0.20    0.09 
  -9  -4   0    0.07    0.08 
   9   4   0   -0.05    0.07 
  10  -5   0    1.47    0.19 
 -10   5   0    2.04    0.21 
   9  -5   0    2.43    0.21 
  -9   5   0    2.88    0.22 
   8  -5   0    0.27    0.09 
   8  -5   0    0.21    0.08 
  -8   5   0    0.27    0.08 
  -8   5   0    0.36    0.09 
   7  -5   0    3.30    0.20 
   7  -5   0    3.67    0.20 
  -7   5   0    3.33    0.20 
  -7   5   0    3.54    0.18 
   6  -5   0    3.38    0.18 
  -6   5   0    2.64    0.16 
  -6   5   0    3.24    0.16 
   5  -5   0    0.50    0.08 
   5  -5   0    0.39    0.07 
  -5   5   0    0.55    0.08 
  -5   5   0    0.45    0.06 
   4  -5   0    7.37    0.24 
   4  -5   0    7.28    0.22 
  -4   5   0    7.49    0.21 
  -4   5   0    7.52    0.23 
   3  -5   0    2.81    0.14 
   3  -5   0    2.64    0.09 
   3  -5   0    2.86    0.12 
  -3   5   0    2.80    0.12 
  -3   5   0    2.53    0.12 
   2  -5   0   15.18    0.33 
   2  -5   0   14.97    0.28 
   2  -5   0   15.54    0.27 
  -2   5   0   15.63    0.31 
  -2   5   0   16.09    0.33 
   1  -5   0   66.59    0.92 
   1  -5   0   67.38    0.89 
   1  -5   0   67.41    0.80 
  -1   5   0   66.61    0.89 
  -1   5   0   65.45    0.90 
   0  -5   0   60.06    0.83 
   0  -5   0   60.35    0.83 
   0   5   0   59.25    0.83 
   0   5   0   60.41    0.82 
  -1  -5   0   25.38    0.45 
  -1  -5   0   25.58    0.45 
  -1  -5   0   25.53    0.43 
   1   5   0   24.53    0.44 
  -3  -5   0   37.00    0.65 
  -3  -5   0   38.58    0.57 
   3   5   0   37.37    0.64 
  -4  -5   0    0.18    0.06 
  -4  -5   0    0.27    0.07 
   4   5   0    0.31    0.07 
  -5  -5   0    6.28    0.25 
  -5  -5   0    6.98    0.26 
   5   5   0    5.84    0.24 
  -6  -5   0    1.77    0.15 
  -6  -5   0    1.78    0.14 
   6   5   0    1.84    0.15 
  -7  -5   0    0.92    0.13 
  -7  -5   0    1.12    0.13 
   7   5   0    0.75    0.14 
  -8  -5   0    1.28    0.16 
   8   5   0    1.13    0.16 
   9  -6   0    4.84    0.29 
  -9   6   0    4.56    0.27 
   8  -6   0    2.42    0.18 
   8  -6   0    2.07    0.18 
  -8   6   0    2.48    0.19 
  -8   6   0    1.92    0.15 
   7  -6   0    0.89    0.12 
   7  -6   0    0.88    0.12 
  -7   6   0    0.82    0.12 
  -7   6   0    1.01    0.11 
   6  -6   0    0.79    0.10 
   6  -6   0    0.73    0.10 
  -6   6   0    0.83    0.09 
  -6   6   0    0.72    0.10 
   5  -6   0    0.97    0.11 
   5  -6   0    0.95    0.10 
  -5   6   0    1.05    0.11 
  -5   6   0    1.26    0.10 
   4  -6   0    7.29    0.25 
   4  -6   0    7.86    0.23 
  -4   6   0    7.85    0.23 
  -4   6   0    7.85    0.25 
   3  -6   0    4.14    0.13 
   3  -6   0    4.23    0.18 
   3  -6   0    4.00    0.14 
  -3   6   0    3.87    0.17 
  -3   6   0    4.26    0.16 
   2  -6   0   14.23    0.29 
   2  -6   0   14.43    0.34 
   2  -6   0   14.11    0.26 
  -2   6   0   14.99    0.32 
  -2   6   0   14.38    0.33 
   1  -6   0    3.78    0.16 
   1  -6   0    3.64    0.14 
  -1   6   0    3.60    0.15 
  -1   6   0    3.60    0.15 
   0  -6   0   27.54    0.49 
   0  -6   0   27.09    0.49 
   0   6   0   28.09    0.49 
   0   6   0   28.57    0.51 
  -1  -6   0   41.51    0.69 
  -1  -6   0   42.69    0.65 
   1   6   0   43.14    0.69 
   1   6   0   43.15    0.69 
  -2  -6   0    0.30    0.06 
  -2  -6   0    0.26    0.06 
  -2  -6   0    0.26    0.07 
   2   6   0    0.41    0.08 
  -3  -6   0   38.40    0.69 
  -3  -6   0   39.62    0.61 
  -3  -6   0   38.40    0.68 
   3   6   0   37.89    0.67 
  -5  -6   0   17.56    0.46 
  -5  -6   0   18.06    0.46 
   5   6   0   17.81    0.47 
  -6  -6   0    0.23    0.08 
  -6  -6   0    0.40    0.10 
   6   6   0    0.29    0.09 
  -7  -6   0    0.03    0.07 
  -7  -6   0   -0.03    0.05 
   7   6   0   -0.06    0.05 
  -8  -6   0    0.65    0.15 
   8   6   0    0.50    0.14 
   9  -7   0    8.16    0.36 
   9  -7   0    7.63    0.36 
  -9   7   0    7.48    0.35 
   8  -7   0    2.24    0.19 
   8  -7   0    2.42    0.19 
  -8   7   0    2.16    0.18 
   7  -7   0    9.59    0.34 
   7  -7   0    9.89    0.35 
  -7   7   0   10.63    0.33 
  -7   7   0   11.28    0.38 
   6  -7   0    0.04    0.06 
   6  -7   0    0.06    0.06 
  -6   7   0    0.12    0.06 
  -6   7   0    0.00    0.05 
   5  -7   0   22.80    0.53 
   5  -7   0   24.07    0.49 
  -5   7   0   23.84    0.49 
  -5   7   0   24.26    0.53 
   4  -7   0   10.33    0.32 
   4  -7   0   10.66    0.28 
  -4   7   0   10.87    0.29 
  -4   7   0   10.77    0.32 
   3  -7   0   46.60    0.80 
   3  -7   0   46.95    0.68 
   3  -7   0   47.09    0.69 
  -3   7   0   48.27    0.76 
  -3   7   0   47.15    0.78 
   2  -7   0   59.60    0.86 
  -2   7   0   61.26    0.91 
  -2   7   0   62.21    0.93 
   1  -7   0    9.79    0.28 
   1  -7   0    9.95    0.27 
  -1   7   0    9.94    0.27 
  -1   7   0   10.54    0.29 
   0  -7   0   21.50    0.44 
   0  -7   0   21.19    0.44 
   0   7   0   22.21    0.45 
   0   7   0   22.37    0.45 
  -1  -7   0   23.93    0.49 
  -1  -7   0   23.82    0.46 
   1   7   0   24.37    0.49 
   1   7   0   23.85    0.48 
  -2  -7   0    7.27    0.26 
  -2  -7   0    7.53    0.23 
   2   7   0    7.73    0.26 
   2   7   0    7.64    0.26 
  -3  -7   0   56.27    0.92 
  -3  -7   0   57.19    0.94 
   3   7   0   54.15    0.90 
  -4  -7   0    7.91    0.30 
  -4  -7   0    8.02    0.29 
   4   7   0    7.51    0.29 
  -5  -7   0   25.42    0.59 
  -5  -7   0   24.66    0.59 
   5   7   0   23.49    0.57 
  -6  -7   0    9.33    0.36 
  -6  -7   0    9.52    0.36 
   6   7   0    8.96    0.36 
  -7  -7   0    5.21    0.28 
  -7  -7   0    4.90    0.28 
   7   7   0    4.60    0.28 
   9  -8   0    4.66    0.28 
   9  -8   0    5.02    0.29 
  -9   8   0    5.36    0.30 
   8  -8   0    1.97    0.19 
   8  -8   0    1.47    0.16 
  -8   8   0    1.82    0.18 
   7  -8   0    2.07    0.17 
   7  -8   0    2.05    0.18 
  -7   8   0    2.51    0.19 
  -7   8   0    2.38    0.22 
   6  -8   0    1.55    0.15 
   6  -8   0    1.50    0.14 
  -6   8   0    1.50    0.13 
  -6   8   0    1.58    0.15 
   5  -8   0   15.63    0.38 
   5  -8   0   15.22    0.45 
  -5   8   0   15.82    0.39 
  -5   8   0   15.79    0.43 
   4  -8   0    4.13    0.22 
  -4   8   0    4.45    0.22 
  -4   8   0    5.90    0.22 
   3  -8   0   60.98    0.88 
  -3   8   0   60.28    0.92 
  -3   8   0   58.61    0.95 
   2  -8   0    4.17    0.20 
   2  -8   0    4.70    0.19 
  -2   8   0    4.56    0.20 
  -2   8   0    4.55    0.19 
   1  -8   0   10.94    0.31 
   1  -8   0   10.54    0.32 
  -1   8   0   10.97    0.32 
  -1   8   0   11.01    0.31 
   0  -8   0    2.62    0.15 
   0  -8   0    2.10    0.14 
   0   8   0    3.10    0.16 
   0   8   0    2.61    0.15 
  -1  -8   0    7.40    0.25 
  -1  -8   0    8.24    0.28 
   1   8   0    8.02    0.27 
   1   8   0    7.84    0.27 
  -2  -8   0    0.55    0.11 
  -2  -8   0    0.47    0.09 
   2   8   0    0.59    0.11 
   2   8   0    0.48    0.09 
  -3  -8   0    5.66    0.26 
   3   8   0    5.24    0.24 
  -4  -8   0    4.04    0.22 
  -4  -8   0    4.03    0.23 
   4   8   0    4.72    0.24 
  -5  -8   0   20.07    0.53 
  -5  -8   0   18.41    0.52 
   5   8   0   18.25    0.52 
  -6  -8   0   27.61    0.67 
  -6  -8   0   28.29    0.69 
   6   8   0   26.10    0.67 
  -7  -8   0   17.95    0.55 
  -7  -8   0   16.42    0.52 
   7   8   0   16.19    0.53 
   8  -9   0    5.65    0.31 
  -8   9   0    5.86    0.31 
   7  -9   0    6.94    0.33 
  -7   9   0    6.95    0.32 
   6  -9   0    2.34    0.19 
  -6   9   0    2.59    0.19 
  -6   9   0    2.67    0.18 
   5  -9   0   19.84    0.54 
  -5   9   0   21.22    0.49 
  -5   9   0   20.42    0.52 
   4  -9   0    0.86    0.12 
  -4   9   0    0.91    0.11 
  -4   9   0    0.87    0.11 
   3  -9   0   24.00    0.57 
  -3   9   0   24.84    0.53 
  -3   9   0   24.97    0.55 
   2  -9   0    1.40    0.12 
   2  -9   0    1.53    0.14 
  -2   9   0    1.97    0.14 
  -2   9   0    1.62    0.14 
   1  -9   0    3.09    0.18 
   1  -9   0    2.55    0.16 
  -1   9   0    2.85    0.17 
  -1   9   0    2.70    0.17 
   0  -9   0   76.33    1.17 
   0  -9   0   75.57    1.16 
   0   9   0   75.18    1.17 
   0   9   0   77.27    1.16 
  -1  -9   0   18.19    0.47 
  -1  -9   0   17.97    0.44 
   1   9   0   18.75    0.47 
   1   9   0   18.04    0.46 
  -2  -9   0   50.04    0.84 
  -2  -9   0   48.60    0.90 
   2   9   0   46.49    0.85 
   2   9   0   47.47    0.85 
   3   9   0    2.85    0.20 
   3   9   0    2.97    0.20 
  -4  -9   0   16.14    0.49 
   4   9   0   15.88    0.48 
   4   9   0   15.07    0.46 
  -5  -9   0    2.81    0.21 
  -5  -9   0    2.53    0.20 
   5   9   0    2.14    0.19 
  -6  -9   0   12.05    0.45 
   6   9   0   12.43    0.46 
   7 -10   0   38.13    0.87 
  -7  10   0   40.16    0.86 
   6 -10   0    0.76    0.14 
  -6  10   0    1.13    0.15 
   5 -10   0   37.20    0.81 
  -5  10   0   38.80    0.74 
  -5  10   0   37.71    0.78 
   4 -10   0    8.14    0.34 
  -4  10   0    7.89    0.31 
  -4  10   0    8.03    0.30 
   3 -10   0   20.63    0.55 
  -3  10   0   22.07    0.53 
  -3  10   0   20.99    0.50 
   2 -10   0   17.76    0.49 
   2 -10   0   18.54    0.45 
  -2  10   0   19.23    0.48 
  -2  10   0   18.12    0.48 
   1 -10   0   48.06    0.85 
   1 -10   0   47.43    0.87 
  -1  10   0   48.86    0.87 
  -1  10   0   48.55    0.87 
   0 -10   0  118.41    1.68 
   0 -10   0  118.89    1.69 
   0  10   0  121.65    1.73 
   0  10   0  121.33    1.72 
  -1 -10   0    1.23    0.13 
  -1 -10   0    1.14    0.14 
   1  10   0    1.10    0.13 
   1  10   0    1.01    0.13 
  -2 -10   0   15.39    0.47 
   2  10   0   15.12    0.45 
   2  10   0   14.75    0.44 
  -3 -10   0    6.86    0.32 
   3  10   0    6.22    0.30 
   3  10   0    6.08    0.29 
  -4 -10   0    1.37    0.17 
   4  10   0    1.51    0.17 
   4  10   0    1.42    0.17 
  -5 -10   0   10.37    0.43 
   5  10   0   10.26    0.42 
   5  10   0    9.56    0.41 
   6 -11   0    0.85    0.16 
  -6  11   0    1.34    0.17 
   5 -11   0    4.04    0.26 
  -5  11   0    3.86    0.35 
  -5  11   0    4.04    0.25 
   4 -11   0    5.79    0.30 
  -4  11   0    5.75    0.28 
  -4  11   0    5.45    0.26 
   3 -11   0    3.42    0.23 
  -3  11   0    3.58    0.22 
  -3  11   0    3.21    0.20 
   2 -11   0    0.91    0.13 
   2 -11   0    0.95    0.12 
  -2  11   0    0.88    0.12 
  -2  11   0    1.00    0.13 
   1 -11   0    5.15    0.26 
   1 -11   0    5.04    0.27 
  -1  11   0    5.21    0.26 
  -1  11   0    4.92    0.25 
   0 -11   0   12.75    0.42 
   0 -11   0   13.26    0.42 
   0  11   0   13.12    0.42 
   0  11   0   13.68    0.43 
  -1 -11   0   21.26    0.57 
  -1 -11   0   20.94    0.79 
   1  11   0   21.80    0.56 
   1  11   0   20.45    0.55 
  -2 -11   0    1.69    0.18 
   2  11   0    1.68    0.17 
   2  11   0    1.68    0.17 
  -3 -11   0   18.08    0.56 
   3  11   0   17.85    0.54 
   3  11   0   19.17    0.55 
  -4 -11   0    0.76    0.16 
   4  11   0    0.61    0.13 
   4  11   0    0.59    0.14 
   5 -12   0   13.05    0.49 
  -5  12   0   15.24    0.49 
   4 -12   0    0.35    0.11 
  -4  12   0    0.38    0.11 
  -4  12   0    0.51    0.11 
   3 -12   0   18.39    0.56 
  -3  12   0   18.48    0.53 
  -3  12   0   18.28    0.51 
   2 -12   0    2.20    0.20 
  -2  12   0    2.12    0.19 
  -2  12   0    2.14    0.18 
   1 -12   0    9.72    0.37 
   1 -12   0    9.38    0.38 
  -1  12   0    9.81    0.37 
  -1  12   0    9.96    0.38 
   0 -12   0    0.61    0.13 
   0 -12   0    0.62    0.13 
   0  12   0    0.52    0.15 
   0  12   0    0.48    0.12 
  -1 -12   0    2.56    0.21 
   1  12   0    2.76    0.21 
  -2 -12   0    6.13    0.33 
   2  12   0    5.84    0.31 
   3 -13   0    0.52    0.14 
  -3  13   0    0.70    0.14 
   2 -13   0    7.82    0.37 
  -2  13   0    7.77    0.34 
   1 -13   0    4.37    0.26 
   1 -13   0    4.16    0.27 
  -1  13   0    4.37    0.27 
   0 -13   0   12.42    0.46 
   0  13   0   12.89    0.46 
   0  13  -1    4.52    0.28 
   0 -13   1    4.60    0.28 
   0 -13   1    4.52    0.28 
  -1  13  -1    3.20    0.24 
   1 -13   1    3.03    0.23 
   1 -13   1    3.17    0.24 
  -2  13  -1    0.38    0.11 
   2 -13   1    0.26    0.11 
  -3  13  -1   -0.01    0.06 
   3 -13   1    0.07    0.09 
   3  12  -1    3.49    0.25 
  -3 -12   1    3.15    0.29 
   2  12  -1    1.26    0.16 
  -2 -12   1    1.58    0.18 
   1  12  -1    2.10    0.19 
  -1 -12   1    2.61    0.21 
   0  12  -1    4.04    0.25 
   0 -12   1    3.96    0.24 
   0 -12   1    4.03    0.25 
  -1  12  -1   17.80    0.51 
   1 -12   1   17.76    0.51 
   1 -12   1   17.30    0.53 
  -2  12  -1    0.54    0.12 
   2 -12   1    0.91    0.16 
  -3  12  -1    0.77    0.14 
   3 -12   1    0.90    0.16 
  -4  12  -1    2.16    0.19 
   4 -12   1    1.83    0.19 
  -5  12  -1    2.84    0.21 
   5 -12   1    2.78    0.24 
   4  11  -1    6.23    0.32 
  -4 -11   1    7.10    0.35 
   3  11  -1   11.73    0.42 
  -3 -11   1   11.07    0.42 
   2  11  -1    0.35    0.10 
  -2 -11   1    0.17    0.09 
   1  11  -1   25.62    0.63 
   1  11  -1   26.51    0.77 
  -1 -11   1   26.72    0.62 
  -1 -11   1   26.54    0.65 
   0  11  -1   10.96    0.38 
   0  11  -1   11.67    0.38 
   0 -11   1   10.42    0.37 
   0 -11   1   10.89    0.38 
  -1  11  -1   26.39    0.60 
  -1  11  -1   26.92    0.62 
   1 -11   1   26.26    0.63 
   1 -11   1   26.47    0.60 
  -2  11  -1    6.55    0.28 
  -2  11  -1    6.76    0.28 
   2 -11   1    7.36    0.29 
   2 -11   1    6.90    0.32 
  -3  11  -1    4.87    0.25 
  -3  11  -1    4.23    0.23 
   3 -11   1    4.57    0.26 
  -4  11  -1    1.13    0.14 
  -4  11  -1    1.19    0.14 
   4 -11   1    1.09    0.15 
  -5  11  -1    4.58    0.25 
  -5  11  -1    4.48    0.25 
   5 -11   1    4.27    0.27 
  -6  11  -1    1.04    0.15 
   6 -11   1    1.25    0.17 
   5  10  -1   12.95    0.46 
   5  10  -1   10.94    0.55 
  -5 -10   1   11.64    0.44 
   4  10  -1    0.20    0.09 
   4  10  -1    0.19    0.09 
  -4 -10   1    0.17    0.09 
   3  10  -1    3.64    0.22 
   3  10  -1    3.50    0.21 
  -3 -10   1    3.57    0.23 
   2  10  -1    9.62    0.35 
   2  10  -1    9.27    0.33 
  -2 -10   1    9.66    0.33 
  -2 -10   1    9.63    0.36 
   1  10  -1   14.75    0.43 
   1  10  -1   14.54    0.41 
  -1 -10   1   14.84    0.44 
  -1 -10   1   15.79    0.43 
   0  10  -1    3.77    0.20 
   0  10  -1    3.64    0.21 
   0 -10   1    3.93    0.22 
   0 -10   1    3.96    0.22 
  -1  10  -1   11.44    0.35 
  -1  10  -1   11.59    0.37 
   1 -10   1   11.18    0.36 
   1 -10   1   12.01    0.39 
  -2  10  -1   10.51    0.34 
  -2  10  -1    9.42    0.32 
   2 -10   1    9.49    0.31 
   2 -10   1    9.65    0.35 
  -3  10  -1   11.49    0.36 
  -3  10  -1   11.06    0.35 
   3 -10   1   10.70    0.38 
  -4  10  -1    5.67    0.26 
  -4  10  -1    5.76    0.26 
   4 -10   1    5.59    0.28 
  -5  10  -1   12.50    0.40 
  -5  10  -1   12.33    0.39 
   5 -10   1   11.82    0.42 
  -6  10  -1    1.67    0.16 
  -6  10  -1    1.93    0.16 
   6 -10   1    2.00    0.19 
  -7  10  -1    4.23    0.26 
   7 -10   1    4.10    0.27 
   6   9  -1   21.06    0.59 
  -6  -9   1   21.58    0.62 
  -6  -9   1   22.55    0.63 
   5   9  -1    0.07    0.07 
   5   9  -1    0.11    0.08 
  -5  -9   1    0.09    0.08 
   4   9  -1    0.53    0.12 
   4   9  -1    0.52    0.11 
  -4  -9   1    0.32    0.10 
   3   9  -1   14.07    0.41 
   3   9  -1   13.09    0.41 
  -3  -9   1   13.75    0.43 
   2   9  -1    0.66    0.12 
   2   9  -1    0.80    0.11 
  -2  -9   1    0.69    0.13 
  -2  -9   1    0.86    0.11 
   1   9  -1   14.50    0.39 
   1   9  -1   14.27    0.40 
  -1  -9   1   14.19    0.40 
  -1  -9   1   14.05    0.39 
   0   9  -1    4.86    0.22 
   0   9  -1    5.39    0.22 
   0  -9   1    4.87    0.22 
   0  -9   1    5.20    0.23 
  -1   9  -1    1.58    0.13 
  -1   9  -1    1.72    0.13 
   1  -9   1    1.49    0.13 
   1  -9   1    1.66    0.13 
  -2   9  -1    3.64    0.19 
  -2   9  -1    3.69    0.19 
   2  -9   1    3.71    0.18 
   2  -9   1    3.43    0.20 
  -3   9  -1    4.98    0.22 
  -3   9  -1    5.04    0.22 
   3  -9   1    4.66    0.24 
  -4   9  -1   11.91    0.36 
  -4   9  -1   12.74    0.37 
   4  -9   1   11.88    0.39 
  -5   9  -1    7.98    0.30 
  -5   9  -1    8.19    0.30 
   5  -9   1    7.62    0.32 
  -6   9  -1    2.45    0.17 
  -6   9  -1    2.29    0.18 
   6  -9   1    2.55    0.20 
  -7   9  -1    7.91    0.32 
  -7   9  -1    8.36    0.34 
   7  -9   1    7.21    0.33 
  -8   9  -1    0.58    0.13 
   8  -9   1    0.71    0.14 
   8  -9   1    0.91    0.16 
   7   8  -1    8.46    0.38 
  -7  -8   1    9.04    0.38 
  -7  -8   1    9.62    0.39 
   6   8  -1    8.56    0.35 
  -6  -8   1    8.52    0.35 
  -6  -8   1    8.90    0.35 
   5   8  -1    3.98    0.23 
  -5  -8   1    3.84    0.23 
  -5  -8   1    3.92    0.24 
   4   8  -1    5.25    0.25 
  -4  -8   1    5.16    0.25 
  -4  -8   1    5.24    0.26 
   3   8  -1   45.55    0.82 
   3   8  -1   44.60    0.80 
  -3  -8   1   46.81    0.86 
  -3  -8   1   48.26    0.79 
   2   8  -1    0.21    0.07 
   2   8  -1    0.27    0.07 
  -2  -8   1    0.28    0.07 
  -2  -8   1    0.19    0.07 
   1   8  -1   35.32    0.65 
   1   8  -1   35.38    0.64 
  -1  -8   1   35.79    0.65 
  -1  -8   1   35.68    0.67 
   0   8  -1    7.99    0.27 
   0   8  -1    7.84    0.26 
   0  -8   1    7.57    0.26 
   0  -8   1    7.77    0.26 
  -1   8  -1    4.20    0.18 
  -1   8  -1    4.08    0.19 
   1  -8   1    4.16    0.18 
   1  -8   1    4.13    0.20 
  -2   8  -1   11.75    0.32 
  -2   8  -1   11.13    0.31 
   2  -8   1   11.57    0.30 
   2  -8   1   11.21    0.34 
  -3   8  -1   16.23    0.40 
  -3   8  -1   16.45    0.40 
   3  -8   1   15.84    0.34 
   3  -8   1   15.68    0.42 
  -4   8  -1   37.12    0.69 
  -4   8  -1   37.24    0.67 
   4  -8   1   38.24    0.65 
  -5   8  -1    1.70    0.14 
  -5   8  -1    1.81    0.14 
   5  -8   1    1.97    0.16 
   5  -8   1    2.05    0.14 
  -6   8  -1    5.97    0.25 
  -6   8  -1    5.54    0.26 
   6  -8   1    5.40    0.26 
   6  -8   1    5.69    0.25 
  -7   8  -1    6.97    0.30 
  -7   8  -1    7.23    0.29 
   7  -8   1    7.40    0.31 
   7  -8   1    7.16    0.32 
  -8   8  -1    0.97    0.14 
   8  -8   1    0.81    0.15 
   8  -8   1    0.50    0.12 
   7   7  -1    2.42    0.20 
  -7  -7   1    2.86    0.21 
  -7  -7   1    2.94    0.21 
   6   7  -1   10.69    0.38 
  -6  -7   1   11.38    0.39 
  -6  -7   1   10.97    0.38 
   5   7  -1    3.06    0.19 
  -5  -7   1    2.65    0.18 
  -5  -7   1    2.55    0.18 
   4   7  -1   12.55    0.37 
  -4  -7   1   12.22    0.36 
  -4  -7   1   12.32    0.37 
   3   7  -1   26.69    0.54 
  -3  -7   1   27.73    0.57 
  -3  -7   1   26.76    0.57 
  -3  -7   1   27.19    0.51 
   1   7  -1   12.33    0.32 
   1   7  -1   13.20    0.32 
  -1  -7   1   13.20    0.33 
  -1  -7   1   13.25    0.34 
   0   7  -1    5.24    0.20 
   0   7  -1    5.21    0.19 
   0  -7   1    5.38    0.20 
   0  -7   1    5.17    0.20 
  -1   7  -1    4.22    0.17 
  -1   7  -1    4.01    0.17 
   1  -7   1    4.29    0.17 
   1  -7   1    4.01    0.18 
  -2   7  -1    1.22    0.10 
  -2   7  -1    1.43    0.10 
   2  -7   1    1.30    0.11 
   2  -7   1    1.31    0.07 
   2  -7   1    1.37    0.09 
  -3   7  -1    3.60    0.16 
  -3   7  -1    3.48    0.16 
   3  -7   1    3.23    0.13 
   3  -7   1    3.45    0.18 
   3  -7   1    3.45    0.14 
  -4   7  -1   32.96    0.61 
  -4   7  -1   33.20    0.60 
   4  -7   1   31.65    0.64 
   4  -7   1   33.39    0.57 
  -5   7  -1    6.02    0.24 
  -5   7  -1    6.33    0.23 
   5  -7   1    6.09    0.23 
   5  -7   1    5.96    0.25 
  -6   7  -1    1.10    0.12 
  -6   7  -1    0.92    0.11 
   6  -7   1    0.76    0.11 
   6  -7   1    0.88    0.11 
  -7   7  -1    4.60    0.22 
  -7   7  -1    4.33    0.24 
   7  -7   1    4.59    0.24 
   7  -7   1    4.40    0.24 
  -8   7  -1    1.34    0.14 
  -8   7  -1    1.82    0.17 
   8  -7   1    1.50    0.16 
   8  -7   1    1.49    0.16 
  -9   7  -1    4.03    0.26 
   9  -7   1    4.71    0.28 
   8   6  -1    5.56    0.30 
  -8  -6   1    6.08    0.31 
   7   6  -1    2.94    0.21 
  -7  -6   1    3.00    0.21 
  -7  -6   1    3.10    0.20 
   6   6  -1   14.27    0.43 
  -6  -6   1   14.83    0.44 
  -6  -6   1   15.50    0.43 
   5   6  -1    2.20    0.16 
  -5  -6   1    2.12    0.15 
  -5  -6   1    2.02    0.15 
   4   6  -1   11.42    0.33 
  -4  -6   1   11.18    0.34 
  -4  -6   1   10.68    0.33 
  -4  -6   1   10.50    0.32 
   3   6  -1   38.33    0.66 
  -3  -6   1   39.04    0.69 
  -3  -6   1   40.23    0.68 
  -3  -6   1   40.42    0.64 
   2   6  -1    3.59    0.16 
  -2  -6   1    3.98    0.18 
  -2  -6   1    3.75    0.17 
  -2  -6   1    3.83    0.15 
   1   6  -1    3.41    0.15 
   1   6  -1    3.34    0.14 
  -1  -6   1    3.30    0.15 
  -1  -6   1    3.47    0.15 
   0   6  -1    2.98    0.14 
   0   6  -1    3.03    0.13 
   0  -6   1    2.94    0.14 
   0  -6   1    2.79    0.13 
  -1   6  -1    4.30    0.16 
  -1   6  -1    4.23    0.16 
   1  -6   1    4.44    0.15 
   1  -6   1    4.01    0.10 
   1  -6   1    4.18    0.17 
  -2   6  -1    5.89    0.19 
  -2   6  -1    6.00    0.19 
   2  -6   1    5.70    0.17 
   2  -6   1    5.68    0.20 
   2  -6   1    5.81    0.15 
  -3   6  -1    1.71    0.11 
  -3   6  -1    1.52    0.10 
   3  -6   1    1.58    0.12 
   3  -6   1    1.70    0.09 
   3  -6   1    1.69    0.10 
  -4   6  -1   26.87    0.51 
  -4   6  -1   26.86    0.50 
   4  -6   1   25.88    0.53 
   4  -6   1   26.15    0.49 
  -5   6  -1   31.11    0.60 
  -5   6  -1   31.56    0.58 
   5  -6   1   29.54    0.57 
   5  -6   1   30.54    0.60 
  -6   6  -1    4.18    0.19 
  -6   6  -1    3.94    0.20 
   6  -6   1    4.36    0.21 
   6  -6   1    4.33    0.21 
  -7   6  -1   14.46    0.39 
  -7   6  -1   14.40    0.43 
   7  -6   1   14.30    0.42 
   7  -6   1   13.91    0.40 
  -8   6  -1    1.66    0.16 
  -8   6  -1    1.44    0.14 
   8  -6   1    1.70    0.16 
   8  -6   1    1.41    0.16 
  -9   6  -1   11.16    0.42 
   9  -6   1   10.15    0.41 
   9   5  -1    0.51    0.14 
  -9  -5   1    0.55    0.13 
   8   5  -1    1.86    0.18 
  -8  -5   1    2.01    0.18 
   7   5  -1    2.01    0.17 
  -7  -5   1    2.20    0.16 
  -7  -5   1    2.06    0.17 
   6   5  -1    7.74    0.29 
  -6  -5   1    7.82    0.28 
  -6  -5   1    7.69    0.29 
   5   5  -1   17.03    0.43 
  -5  -5   1   17.06    0.42 
  -5  -5   1   18.16    0.43 
   4   5  -1    1.23    0.11 
  -4  -5   1    1.29    0.11 
  -4  -5   1    1.45    0.12 
  -4  -5   1    1.41    0.09 
   3   5  -1   24.37    0.46 
   3   5  -1   24.76    0.36 
  -3  -5   1   25.40    0.44 
  -3  -5   1   25.19    0.49 
  -3  -5   1   24.90    0.48 
   1   5  -1    9.48    0.23 
   1   5  -1    9.60    0.24 
  -1  -5   1    9.48    0.23 
  -1  -5   1    9.52    0.24 
   0   5  -1    3.59    0.14 
   0   5  -1    3.74    0.13 
   0  -5   1    3.44    0.14 
   0  -5   1    3.74    0.14 
  -1   5  -1    1.44    0.09 
  -1   5  -1    1.52    0.08 
   1  -5   1    1.50    0.09 
   1  -5   1    1.54    0.08 
   1  -5   1    1.69    0.06 
  -2   5  -1    8.20    0.21 
  -2   5  -1    7.82    0.21 
   2  -5   1    8.17    0.23 
   2  -5   1    7.86    0.18 
   2  -5   1    8.24    0.18 
  -3   5  -1    1.04    0.08 
  -3   5  -1    1.07    0.08 
   3  -5   1    0.91    0.07 
   3  -5   1    1.01    0.08 
   3  -5   1    1.12    0.06 
  -4   5  -1   17.51    0.36 
  -4   5  -1   16.70    0.37 
   4  -5   1   16.69    0.38 
   4  -5   1   17.37    0.37 
  -5   5  -1   51.03    0.81 
  -5   5  -1   49.88    0.78 
   5  -5   1   48.19    0.79 
   5  -5   1   49.37    0.80 
  -6   5  -1    7.94    0.26 
  -6   5  -1    7.86    0.28 
   6  -5   1    7.54    0.26 
   6  -5   1    7.68    0.28 
  -7   5  -1    3.45    0.18 
  -7   5  -1    3.09    0.19 
   7  -5   1    3.39    0.21 
   7  -5   1    3.30    0.18 
  -8   5  -1    0.26    0.09 
  -8   5  -1    0.07    0.06 
   8  -5   1    0.14    0.08 
  -9   5  -1    2.84    0.22 
  -9   5  -1    2.85    0.20 
   9  -5   1    2.81    0.22 
   9   4  -1    1.33    0.16 
  -9  -4   1    1.41    0.17 
   8   4  -1    3.48    0.23 
  -8  -4   1    3.91    0.23 
   7   4  -1    2.82    0.19 
  -7  -4   1    2.94    0.19 
   6   4  -1    7.03    0.24 
   6   4  -1    6.65    0.26 
  -6  -4   1    7.49    0.27 
  -6  -4   1    7.32    0.25 
   5   4  -1   43.67    0.67 
   5   4  -1   41.14    0.73 
  -5  -4   1   42.71    0.71 
  -5  -4   1   42.46    0.73 
   4   4  -1    8.62    0.21 
   4   4  -1    9.10    0.26 
  -4  -4   1    8.07    0.24 
  -4  -4   1    8.96    0.21 
  -4  -4   1    8.11    0.24 
   3   4  -1   78.07    0.96 
   3   4  -1   75.87    1.04 
  -3  -4   1   77.48    1.06 
  -3  -4   1   79.36    1.07 
  -3  -4   1   77.00    1.00 
   2   4  -1   81.81    0.95 
   2   4  -1   79.79    1.05 
  -2  -4   1   82.91    1.06 
  -2  -4   1   82.50    1.10 
  -2  -4   1   83.49    1.08 
   1   4  -1   39.54    0.56 
   1   4  -1   40.54    0.59 
  -1  -4   1   39.58    0.59 
  -1  -4   1   40.46    0.58 
   0   4  -1  237.24    2.88 
   0   4  -1  236.16    2.73 
   0  -4   1  233.43    2.70 
   0  -4   1  233.27    2.69 
  -1   4  -1    3.67    0.12 
  -1   4  -1    3.66    0.12 
   1  -4   1    3.64    0.11 
   1  -4   1    3.65    0.09 
   1  -4   1    3.72    0.13 
  -2   4  -1  111.06    1.36 
  -2   4  -1  110.35    1.36 
   2  -4   1  112.34    1.34 
   2  -4   1  108.91    1.40 
   2  -4   1  111.64    1.31 
  -3   4  -1    0.30    0.06 
  -3   4  -1    0.30    0.05 
   3  -4   1    0.32    0.06 
   3  -4   1    0.26    0.03 
   3  -4   1    0.36    0.05 
  -4   4  -1  204.07    2.46 
  -4   4  -1  204.53    2.44 
   4  -4   1  204.47    2.44 
   4  -4   1  200.24    2.44 
  -5   4  -1   35.50    0.60 
  -5   4  -1   35.41    0.63 
   5  -4   1   34.24    0.62 
   5  -4   1   34.21    0.59 
  -6   4  -1   30.49    0.61 
  -6   4  -1   31.16    0.58 
   6  -4   1   30.28    0.56 
   6  -4   1   29.64    0.60 
  -7   4  -1   15.21    0.43 
  -7   4  -1   15.14    0.39 
   7  -4   1   14.95    0.38 
   7  -4   1   14.55    0.43 
  -8   4  -1   11.44    0.36 
  -8   4  -1   11.03    0.39 
   8  -4   1   10.01    0.37 
  -9   4  -1    6.43    0.32 
  -9   4  -1    6.94    0.30 
   9  -4   1    5.57    0.30 
 -10   4  -1    9.81    0.42 
  10  -4   1    8.79    0.44 
  -9  -3   1    2.28    0.20 
  -9  -3   1    2.32    0.19 
   8   3  -1    6.19    0.27 
  -8  -3   1    6.39    0.28 
  -8  -3   1    6.28    0.29 
   7   3  -1    0.53    0.10 
  -7  -3   1    0.59    0.11 
  -7  -3   1    0.49    0.10 
   6   3  -1    1.14    0.11 
  -6  -3   1    1.15    0.11 
  -6  -3   1    1.05    0.09 
  -6  -3   1    0.94    0.10 
   5   3  -1   16.88    0.36 
  -5  -3   1   17.40    0.37 
  -5  -3   1   17.06    0.39 
  -5  -3   1   17.34    0.33 
  -5  -3   1   17.07    0.38 
   4   3  -1    3.98    0.14 
  -4  -3   1    3.70    0.15 
  -4  -3   1    3.77    0.15 
  -4  -3   1    3.69    0.15 
  -4  -3   1    3.75    0.13 
   3   3  -1   11.59    0.22 
  -3  -3   1   11.83    0.26 
  -3  -3   1   11.79    0.25 
  -3  -3   1   11.68    0.26 
  -3  -3   1   11.62    0.23 
   2   3  -1   34.70    0.51 
  -2  -3   1   34.14    0.52 
  -2  -3   1   35.46    0.49 
  -2  -3   1   33.84    0.45 
   1   3  -1   28.54    0.40 
  -1  -3   1   30.30    0.44 
  -1  -3   1   30.35    0.44 
  -1  -3   1   29.77    0.45 
   0   3  -1   39.53    0.54 
   0   3  -1   40.30    0.52 
   0  -3   1   39.65    0.53 
  -1   3  -1  611.26    8.52 
  -1   3  -1  551.44    9.09 
   1  -3   1  642.80    8.86 
   1  -3   1  682.53    8.70 
  -2   3  -1   39.16    0.54 
  -2   3  -1   38.53    0.54 
   2  -3   1   39.18    0.56 
   2  -3   1   38.74    0.54 
   2  -3   1   39.10    0.48 
  -3   3  -1   83.82    1.07 
  -3   3  -1   82.87    1.07 
   3  -3   1   81.22    1.05 
   3  -3   1   80.84    1.05 
  -4   3  -1   11.74    0.28 
  -4   3  -1   11.11    0.26 
   4  -3   1   11.26    0.26 
   4  -3   1   11.27    0.28 
  -5   3  -1   82.53    1.13 
  -5   3  -1   83.16    1.17 
   5  -3   1   79.30    1.06 
   5  -3   1   76.65    1.11 
  -6   3  -1   16.67    0.39 
  -6   3  -1   17.26    0.42 
   6  -3   1   16.36    0.37 
   6  -3   1   16.50    0.41 
  -7   3  -1  108.29    1.51 
   7  -3   1  103.07    1.41 
   7  -3   1   99.26    1.50 
  -8   3  -1   73.99    1.22 
  -8   3  -1   71.51    1.14 
   8  -3   1   70.86    1.20 
  -9   3  -1   11.92    0.43 
  -9   3  -1   11.57    0.39 
   9  -3   1   10.51    0.41 
 -10   3  -1   11.96    0.46 
 -10   3  -1   11.42    0.41 
  10  -3   1   10.20    0.43 
   9   2  -1   34.65    0.76 
  -9  -2   1   35.97    0.76 
  -9  -2   1   36.04    0.80 
   8   2  -1   11.53    0.38 
  -8  -2   1   11.46    0.39 
  -8  -2   1   11.91    0.38 
   7   2  -1   20.43    0.48 
  -7  -2   1   20.55    0.48 
  -7  -2   1   20.63    0.50 
   6   2  -1   33.11    0.61 
  -6  -2   1   34.35    0.64 
  -6  -2   1   33.38    0.56 
  -6  -2   1   33.90    0.62 
   5   2  -1   25.14    0.47 
   5   2  -1   25.05    0.41 
  -5  -2   1   24.32    0.48 
  -5  -2   1   25.83    0.47 
  -5  -2   1   24.26    0.43 
   4   2  -1   23.09    0.40 
  -4  -2   1   21.84    0.39 
  -4  -2   1   23.47    0.37 
  -4  -2   1   22.44    0.42 
  -4  -2   1   22.38    0.41 
  -3  -2   1   37.10    0.53 
  -3  -2   1   36.52    0.54 
  -3  -2   1   36.32    0.51 
  -3  -2   1   37.13    0.52 
  -3  -2   1   37.06    0.54 
  -2  -2   1   32.71    0.45 
  -2  -2   1   32.93    0.46 
  -2  -2   1   32.49    0.45 
  -2  -2   1   32.27    0.46 
  -2  -2   1   32.18    0.43 
   1   2  -1  160.23    1.95 
  -1  -2   1  161.87    1.82 
  -1  -2   1  155.65    1.92 
  -1  -2   1  156.96    1.94 
  -1  -2   1  159.54    1.82 
   0   2  -1  641.60    8.03 
   0  -2   1  488.14    6.27 
  -1   2  -1  607.06    7.21 
  -1   2  -1  624.44    7.15 
   1  -2   1  661.90    7.51 
   1  -2   1  643.64    7.67 
   1  -2   1  649.12    7.39 
  -2   2  -1   38.37    0.52 
  -2   2  -1   38.66    0.53 
   2  -2   1   38.43    0.53 
   2  -2   1   39.42    0.53 
  -3   2  -1   29.56    0.46 
  -3   2  -1   29.32    0.45 
   3  -2   1   28.66    0.46 
   3  -2   1   29.00    0.43 
  -4   2  -1    5.51    0.17 
  -4   2  -1    5.73    0.18 
   4  -2   1    5.71    0.16 
   4  -2   1    5.52    0.18 
  -5   2  -1   26.64    0.48 
  -5   2  -1   26.18    0.50 
   5  -2   1   26.38    0.50 
   5  -2   1   25.31    0.44 
  -6   2  -1    7.06    0.24 
   6  -2   1    6.23    0.20 
   6  -2   1    6.24    0.24 
  -7   2  -1   81.25    1.26 
  -7   2  -1   82.80    1.22 
   7  -2   1   80.63    1.26 
  -8   2  -1   14.69    0.42 
  -8   2  -1   14.55    0.45 
   8  -2   1   13.73    0.43 
  -9   2  -1    6.45    0.32 
  -9   2  -1    6.96    0.30 
   9  -2   1    6.00    0.30 
 -10   2  -1    8.67    0.39 
 -10   2  -1    8.88    0.36 
  10  -2   1    7.81    0.37 
  10   1  -1   12.03    0.45 
 -10  -1   1   12.94    0.47 
 -10  -1   1   13.37    0.44 
   9   1  -1    8.80    0.36 
  -9  -1   1    9.99    0.39 
  -9  -1   1    9.72    0.35 
   8   1  -1   59.35    1.02 
  -8  -1   1   60.30    1.00 
  -8  -1   1   61.67    1.06 
   7   1  -1    3.50    0.19 
  -7  -1   1    3.40    0.19 
  -7  -1   1    3.70    0.19 
   6   1  -1  248.76    3.05 
   6   1  -1  254.36    2.94 
  -6  -1   1  265.79    3.15 
  -6  -1   1  259.96    3.19 
   5   1  -1  128.94    1.57 
   5   1  -1  128.57    1.65 
  -5  -1   1  134.21    1.68 
  -5  -1   1  134.50    1.62 
  -5  -1   1  134.66    1.72 
   4   1  -1  463.46    5.34 
  -4  -1   1  486.30    5.81 
  -4  -1   1  483.57    5.73 
  -4  -1   1  488.02    6.05 
  -4  -1   1  477.16    5.90 
  -3  -1   1   66.69    0.83 
  -3  -1   1   65.78    0.85 
  -3  -1   1   65.93    0.83 
  -3  -1   1   66.67    0.85 
  -3  -1   1   65.82    0.87 
  -2  -1   1  568.55    6.68 
  -2  -1   1  560.93    6.58 
  -2  -1   1  567.40    6.66 
  -2  -1   1  532.77    8.67 
  -2  -1   1  575.91    6.62 
  -1  -1   1  233.97    2.80 
  -1  -1   1  232.21    2.77 
  -1  -1   1  231.37    2.80 
  -1  -1   1  243.80    2.86 
  -1  -1   1  236.90    2.79 
   0   1  -1    6.38    0.11 
   0   1  -1    6.61    0.09 
   0  -1   1    6.36    0.10 
   0  -1   1    6.26    0.10 
   0  -1   1    6.25    0.11 
  -1   1  -1  400.47    4.84 
  -1   1  -1  417.35    4.78 
  -1   1  -1  413.89    4.65 
   1  -1   1  414.37    4.76 
   1  -1   1  393.13    4.77 
  -2   1  -1   94.45    1.13 
  -2   1  -1   93.79    1.13 
   2  -1   1   95.13    1.11 
   2  -1   1   94.38    1.14 
  -3   1  -1   39.25    0.56 
  -3   1  -1   38.66    0.57 
   3  -1   1   38.90    0.57 
   3  -1   1   38.65    0.52 
  -4   1  -1    4.38    0.15 
   4  -1   1    4.52    0.16 
   4  -1   1    4.38    0.13 
  -5   1  -1   40.60    0.65 
  -5   1  -1   40.22    0.67 
   5  -1   1   38.69    0.66 
   5  -1   1   38.79    0.57 
  -6   1  -1    8.20    0.28 
  -6   1  -1    8.61    0.27 
   6  -1   1    8.09    0.23 
   6  -1   1    7.90    0.27 
  -7   1  -1   29.56    0.63 
  -7   1  -1   30.19    0.61 
   7  -1   1   28.28    0.61 
  -8   1  -1    1.09    0.12 
  -8   1  -1    1.34    0.14 
   8  -1   1    1.10    0.14 
  -9   1  -1    3.94    0.25 
  -9   1  -1    3.49    0.22 
   9  -1   1    3.17    0.22 
 -10   1  -1   11.05    0.44 
 -10   1  -1   11.02    0.41 
  10  -1   1   10.63    0.44 
  10   0  -1    7.79    0.36 
 -10   0   1    8.04    0.37 
 -10   0   1    8.71    0.44 
   9   0  -1    6.19    0.30 
  -9   0   1    6.47    0.31 
  -9   0   1    6.28    0.28 
   8   0  -1   15.66    0.45 
  -8   0   1   15.85    0.46 
  -8   0   1   16.02    0.42 
   7   0  -1    0.86    0.11 
  -7   0   1    0.99    0.10 
  -7   0   1    1.01    0.12 
   6   0  -1  100.69    1.31 
   6   0  -1  101.31    1.40 
  -6   0   1  102.54    1.44 
  -6   0   1  104.33    1.38 
   5   0  -1  119.12    1.53 
   5   0  -1  116.68    1.46 
  -5   0   1  121.47    1.57 
  -5   0   1  121.58    1.43 
  -5   0   1  119.82    1.52 
   4   0  -1  148.14    1.76 
  -4   0   1  149.07    1.70 
  -4   0   1  146.58    1.80 
  -4   0   1  148.06    1.77 
  -4   0   1  145.23    1.80 
   3   0  -1   43.51    0.58 
  -3   0   1   45.90    0.56 
  -3   0   1   45.42    0.63 
  -3   0   1   45.01    0.63 
  -3   0   1   45.20    0.60 
   2   0  -1  839.83    9.63 
  -2   0   1  845.84   10.00 
  -2   0   1  856.63   10.00 
  -2   0   1  880.17    9.82 
  -1   0   1  114.45    1.31 
  -1   0   1  110.06    1.38 
  -1   0   1  115.33    1.32 
   0   0  -1  305.46    3.39 
   0   0  -1  292.98    3.45 
   0   0   1  304.79    3.49 
   0   0   1  309.96    3.58 
  -1   0  -1  171.42    2.15 
  -1   0  -1  174.68    2.11 
  -1   0  -1  174.25    2.05 
   1   0   1  187.69    2.24 
  -2   0  -1  154.49    1.76 
  -2   0  -1  153.83    1.78 
  -2   0  -1  153.82    1.79 
   2   0   1  150.24    1.72 
   2   0   1  152.23    1.76 
  -3   0  -1   38.28    0.49 
  -3   0  -1   37.01    0.56 
   3   0   1   36.06    0.54 
   3   0   1   37.09    0.47 
  -4   0  -1   32.66    0.53 
  -4   0  -1   31.85    0.53 
  -4   0  -1   32.17    0.45 
   4   0   1   31.04    0.43 
   4   0   1   31.44    0.52 
  -5   0  -1   54.53    0.82 
  -5   0  -1   54.05    0.84 
  -5   0  -1   54.50    0.71 
   5   0   1   52.40    0.69 
   5   0   1   51.70    0.81 
  -6   0  -1    0.13    0.06 
  -6   0  -1    0.25    0.07 
   6   0   1    0.09    0.06 
  -7   0  -1   12.25    0.36 
  -7   0  -1   11.57    0.37 
   7   0   1   11.79    0.37 
  -8   0  -1    3.98    0.22 
  -8   0  -1    3.99    0.23 
   8   0   1    4.23    0.24 
  -9   0  -1   11.93    0.41 
  -9   0  -1   11.85    0.43 
   9   0   1   11.57    0.42 
 -10   0  -1   15.40    0.63 
 -10   0  -1   17.40    0.53 
  10   0   1   15.21    0.52 
  10  -1  -1    0.64    0.15 
 -10   1   1    0.78    0.16 
   9  -1  -1    8.36    0.35 
  -9   1   1    7.73    0.34 
  -9   1   1    7.93    0.30 
   8  -1  -1    2.90    0.20 
  -8   1   1    3.24    0.18 
  -8   1   1    3.16    0.20 
   7  -1  -1   89.69    1.34 
   7  -1  -1   90.49    1.24 
  -7   1   1   92.59    1.29 
  -7   1   1   92.64    1.37 
   6  -1  -1   81.91    1.20 
   6  -1  -1   84.09    1.13 
  -6   1   1   85.24    1.17 
   5  -1  -1    4.60    0.16 
   5  -1  -1    4.66    0.18 
  -5   1   1    4.87    0.16 
  -5   1   1    4.65    0.18 
   4  -1  -1   17.09    0.32 
  -4   1   1   16.75    0.34 
  -4   1   1   17.04    0.34 
  -4   1   1   16.67    0.31 
   3  -1  -1   18.83    0.32 
  -3   1   1   18.15    0.32 
  -3   1   1   19.14    0.29 
  -3   1   1   18.42    0.32 
   2  -1  -1   50.55    0.58 
   2  -1  -1   50.88    0.65 
  -2   1   1   51.07    0.62 
  -2   1   1   51.38    0.65 
  -2   1   1   50.75    0.66 
   1  -1  -1  133.52    1.61 
   1  -1  -1  134.26    1.59 
  -1   1   1  127.75    1.58 
  -1   1   1  129.55    1.52 
  -1   1   1  117.52    2.13 
   0  -1  -1  124.35    1.47 
   0  -1  -1  122.73    1.40 
   0  -1  -1  118.07    1.44 
   0   1   1  123.97    1.50 
   0   1   1  123.48    1.48 
  -1  -1  -1    7.86    0.15 
  -1  -1  -1    7.89    0.14 
   1   1   1    7.75    0.15 
   1   1   1    7.64    0.13 
  -2  -1  -1    3.84    0.10 
  -2  -1  -1    4.05    0.12 
  -2  -1  -1    4.08    0.12 
   2   1   1    3.83    0.11 
  -3  -1  -1    7.59    0.19 
  -3  -1  -1    7.19    0.19 
  -3  -1  -1    7.36    0.17 
   3   1   1    7.71    0.13 
   3   1   1    7.00    0.18 
  -4  -1  -1   14.38    0.27 
  -4  -1  -1   13.44    0.30 
  -4  -1  -1   13.82    0.31 
   4   1   1   14.33    0.23 
   4   1   1   14.36    0.31 
  -5  -1  -1   33.21    0.51 
  -5  -1  -1   32.52    0.59 
  -5  -1  -1   31.43    0.57 
   5   1   1   32.38    0.58 
  -6  -1  -1    0.87    0.10 
  -6  -1  -1    0.91    0.10 
   6   1   1    0.83    0.10 
  -7  -1  -1   13.96    0.39 
  -7  -1  -1   13.76    0.41 
   7   1   1   12.49    0.38 
  -8  -1  -1   -0.01    0.05 
  -8  -1  -1    0.09    0.07 
   8   1   1    0.06    0.07 
  -9  -1  -1    8.81    0.37 
  -9  -1  -1    9.65    0.37 
   9   1   1    8.75    0.37 
  10  -2  -1    8.80    0.39 
 -10   2   1    8.93    0.39 
   9  -2  -1   12.71    0.44 
  -9   2   1   13.62    0.40 
  -9   2   1   12.65    0.44 
   8  -2  -1    4.11    0.23 
  -8   2   1    4.40    0.21 
  -8   2   1    4.32    0.24 
   7  -2  -1   13.83    0.39 
   7  -2  -1   13.30    0.34 
  -7   2   1   14.68    0.41 
  -7   2   1   15.18    0.37 
   6  -2  -1   45.90    0.73 
   6  -2  -1   45.21    0.78 
  -6   2   1   48.36    0.75 
  -6   2   1   48.41    0.81 
   5  -2  -1    7.72    0.24 
   5  -2  -1    8.03    0.22 
  -5   2   1    7.72    0.24 
  -5   2   1    8.01    0.21 
   4  -2  -1   43.72    0.64 
  -4   2   1   45.33    0.63 
  -4   2   1   44.38    0.67 
  -4   2   1   44.74    0.67 
   3  -2  -1    5.29    0.15 
  -3   2   1    5.42    0.13 
  -3   2   1    5.37    0.15 
  -3   2   1    5.44    0.16 
   2  -2  -1    1.64    0.05 
   2  -2  -1    1.72    0.08 
  -2   2   1    1.76    0.06 
  -2   2   1    1.77    0.08 
   1  -2  -1    3.21    0.08 
   1  -2  -1    3.21    0.09 
  -1   2   1    3.17    0.08 
  -1   2   1    3.40    0.10 
  -1   2   1    3.23    0.08 
   0  -2  -1  127.27    1.50 
   0  -2  -1  126.77    1.54 
   0  -2  -1  128.15    1.47 
   0   2   1  125.71    1.57 
   0   2   1  126.27    1.48 
  -1  -2  -1    0.55    0.03 
  -1  -2  -1    0.41    0.04 
  -1  -2  -1    0.45    0.04 
   1   2   1    0.44    0.03 
   1   2   1    0.35    0.04 
  -2  -2  -1   10.44    0.22 
  -2  -2  -1   10.35    0.22 
  -2  -2  -1   10.70    0.16 
   2   2   1    9.40    0.21 
   2   2   1    9.74    0.18 
  -3  -2  -1    3.60    0.14 
  -3  -2  -1    3.77    0.13 
  -3  -2  -1    3.63    0.14 
   3   2   1    3.61    0.12 
  -4  -2  -1    6.97    0.21 
  -4  -2  -1    6.74    0.21 
  -4  -2  -1    7.17    0.19 
   4   2   1    7.07    0.20 
  -5  -2  -1   35.69    0.64 
  -5  -2  -1   35.43    0.63 
  -5  -2  -1   36.26    0.58 
   5   2   1   35.20    0.60 
  -6  -2  -1    3.76    0.16 
  -6  -2  -1    3.96    0.19 
  -6  -2  -1    3.83    0.19 
   6   2   1    3.64    0.18 
  -7  -2  -1   15.07    0.43 
  -7  -2  -1   16.52    0.44 
   7   2   1   15.83    0.42 
  -8  -2  -1    1.77    0.16 
  -8  -2  -1    1.66    0.16 
   8   2   1    1.73    0.16 
  -9  -2  -1    2.44    0.21 
  -9  -2  -1    2.77    0.21 
   9   2   1    2.34    0.20 
  10  -3  -1    7.55    0.37 
 -10   3   1    8.57    0.38 
   9  -3  -1    2.06    0.19 
  -9   3   1    2.35    0.19 
   8  -3  -1   12.01    0.40 
   8  -3  -1   11.43    0.34 
  -8   3   1   11.71    0.34 
  -8   3   1   11.88    0.40 
   7  -3  -1    3.58    0.20 
   7  -3  -1    3.87    0.18 
  -7   3   1    3.48    0.20 
  -7   3   1    3.58    0.17 
   6  -3  -1   53.63    0.84 
   6  -3  -1   53.75    0.88 
  -6   3   1   54.00    0.80 
  -6   3   1   53.57    0.88 
   5  -3  -1    1.22    0.09 
   5  -3  -1    1.21    0.10 
  -5   3   1    1.25    0.10 
  -5   3   1    1.44    0.09 
   4  -3  -1   80.09    1.07 
  -4   3   1   80.81    1.03 
  -4   3   1   80.15    1.08 
  -4   3   1   81.61    1.10 
   3  -3  -1   14.82    0.30 
  -3   3   1   14.87    0.26 
  -3   3   1   14.64    0.28 
  -3   3   1   14.91    0.30 
   2  -3  -1    8.61    0.20 
   2  -3  -1    8.24    0.15 
  -2   3   1    8.70    0.18 
  -2   3   1    8.58    0.20 
  -2   3   1    8.89    0.17 
   1  -3  -1  150.36    1.72 
   1  -3  -1  148.10    1.75 
  -1   3   1  146.78    1.67 
  -1   3   1  147.09    1.74 
  -1   3   1  147.28    1.84 
   0  -3  -1   32.77    0.45 
   0  -3  -1   32.60    0.47 
   0  -3  -1   32.73    0.45 
   0   3   1   31.04    0.46 
   0   3   1   32.65    0.39 
  -1  -3  -1    1.06    0.05 
  -1  -3  -1    0.97    0.06 
  -1  -3  -1    1.07    0.07 
   1   3   1    1.13    0.07 
   1   3   1    1.09    0.04 
  -2  -3  -1   90.01    1.05 
  -2  -3  -1   86.69    1.12 
  -2  -3  -1   86.54    1.12 
   2   3   1   85.37    1.02 
   2   3   1   85.69    1.11 
  -3  -3  -1    2.52    0.12 
  -3  -3  -1    2.57    0.12 
  -3  -3  -1    2.59    0.08 
   3   3   1    2.46    0.10 
   3   3   1    2.61    0.13 
  -4  -3  -1    3.97    0.17 
  -4  -3  -1    4.17    0.16 
   4   3   1    3.88    0.14 
   4   3   1    4.17    0.18 
  -5  -3  -1   22.54    0.48 
  -5  -3  -1   22.62    0.45 
   5   3   1   21.22    0.47 
   5   3   1   20.66    0.42 
  -6  -3  -1    0.38    0.09 
  -6  -3  -1    0.42    0.08 
   6   3   1    0.31    0.08 
   6   3   1    0.36    0.08 
  -7  -3  -1    7.75    0.30 
   7   3   1    6.47    0.28 
   7   3   1    6.83    0.27 
  -8  -3  -1    7.57    0.32 
   8   3   1    6.63    0.29 
   8   3   1    6.95    0.32 
  -9  -3  -1    1.09    0.18 
   9   3   1    0.62    0.14 
  10  -4  -1    3.25    0.25 
 -10   4   1    3.20    0.25 
   9  -4  -1    0.97    0.16 
  -9   4   1    1.12    0.15 
   8  -4  -1   11.98    0.40 
   8  -4  -1   11.81    0.36 
  -8   4   1   12.15    0.35 
  -8   4   1   12.06    0.41 
   7  -4  -1    0.18    0.08 
   7  -4  -1    0.14    0.06 
  -7   4   1    0.25    0.08 
  -7   4   1    0.19    0.06 
   6  -4  -1   32.82    0.64 
   6  -4  -1   34.07    0.62 
  -6   4   1   33.09    0.57 
  -6   4   1   33.94    0.64 
   5  -4  -1    0.12    0.05 
   5  -4  -1    0.11    0.05 
  -5   4   1    0.14    0.06 
  -5   4   1    0.15    0.04 
   4  -4  -1    8.88    0.25 
  -4   4   1    9.38    0.25 
  -4   4   1    9.38    0.22 
  -4   4   1    9.02    0.25 
   3  -4  -1   18.91    0.37 
   3  -4  -1   18.92    0.28 
  -3   4   1   17.59    0.36 
  -3   4   1   18.72    0.33 
  -3   4   1   18.41    0.32 
   2  -4  -1   18.93    0.30 
   2  -4  -1   18.73    0.35 
  -2   4   1   18.16    0.30 
  -2   4   1   18.39    0.35 
  -2   4   1   18.48    0.31 
   1  -4  -1   21.14    0.34 
   1  -4  -1   20.80    0.37 
  -1   4   1   20.30    0.29 
  -1   4   1   21.08    0.34 
  -1   4   1   20.71    0.37 
   0  -4  -1   10.50    0.22 
   0  -4  -1    9.81    0.22 
   0   4   1   12.48    0.26 
  -1  -4  -1   10.46    0.24 
  -1  -4  -1   10.22    0.21 
  -1  -4  -1   10.31    0.23 
   1   4   1    9.97    0.24 
  -2  -4  -1   18.33    0.30 
  -2  -4  -1   18.16    0.36 
  -2  -4  -1   18.87    0.36 
   2   4   1   18.22    0.28 
   2   4   1   18.43    0.37 
  -3  -4  -1    7.41    0.23 
  -3  -4  -1    7.94    0.17 
  -3  -4  -1    7.90    0.23 
   3   4   1    7.47    0.18 
   3   4   1    7.38    0.23 
  -4  -4  -1   11.01    0.29 
  -4  -4  -1   11.27    0.30 
   4   4   1   10.55    0.25 
   4   4   1   10.91    0.31 
  -5  -4  -1   31.83    0.62 
  -5  -4  -1   32.57    0.60 
   5   4   1   29.68    0.61 
   5   4   1   30.33    0.53 
  -6  -4  -1    3.28    0.19 
  -6  -4  -1    2.97    0.17 
   6   4   1    3.04    0.17 
   6   4   1    2.61    0.18 
  -7  -4  -1    4.74    0.25 
   7   4   1    4.35    0.24 
  -8  -4  -1    2.09    0.18 
   8   4   1    1.62    0.18 
  -9  -4  -1    0.60    0.14 
   9   4   1    0.64    0.16 
  10  -5  -1    2.39    0.21 
 -10   5   1    2.54    0.23 
   9  -5  -1    0.35    0.11 
  -9   5   1    0.55    0.13 
   8  -5  -1    6.56    0.28 
   8  -5  -1    6.79    0.31 
  -8   5   1    6.32    0.29 
   7  -5  -1    0.33    0.09 
   7  -5  -1    0.50    0.11 
  -7   5   1    0.49    0.10 
  -7   5   1    0.45    0.08 
   6  -5  -1   12.32    0.35 
   6  -5  -1   12.58    0.35 
  -6   5   1   12.62    0.31 
  -6   5   1   12.14    0.35 
   5  -5  -1   26.91    0.52 
   5  -5  -1   26.71    0.53 
  -5   5   1   27.40    0.48 
  -5   5   1   26.47    0.54 
   4  -5  -1   11.17    0.28 
   4  -5  -1   11.16    0.30 
  -4   5   1   11.25    0.26 
  -4   5   1   11.28    0.30 
   3  -5  -1   49.31    0.65 
   3  -5  -1   48.73    0.76 
  -3   5   1   50.46    0.77 
  -3   5   1   50.42    0.71 
  -3   5   1   49.93    0.71 
   2  -5  -1  116.73    1.49 
   2  -5  -1  114.99    1.41 
  -2   5   1  117.94    1.42 
  -2   5   1  119.38    1.46 
  -2   5   1  120.39    1.52 
   1  -5  -1   20.54    0.38 
   1  -5  -1   19.67    0.36 
  -1   5   1   20.46    0.29 
  -1   5   1   20.80    0.39 
   0  -5  -1   41.83    0.63 
   0  -5  -1   42.23    0.62 
   0   5   1   39.57    0.63 
   0   5   1   40.76    0.61 
  -1  -5  -1    0.91    0.07 
  -1  -5  -1    1.01    0.07 
  -1  -5  -1    1.02    0.08 
   1   5   1    0.95    0.08 
  -2  -5  -1   12.40    0.25 
  -2  -5  -1   12.13    0.30 
  -2  -5  -1   12.25    0.31 
   2   5   1   11.85    0.30 
  -3  -5  -1   10.51    0.29 
  -3  -5  -1   10.18    0.29 
  -3  -5  -1   10.56    0.23 
   3   5   1   10.11    0.29 
  -4  -5  -1   47.29    0.79 
  -4  -5  -1   46.30    0.79 
   4   5   1   45.25    0.79 
  -5  -5  -1   34.69    0.68 
  -5  -5  -1   33.95    0.65 
   5   5   1   33.17    0.67 
  -6  -5  -1    6.04    0.25 
  -6  -5  -1    5.81    0.26 
   6   5   1    5.48    0.26 
  -7  -5  -1    0.57    0.12 
   7   5   1    0.59    0.12 
  -8  -5  -1    6.77    0.33 
   8   5   1    5.16    0.30 
   9  -6  -1    0.00    0.07 
   9  -6  -1    0.17    0.08 
  -9   6   1    0.23    0.10 
   8  -6  -1    5.61    0.28 
   8  -6  -1    5.40    0.27 
  -8   6   1    5.67    0.28 
   7  -6  -1    1.66    0.15 
   7  -6  -1    1.96    0.16 
  -7   6   1    1.95    0.16 
  -7   6   1    2.14    0.14 
   6  -6  -1   18.14    0.46 
   6  -6  -1   17.17    0.43 
  -6   6   1   17.34    0.39 
  -6   6   1   17.25    0.44 
   5  -6  -1   48.74    0.78 
   5  -6  -1   47.36    0.82 
  -5   6   1   48.46    0.83 
  -5   6   1   49.75    0.76 
   4  -6  -1    9.69    0.30 
   4  -6  -1    9.53    0.26 
  -4   6   1    9.32    0.24 
  -4   6   1    8.77    0.28 
   3  -6  -1  107.83    1.34 
   3  -6  -1  108.83    1.47 
   3  -6  -1  108.44    1.36 
  -3   6   1  110.11    1.47 
  -3   6   1  110.80    1.41 
   2  -6  -1   46.98    0.75 
   2  -6  -1   47.22    0.63 
   2  -6  -1   47.67    0.69 
  -2   6   1   49.72    0.77 
  -2   6   1   48.33    0.72 
   1  -6  -1  113.04    1.47 
   1  -6  -1  113.32    1.45 
  -1   6   1  116.74    1.52 
  -1   6   1  116.28    1.47 
   0  -6  -1   31.33    0.53 
   0  -6  -1   31.34    0.55 
   0   6   1   30.63    0.53 
   0   6   1   30.84    0.55 
  -1  -6  -1    3.07    0.14 
  -1  -6  -1    2.96    0.13 
  -1  -6  -1    2.81    0.14 
   1   6   1    3.19    0.16 
  -2  -6  -1   25.22    0.51 
  -2  -6  -1   25.12    0.44 
  -2  -6  -1   25.16    0.49 
   2   6   1   25.84    0.52 
  -3  -6  -1    5.13    0.22 
  -3  -6  -1    5.12    0.21 
   3   6   1    4.89    0.21 
  -4  -6  -1   80.49    1.23 
  -4  -6  -1   82.31    1.23 
   4   6   1   84.25    1.27 
  -5  -6  -1   16.79    0.45 
  -5  -6  -1   16.78    0.45 
   5   6   1   16.88    0.47 
  -6  -6  -1    6.53    0.28 
  -6  -6  -1    6.51    0.29 
   6   6   1    6.23    0.29 
  -7  -6  -1    9.00    0.37 
  -7  -6  -1    9.69    0.36 
   7   6   1    8.43    0.36 
  -8  -6  -1    5.96    0.32 
   8   6   1    5.47    0.31 
   9  -7  -1    1.11    0.16 
   9  -7  -1    0.93    0.16 
  -9   7   1    1.20    0.16 
   8  -7  -1    6.13    0.30 
   8  -7  -1    6.11    0.29 
  -8   7   1    6.53    0.31 
   7  -7  -1    0.32    0.10 
   7  -7  -1    0.17    0.07 
  -7   7   1    0.32    0.09 
   6  -7  -1    1.86    0.16 
   6  -7  -1    1.54    0.14 
  -6   7   1    1.82    0.13 
  -6   7   1    1.88    0.15 
   5  -7  -1    3.76    0.21 
   5  -7  -1    3.93    0.18 
  -5   7   1    3.73    0.20 
  -5   7   1    3.59    0.16 
   4  -7  -1   14.66    0.33 
   4  -7  -1   14.83    0.40 
  -4   7   1   14.16    0.38 
  -4   7   1   14.65    0.34 
   3  -7  -1    5.64    0.17 
   3  -7  -1    5.72    0.18 
   3  -7  -1    5.59    0.23 
  -3   7   1    5.39    0.19 
  -3   7   1    5.60    0.22 
   2  -7  -1   10.72    0.31 
   2  -7  -1   10.53    0.27 
  -2   7   1   11.18    0.29 
  -2   7   1   11.30    0.32 
   1  -7  -1   10.98    0.30 
   1  -7  -1   11.86    0.30 
  -1   7   1   10.97    0.31 
  -1   7   1   11.89    0.30 
   0  -7  -1   79.67    1.11 
   0  -7  -1   78.06    1.13 
   0   7   1   79.65    1.12 
   0   7   1   80.66    1.16 
  -1  -7  -1  243.75    2.90 
  -1  -7  -1  242.33    2.96 
   1   7   1  248.71    2.99 
   1   7   1  242.78    3.00 
  -2  -7  -1   30.30    0.60 
  -2  -7  -1   31.92    0.54 
  -2  -7  -1   32.35    0.62 
   2   7   1   31.99    0.63 
  -3  -7  -1  105.69    1.48 
  -3  -7  -1  105.41    1.52 
   3   7   1  106.49    1.53 
  -4  -7  -1   16.71    0.45 
  -4  -7  -1   16.20    0.44 
   4   7   1   15.83    0.45 
  -5  -7  -1   54.10    0.97 
  -5  -7  -1   53.32    0.97 
   5   7   1   49.48    0.94 
  -6  -7  -1    3.83    0.24 
  -6  -7  -1    3.67    0.23 
   6   7   1    3.71    0.24 
  -7  -7  -1   74.77    1.27 
  -7  -7  -1   73.21    1.31 
   7   7   1   69.81    1.27 
   9  -8  -1    8.98    0.38 
   9  -8  -1    8.34    0.38 
  -9   8   1    8.37    0.38 
   8  -8  -1    4.81    0.27 
   8  -8  -1    4.88    0.28 
  -8   8   1    4.65    0.27 
   7  -8  -1    2.78    0.19 
   7  -8  -1    2.62    0.20 
  -7   8   1    2.55    0.20 
   6  -8  -1    8.49    0.30 
   6  -8  -1    8.68    0.34 
  -6   8   1    8.67    0.33 
  -6   8   1    9.37    0.37 
   5  -8  -1   13.86    0.36 
   5  -8  -1   15.06    0.43 
  -5   8   1   15.11    0.43 
  -5   8   1   14.90    0.37 
   4  -8  -1   16.05    0.44 
  -4   8   1   16.92    0.44 
  -4   8   1   16.95    0.39 
   3  -8  -1   16.32    0.43 
   3  -8  -1   15.93    0.35 
  -3   8   1   16.43    0.42 
  -3   8   1   16.20    0.38 
   2  -8  -1   36.51    0.63 
  -2   8   1   38.35    0.66 
  -2   8   1   38.03    0.70 
   1  -8  -1   46.35    0.78 
   1  -8  -1   44.42    0.76 
  -1   8   1   45.94    0.79 
  -1   8   1   44.84    0.75 
   0  -8  -1   11.58    0.34 
   0  -8  -1   12.18    0.33 
   0   8   1   12.19    0.33 
   0   8   1   11.88    0.35 
  -1  -8  -1    1.46    0.12 
  -1  -8  -1    1.41    0.13 
   1   8   1    1.56    0.13 
   1   8   1    1.46    0.12 
  -2  -8  -1    6.26    0.26 
   2   8   1    6.19    0.25 
   2   8   1    6.05    0.26 
  -3  -8  -1   14.53    0.43 
  -3  -8  -1   13.87    0.41 
   3   8   1   14.30    0.42 
  -4  -8  -1   15.14    0.45 
  -4  -8  -1   14.15    0.42 
   4   8   1   14.76    0.45 
  -5  -8  -1   17.79    0.50 
  -5  -8  -1   17.72    0.51 
   5   8   1   17.12    0.51 
  -6  -8  -1    1.74    0.18 
  -6  -8  -1    2.14    0.19 
   6   8   1    1.46    0.18 
   8  -9  -1    6.27    0.33 
  -8   9   1    6.21    0.32 
   7  -9  -1    0.10    0.08 
  -7   9   1   -0.01    0.06 
   6  -9  -1   24.93    0.64 
  -6   9   1   25.49    0.62 
   5  -9  -1   10.48    0.38 
  -5   9   1   11.11    0.33 
  -5   9   1   11.21    0.38 
   4  -9  -1    0.15    0.07 
  -4   9   1    0.26    0.08 
  -4   9   1    0.10    0.06 
   3  -9  -1    6.44    0.27 
   3  -9  -1    6.55    0.23 
  -3   9   1    6.46    0.24 
  -3   9   1    6.35    0.27 
   2  -9  -1   10.99    0.35 
   2  -9  -1   11.09    0.32 
  -2   9   1   10.96    0.35 
  -2   9   1   11.17    0.33 
   1  -9  -1   26.16    0.55 
   1  -9  -1   26.60    0.57 
  -1   9   1   26.49    0.58 
  -1   9   1   26.17    0.55 
   0  -9  -1   57.46    0.94 
   0  -9  -1   57.64    0.96 
   0   9   1   57.67    0.98 
   0   9   1   59.43    0.96 
  -1  -9  -1    3.61    0.19 
  -1  -9  -1    3.77    0.21 
   1   9   1    3.68    0.20 
   1   9   1    3.41    0.20 
  -2  -9  -1   39.00    0.78 
   2   9   1   40.62    0.78 
   2   9   1   41.72    0.80 
  -3  -9  -1    4.55    0.25 
   3   9   1    4.48    0.25 
   3   9   1    4.10    0.23 
  -4  -9  -1   28.23    0.68 
  -4  -9  -1   28.34    0.68 
   4   9   1   26.73    0.66 
  -5  -9  -1    1.04    0.17 
  -5  -9  -1    0.92    0.13 
   5   9   1    0.74    0.15 
  -6  -9  -1   22.20    0.66 
  -6  -9  -1   23.98    0.66 
   6   9   1   22.80    0.66 
   7 -10  -1    3.21    0.25 
  -7  10   1    3.08    0.23 
   6 -10  -1   15.94    0.52 
  -6  10   1   16.83    0.51 
   5 -10  -1   20.09    0.56 
  -5  10   1   21.43    0.57 
   4 -10  -1    3.72    0.23 
  -4  10   1    4.07    0.21 
  -4  10   1    3.83    0.23 
   3 -10  -1   29.85    0.68 
  -3  10   1   31.05    0.63 
  -3  10   1   30.87    0.67 
   2 -10  -1    4.52    0.24 
   2 -10  -1    4.31    0.21 
  -2  10   1    4.08    0.21 
  -2  10   1    4.16    0.23 
   1 -10  -1    9.98    0.34 
   1 -10  -1    9.76    0.34 
  -1  10   1   10.00    0.35 
  -1  10   1   10.16    0.34 
   0 -10  -1    0.23    0.08 
  -1 -10  -1    0.95    0.13 
   1  10   1    0.59    0.11 
   1  10   1    0.62    0.12 
  -2 -10  -1   13.69    0.45 
   2  10   1   13.61    0.44 
   2  10   1   13.05    0.42 
  -3 -10  -1    5.77    0.30 
   3  10   1    4.99    0.27 
   3  10   1    5.14    0.28 
  -4 -10  -1    7.22    0.34 
   4  10   1    7.02    0.34 
   4  10   1    7.52    0.35 
  -5 -10  -1    2.77    0.23 
   5  10   1    2.28    0.22 
   5  10   1    2.52    0.22 
   6 -11  -1    2.55    0.23 
  -6  11   1    2.67    0.22 
   5 -11  -1    3.63    0.25 
  -5  11   1    3.55    0.24 
   4 -11  -1    1.04    0.15 
  -4  11   1    1.03    0.15 
   3 -11  -1    0.77    0.14 
  -3  11   1    0.95    0.13 
  -3  11   1    0.83    0.14 
   2 -11  -1    1.19    0.14 
   2 -11  -1    0.84    0.14 
  -2  11   1    1.03    0.14 
  -2  11   1    0.71    0.13 
   1 -11  -1   31.65    0.68 
   1 -11  -1   30.95    0.70 
  -1  11   1   31.57    0.70 
  -1  11   1   31.24    0.68 
   0 -11  -1    0.42    0.11 
   0 -11  -1    0.51    0.11 
   0  11   1    0.58    0.12 
   0  11   1    0.50    0.11 
  -1 -11  -1   10.99    0.40 
   1  11   1   10.23    0.39 
   1  11   1   10.26    0.38 
  -2 -11  -1   11.62    0.43 
   2  11   1   10.94    0.40 
   2  11   1   10.79    0.41 
  -3 -11  -1    2.51    0.22 
   3  11   1    2.81    0.22 
   3  11   1    2.92    0.22 
   5 -12  -1    7.24    0.36 
  -5  12   1    7.46    0.35 
   4 -12  -1    5.49    0.31 
  -4  12   1    5.58    0.30 
   3 -12  -1    6.25    0.33 
  -3  12   1    6.43    0.31 
  -3  12   1    6.13    0.30 
   2 -12  -1    1.35    0.17 
  -2  12   1    1.15    0.14 
  -2  12   1    1.12    0.16 
   1 -12  -1    0.67    0.13 
   1 -12  -1    1.05    0.16 
  -1  12   1    1.05    0.17 
  -1  12   1    0.71    0.14 
   0 -12  -1    7.25    0.33 
   0  12   1    7.18    0.32 
   0  12   1    7.80    0.35 
  -1 -12  -1    0.88    0.16 
   1  12   1    0.92    0.15 
   1  12   1    0.89    0.17 
  -2 -12  -1    1.66    0.19 
   2  12   1    1.50    0.18 
   2  12   1    1.64    0.18 
  -2  13   1    0.98    0.22 
   1  13  -2    2.68    0.23 
  -1 -13   2    2.73    0.23 
   0  13  -2    1.65    0.18 
   0 -13   2    1.65    0.19 
   0 -13   2    1.61    0.18 
  -1  13  -2    9.99    0.40 
   1 -13   2   10.18    0.42 
   1 -13   2   10.69    0.40 
  -2  13  -2   18.44    0.55 
   2 -13   2   17.30    0.56 
  -3  13  -2   -0.04    0.07 
   3 -13   2    0.01    0.08 
   3  12  -2    0.66    0.14 
  -3 -12   2    0.68    0.16 
   2  12  -2    1.46    0.17 
  -2 -12   2    1.18    0.17 
   1  12  -2    8.86    0.37 
  -1 -12   2    9.89    0.38 
  -1 -12   2    9.09    0.38 
   0  12  -2    0.08    0.07 
   0 -12   2    0.16    0.09 
   0 -12   2    0.13    0.08 
  -1  12  -2   57.22    1.06 
   1 -12   2   56.16    1.02 
   1 -12   2   54.60    1.05 
  -2  12  -2   12.04    0.42 
   2 -12   2   12.27    0.45 
  -3  12  -2    5.71    0.29 
   3 -12   2    5.39    0.31 
  -4  12  -2    5.73    0.29 
   4 -12   2    4.75    0.29 
  -5  12  -2    0.84    0.15 
   5 -12   2    0.36    0.12 
   4  11  -2    4.40    0.27 
  -4 -11   2    4.85    0.30 
   3  11  -2    7.01    0.33 
  -3 -11   2    6.96    0.33 
   2  11  -2    0.38    0.10 
  -2 -11   2    0.36    0.10 
  -2 -11   2    0.69    0.13 
   1  11  -2   31.49    0.71 
  -1 -11   2   30.15    0.67 
  -1 -11   2   28.96    0.68 
   0  11  -2    1.13    0.14 
   0 -11   2    1.40    0.15 
   0 -11   2    1.08    0.14 
  -1  11  -2   28.66    0.65 
   1 -11   2   28.17    0.63 
   1 -11   2   28.57    0.67 
  -2  11  -2    6.25    0.28 
   2 -11   2    6.17    0.30 
   2 -11   2    6.42    0.27 
  -3  11  -2    0.56    0.11 
   3 -11   2    0.41    0.11 
  -4  11  -2   29.99    0.68 
   4 -11   2   27.83    0.70 
  -5  11  -2    5.58    0.28 
   5 -11   2    4.96    0.29 
  -6  11  -2    6.79    0.31 
   6 -11   2    6.91    0.35 
   5  10  -2    1.27    0.16 
  -5 -10   2    1.24    0.17 
   4  10  -2    0.29    0.10 
  -4 -10   2    0.33    0.11 
   3  10  -2   14.26    0.44 
  -3 -10   2   14.75    0.47 
   2  10  -2    1.88    0.17 
  -2 -10   2    1.96    0.16 
  -2 -10   2    1.54    0.16 
   1  10  -2   20.77    0.58 
   1  10  -2   19.43    0.51 
  -1 -10   2   20.99    0.53 
  -1 -10   2   20.43    0.52 
   0  10  -2    0.82    0.11 
   0  10  -2    0.89    0.11 
   0 -10   2    0.67    0.12 
   0 -10   2    0.58    0.11 
  -1  10  -2    7.19    0.27 
  -1  10  -2    7.05    0.28 
   1 -10   2    6.67    0.27 
   1 -10   2    6.91    0.29 
  -2  10  -2    4.69    0.21 
  -2  10  -2    4.99    0.24 
   2 -10   2    5.25    0.23 
   2 -10   2    4.88    0.25 
  -3  10  -2   12.28    0.36 
  -3  10  -2   12.77    0.39 
   3 -10   2   12.28    0.41 
  -4  10  -2   40.29    0.78 
  -4  10  -2   40.30    0.76 
   4 -10   2   37.22    0.80 
  -5  10  -2    1.56    0.15 
  -5  10  -2    1.89    0.16 
   5 -10   2    1.29    0.16 
  -6  10  -2    4.82    0.25 
  -6  10  -2    5.11    0.26 
   6 -10   2    4.94    0.28 
  -7  10  -2    1.52    0.17 
  -7  10  -2    1.61    0.17 
   7 -10   2    1.40    0.17 
   6   9  -2    1.56    0.17 
  -6  -9   2    1.89    0.19 
   5   9  -2    0.74    0.15 
   5   9  -2    0.34    0.10 
  -5  -9   2    0.48    0.13 
   4   9  -2    7.38    0.30 
   4   9  -2    7.55    0.31 
  -4  -9   2    8.05    0.33 
   3   9  -2   11.57    0.38 
   3   9  -2   12.42    0.37 
  -3  -9   2   12.14    0.36 
  -3  -9   2   12.32    0.40 
   2   9  -2    5.34    0.24 
   2   9  -2    5.93    0.24 
  -2  -9   2    5.80    0.26 
  -2  -9   2    5.47    0.24 
   1   9  -2   19.63    0.45 
   1   9  -2   19.52    0.48 
  -1  -9   2   19.80    0.48 
  -1  -9   2   19.97    0.49 
   0   9  -2    1.57    0.12 
   0   9  -2    1.64    0.14 
   0  -9   2    1.65    0.14 
   0  -9   2    1.81    0.14 
  -1   9  -2   11.15    0.31 
  -1   9  -2   11.02    0.34 
   1  -9   2   10.97    0.35 
   1  -9   2   11.32    0.33 
  -2   9  -2    9.26    0.29 
  -2   9  -2    9.45    0.31 
   2  -9   2    8.81    0.32 
   2  -9   2    8.91    0.28 
  -3   9  -2   20.14    0.46 
  -3   9  -2   20.64    0.49 
   3  -9   2   20.05    0.51 
  -4   9  -2   54.57    0.93 
  -4   9  -2   55.09    0.91 
   4  -9   2   51.45    0.94 
  -5   9  -2    2.79    0.18 
  -5   9  -2    2.99    0.18 
   5  -9   2    3.08    0.21 
  -6   9  -2    7.34    0.30 
  -6   9  -2    7.73    0.31 
   6  -9   2    6.83    0.31 
  -7   9  -2    0.85    0.14 
  -7   9  -2    0.55    0.12 
   7  -9   2    0.60    0.12 
   7  -9   2    0.58    0.13 
  -8   9  -2    4.90    0.29 
  -8   9  -2    5.38    0.29 
   8  -9   2    5.30    0.30 
   8  -9   2    4.79    0.28 
   7   8  -2    1.99    0.19 
  -7  -8   2    2.06    0.19 
  -7  -8   2    1.61    0.18 
   6   8  -2    3.77    0.23 
  -6  -8   2    3.87    0.23 
  -6  -8   2    4.14    0.25 
   5   8  -2    0.60    0.11 
  -5  -8   2    0.76    0.14 
  -5  -8   2    0.68    0.13 
   4   8  -2    2.46    0.17 
   4   8  -2    2.42    0.16 
  -4  -8   2    2.52    0.18 
   3   8  -2    9.40    0.32 
   3   8  -2    9.81    0.31 
  -3  -8   2    9.76    0.34 
  -3  -8   2   10.01    0.30 
   2   8  -2    7.52    0.27 
   2   8  -2    8.18    0.26 
  -2  -8   2    8.00    0.27 
  -2  -8   2    8.18    0.29 
   1   8  -2   19.98    0.46 
   1   8  -2   19.92    0.43 
  -1  -8   2   20.47    0.47 
  -1  -8   2   20.02    0.46 
   0   8  -2   10.13    0.28 
   0   8  -2   10.73    0.31 
   0  -8   2   10.14    0.31 
   0  -8   2   10.13    0.30 
  -1   8  -2   11.61    0.30 
  -1   8  -2   11.43    0.32 
   1  -8   2   11.48    0.31 
   1  -8   2   10.86    0.33 
  -2   8  -2    1.67    0.11 
  -2   8  -2    1.81    0.13 
   2  -8   2    1.44    0.13 
   2  -8   2    1.61    0.11 
  -3   8  -2    2.24    0.14 
  -3   8  -2    2.49    0.15 
   3  -8   2    2.14    0.14 
   3  -8   2    2.39    0.16 
  -4   8  -2   13.07    0.36 
  -4   8  -2   12.71    0.35 
   4  -8   2   12.73    0.32 
   4  -8   2   12.78    0.39 
  -5   8  -2   11.35    0.34 
  -5   8  -2   11.04    0.34 
   5  -8   2   11.74    0.34 
   5  -8   2   11.26    0.37 
  -6   8  -2   15.35    0.42 
  -6   8  -2   15.36    0.43 
   6  -8   2   14.96    0.42 
   6  -8   2   14.85    0.44 
  -7   8  -2    1.37    0.14 
  -7   8  -2    1.43    0.15 
   7  -8   2    1.19    0.15 
   7  -8   2    1.23    0.14 
  -8   8  -2    1.83    0.17 
  -8   8  -2    1.96    0.18 
   8  -8   2    1.79    0.18 
   8  -8   2    1.78    0.18 
   8   7  -2    1.91    0.19 
  -8  -7   2    1.92    0.19 
   7   7  -2    4.17    0.25 
  -7  -7   2    4.09    0.24 
  -7  -7   2    4.38    0.25 
   6   7  -2    2.89    0.19 
  -6  -7   2    2.56    0.19 
  -6  -7   2    2.98    0.20 
   5   7  -2    0.92    0.12 
  -5  -7   2    1.02    0.12 
  -5  -7   2    0.78    0.13 
   4   7  -2    0.86    0.10 
  -4  -7   2    0.90    0.10 
  -4  -7   2    0.94    0.13 
  -4  -7   2    1.02    0.10 
   3   7  -2    0.95    0.10 
   3   7  -2    0.84    0.09 
  -3  -7   2    0.83    0.09 
  -3  -7   2    0.98    0.11 
   2   7  -2   10.60    0.31 
   2   7  -2   11.09    0.29 
  -2  -7   2   10.31    0.31 
  -2  -7   2   10.98    0.30 
   1   7  -2    3.35    0.15 
   1   7  -2    3.34    0.16 
  -1  -7   2    3.52    0.17 
  -1  -7   2    3.44    0.17 
   0   7  -2    3.60    0.16 
   0   7  -2    3.60    0.15 
   0  -7   2    3.55    0.17 
   0  -7   2    3.81    0.17 
  -1   7  -2    5.30    0.18 
  -1   7  -2    4.94    0.19 
   1  -7   2    5.28    0.21 
   1  -7   2    5.17    0.19 
  -2   7  -2   20.51    0.41 
  -2   7  -2   20.32    0.43 
   2  -7   2   19.40    0.44 
   2  -7   2   20.43    0.35 
   2  -7   2   19.40    0.38 
  -3   7  -2    4.92    0.19 
  -3   7  -2    5.08    0.20 
   3  -7   2    5.21    0.17 
   3  -7   2    5.42    0.22 
   3  -7   2    4.94    0.17 
  -4   7  -2   20.31    0.45 
  -4   7  -2   19.77    0.43 
   4  -7   2   19.78    0.42 
   4  -7   2   19.80    0.47 
  -5   7  -2    4.73    0.21 
  -5   7  -2    4.83    0.21 
   5  -7   2    4.56    0.20 
   5  -7   2    4.64    0.22 
  -6   7  -2    0.98    0.12 
  -6   7  -2    0.82    0.11 
   6  -7   2    1.19    0.13 
   6  -7   2    0.92    0.11 
  -7   7  -2    1.28    0.14 
  -7   7  -2    1.16    0.13 
   7  -7   2    1.17    0.14 
   7  -7   2    1.27    0.14 
  -8   7  -2    4.10    0.23 
  -8   7  -2    4.62    0.26 
   8  -7   2    4.53    0.26 
   8  -7   2    4.45    0.25 
  -9   7  -2    3.76    0.24 
  -9   7  -2    4.17    0.26 
   9  -7   2    3.41    0.25 
   8   6  -2    4.08    0.25 
  -8  -6   2    4.98    0.27 
   7   6  -2    2.65    0.19 
  -7  -6   2    2.96    0.20 
  -7  -6   2    2.83    0.20 
   6   6  -2    3.99    0.22 
  -6  -6   2    3.83    0.21 
  -6  -6   2    3.87    0.21 
   5   6  -2    4.42    0.21 
  -5  -6   2    4.48    0.21 
  -5  -6   2    4.63    0.22 
   4   6  -2    1.83    0.13 
  -4  -6   2    1.24    0.10 
  -4  -6   2    1.58    0.13 
  -4  -6   2    1.29    0.11 
   3   6  -2    3.13    0.15 
  -3  -6   2    3.27    0.16 
  -3  -6   2    3.43    0.15 
  -3  -6   2    3.73    0.18 
   2   6  -2    3.15    0.15 
   2   6  -2    3.10    0.14 
  -2  -6   2    3.32    0.15 
  -2  -6   2    3.30    0.16 
   1   6  -2   19.50    0.40 
   1   6  -2   19.80    0.37 
  -1  -6   2   19.47    0.40 
  -1  -6   2   19.57    0.41 
   0   6  -2   31.07    0.54 
   0   6  -2   32.00    0.51 
   0  -6   2   31.75    0.54 
   0  -6   2   31.58    0.55 
  -1   6  -2    1.34    0.09 
  -1   6  -2    1.40    0.09 
   1  -6   2    1.32    0.10 
   1  -6   2    1.21    0.09 
   1  -6   2    1.43    0.06 
  -2   6  -2   20.22    0.38 
  -2   6  -2   19.96    0.40 
   2  -6   2   20.09    0.35 
   2  -6   2   19.39    0.42 
   2  -6   2   20.16    0.36 
  -3   6  -2    1.38    0.10 
  -3   6  -2    1.32    0.10 
   3  -6   2    1.34    0.08 
   3  -6   2    1.41    0.09 
   3  -6   2    1.27    0.11 
  -4   6  -2   39.64    0.66 
  -4   6  -2   39.85    0.67 
   4  -6   2   38.45    0.68 
   4  -6   2   39.68    0.65 
  -5   6  -2   22.51    0.48 
  -5   6  -2   23.12    0.49 
   5  -6   2   21.51    0.47 
   5  -6   2   22.37    0.49 
  -6   6  -2    6.72    0.26 
  -6   6  -2    7.19    0.27 
   6  -6   2    7.32    0.28 
   6  -6   2    7.02    0.27 
  -7   6  -2    4.73    0.24 
  -7   6  -2    4.96    0.23 
   7  -6   2    4.28    0.23 
   7  -6   2    4.27    0.22 
  -8   6  -2    0.91    0.14 
  -8   6  -2    0.84    0.14 
   8  -6   2    0.68    0.13 
  -9   6  -2    1.84    0.18 
  -9   6  -2    1.46    0.16 
   9  -6   2    1.69    0.19 
   9   5  -2    5.24    0.30 
  -9  -5   2    5.23    0.29 
   8   5  -2   26.04    0.64 
  -8  -5   2   28.34    0.66 
   7   5  -2    0.24    0.09 
  -7  -5   2    0.37    0.10 
  -7  -5   2    0.43    0.10 
   6   5  -2   27.80    0.59 
  -6  -5   2   28.91    0.60 
  -6  -5   2   29.03    0.60 
   5   5  -2    8.75    0.28 
  -5  -5   2    8.77    0.26 
  -5  -5   2    8.78    0.29 
  -5  -5   2    8.93    0.29 
   4   5  -2   59.15    0.79 
   4   5  -2   58.82    0.89 
  -4  -5   2   61.36    0.93 
  -4  -5   2   60.43    0.87 
  -4  -5   2   60.25    0.92 
   3   5  -2   20.44    0.32 
   3   5  -2   20.09    0.39 
  -3  -5   2   19.58    0.42 
  -3  -5   2   20.45    0.39 
  -3  -5   2   19.68    0.40 
   2   5  -2  227.89    2.74 
   2   5  -2  234.32    2.70 
  -2  -5   2  236.24    2.78 
  -2  -5   2  234.42    2.81 
   1   5  -2  145.37    1.74 
   1   5  -2  145.85    1.79 
  -1  -5   2  149.59    1.83 
  -1  -5   2  147.65    1.82 
   0   5  -2   60.18    0.85 
   0   5  -2   63.17    0.81 
   0  -5   2   62.40    0.85 
   0  -5   2   61.84    0.73 
   0  -5   2   61.60    0.87 
  -1   5  -2    0.30    0.04 
  -1   5  -2    0.20    0.05 
   1  -5   2    0.19    0.04 
   1  -5   2    0.29    0.05 
   1  -5   2    0.28    0.04 
  -2   5  -2   88.91    1.14 
  -2   5  -2   91.19    1.18 
   2  -5   2   89.58    1.20 
   2  -5   2   90.68    1.13 
   2  -5   2   89.50    1.12 
  -3   5  -2   23.63    0.42 
  -3   5  -2   23.49    0.43 
   3  -5   2   22.64    0.41 
   3  -5   2   22.88    0.34 
   3  -5   2   22.93    0.44 
  -4   5  -2   16.40    0.36 
  -4   5  -2   16.98    0.37 
   4  -5   2   16.06    0.37 
   4  -5   2   17.09    0.38 
  -5   5  -2    0.70    0.08 
  -5   5  -2    0.54    0.09 
   5  -5   2    0.59    0.10 
   5  -5   2    0.47    0.08 
  -6   5  -2    0.60    0.11 
  -6   5  -2    0.61    0.09 
   6  -5   2    0.45    0.08 
   6  -5   2    0.49    0.09 
  -7   5  -2    3.77    0.20 
  -7   5  -2    3.86    0.21 
   7  -5   2    4.17    0.21 
   7  -5   2    4.04    0.22 
  -8   5  -2   22.28    0.54 
  -8   5  -2   22.38    0.58 
   8  -5   2   21.13    0.57 
  -9   5  -2    6.07    0.31 
  -9   5  -2    6.14    0.29 
   9  -5   2    5.85    0.32 
   9   4  -2    7.40    0.34 
  -9  -4   2    8.00    0.34 
  -8  -4   2   25.17    0.59 
   7   4  -2    4.25    0.20 
  -7  -4   2    4.55    0.23 
  -7  -4   2    4.75    0.23 
  -7  -4   2    4.65    0.23 
   6   4  -2   13.60    0.34 
  -6  -4   2   13.16    0.36 
  -6  -4   2   13.23    0.35 
  -6  -4   2   13.05    0.36 
   5   4  -2   55.02    0.81 
  -5  -4   2   57.35    0.88 
  -5  -4   2   56.80    0.87 
  -5  -4   2   57.40    0.82 
  -5  -4   2   56.05    0.87 
   4   4  -2    4.13    0.16 
  -4  -4   2    3.96    0.16 
  -4  -4   2    3.86    0.15 
  -4  -4   2    3.89    0.16 
   3   4  -2  119.56    1.49 
  -3  -4   2  125.56    1.56 
  -3  -4   2  121.65    1.52 
  -3  -4   2  120.35    1.54 
  -3  -4   2  122.18    1.45 
   2   4  -2   37.31    0.54 
  -2  -4   2   39.18    0.50 
  -2  -4   2   38.45    0.58 
  -2  -4   2   39.19    0.60 
  -2  -4   2   37.99    0.58 
   1   4  -2  223.12    2.58 
   1   4  -2  220.93    2.53 
  -1  -4   2  229.59    2.68 
  -1  -4   2  230.33    2.68 
   0   4  -2  175.14    2.07 
   0   4  -2  175.42    2.08 
   0  -4   2  173.47    2.04 
   0  -4   2  170.07    2.02 
   0  -4   2  172.49    1.99 
  -1   4  -2    9.77    0.19 
  -1   4  -2   10.11    0.22 
   1  -4   2   10.23    0.23 
   1  -4   2   10.16    0.20 
   1  -4   2   10.08    0.19 
  -2   4  -2  284.44    3.66 
  -2   4  -2  286.97    3.33 
   2  -4   2  285.62    3.33 
   2  -4   2  281.15    3.28 
   2  -4   2  285.81    3.25 
  -3   4  -2   85.82    1.14 
  -3   4  -2   87.75    1.02 
  -3   4  -2   86.79    1.12 
   3  -4   2   81.65    1.09 
   3  -4   2   83.16    1.10 
  -4   4  -2  117.26    1.51 
  -4   4  -2  118.36    1.51 
   4  -4   2  113.94    1.47 
   4  -4   2  115.86    1.50 
  -5   4  -2    0.47    0.08 
  -5   4  -2    0.45    0.08 
   5  -4   2    0.48    0.09 
   5  -4   2    0.59    0.08 
  -6   4  -2    9.18    0.30 
  -6   4  -2    9.15    0.29 
   6  -4   2    8.77    0.26 
   6  -4   2    9.02    0.31 
  -7   4  -2   24.06    0.53 
  -7   4  -2   24.42    0.56 
   7  -4   2   23.00    0.56 
  -8   4  -2    1.13    0.14 
  -8   4  -2    1.19    0.14 
   8  -4   2    0.94    0.14 
  -9   4  -2   10.06    0.37 
  -9   4  -2   10.45    0.41 
   9  -4   2    9.61    0.40 
   9   3  -2    9.42    0.36 
  -9  -3   2    8.93    0.35 
  -9  -3   2    9.84    0.38 
   8   3  -2    2.34    0.18 
  -8  -3   2    2.53    0.19 
  -8  -3   2    2.69    0.18 
   7   3  -2    0.81    0.10 
  -7  -3   2    0.92    0.11 
  -7  -3   2    0.97    0.11 
   6   3  -2   13.96    0.35 
  -6  -3   2   13.62    0.36 
  -6  -3   2   14.26    0.34 
  -6  -3   2   13.92    0.35 
   5   3  -2   89.65    1.20 
  -5  -3   2   90.60    1.23 
  -5  -3   2   90.80    1.24 
  -5  -3   2   90.79    1.19 
  -5  -3   2   90.32    1.22 
  -4  -3   2   18.25    0.36 
  -4  -3   2   17.41    0.33 
  -4  -3   2   17.32    0.35 
  -4  -3   2   17.39    0.35 
  -4  -3   2   17.54    0.33 
  -3  -3   2    0.58    0.05 
  -3  -3   2    0.59    0.06 
  -3  -3   2    0.53    0.05 
  -3  -3   2    0.59    0.05 
  -3  -3   2    0.55    0.06 
   2   3  -2   92.34    1.13 
  -2  -3   2   93.68    1.16 
  -2  -3   2   93.40    1.17 
  -2  -3   2   93.05    1.10 
  -2  -3   2   91.83    1.15 
   1   3  -2   26.06    0.36 
   1   3  -2   27.15    0.40 
  -1  -3   2   26.56    0.42 
  -1  -3   2   27.26    0.42 
  -1  -3   2   27.46    0.35 
   0   3  -2   43.82    0.54 
   0   3  -2   42.97    0.58 
   0  -3   2   41.44    0.51 
   0  -3   2   41.11    0.55 
   0  -3   2   40.65    0.57 
  -1   3  -2  157.17    1.82 
  -1   3  -2  153.34    1.77 
   1  -3   2  148.39    1.72 
   1  -3   2  147.62    1.76 
   1  -3   2  150.37    1.72 
  -2   3  -2  185.11    2.08 
  -2   3  -2  177.30    2.09 
  -2   3  -2  180.89    2.12 
   2  -3   2  178.69    2.09 
   2  -3   2  178.19    2.09 
  -3   3  -2   36.16    0.55 
  -3   3  -2   37.12    0.57 
   3  -3   2   34.59    0.53 
   3  -3   2   35.22    0.55 
  -4   3  -2    6.97    0.21 
  -4   3  -2    7.06    0.21 
   4  -3   2    7.18    0.20 
   4  -3   2    7.33    0.22 
  -5   3  -2   25.29    0.50 
  -5   3  -2   25.76    0.49 
   5  -3   2   24.02    0.50 
   5  -3   2   24.93    0.45 
  -6   3  -2    0.88    0.10 
  -6   3  -2    0.67    0.09 
   6  -3   2    0.88    0.11 
   6  -3   2    0.79    0.08 
  -7   3  -2   11.39    0.36 
  -7   3  -2   11.20    0.35 
   7  -3   2   10.70    0.36 
  -8   3  -2    6.75    0.30 
  -8   3  -2    6.19    0.27 
   8  -3   2    5.92    0.29 
  -9   3  -2    4.40    0.25 
  -9   3  -2    4.64    0.27 
   9  -3   2    4.18    0.27 
  10   2  -2   10.06    0.41 
 -10  -2   2   11.11    0.44 
   9   2  -2   17.56    0.50 
  -9  -2   2   18.38    0.49 
  -9  -2   2   18.25    0.53 
   8   2  -2   10.65    0.36 
  -8  -2   2   10.73    0.37 
  -8  -2   2   11.17    0.35 
   7   2  -2   14.70    0.39 
  -7  -2   2   15.71    0.40 
  -7  -2   2   15.45    0.42 
   6   2  -2  115.84    1.49 
   6   2  -2  118.31    1.57 
  -6  -2   2  119.41    1.53 
  -6  -2   2  120.06    1.58 
  -6  -2   2  120.72    1.62 
  -5  -2   2   31.61    0.51 
  -5  -2   2   32.03    0.54 
  -5  -2   2   31.44    0.54 
  -5  -2   2   30.92    0.56 
  -5  -2   2   31.55    0.51 
  -4  -2   2   38.46    0.59 
  -4  -2   2   39.07    0.58 
  -4  -2   2   39.78    0.61 
  -4  -2   2   38.78    0.58 
  -4  -2   2   39.10    0.59 
  -3  -2   2    4.09    0.13 
  -3  -2   2    3.83    0.12 
  -3  -2   2    4.02    0.13 
  -3  -2   2    3.73    0.12 
  -3  -2   2    3.75    0.12 
  -2  -2   2   23.92    0.37 
  -2  -2   2   24.01    0.35 
  -2  -2   2   24.05    0.36 
  -2  -2   2   23.91    0.37 
  -2  -2   2   24.31    0.35 
   1   2  -2  131.74    1.52 
   1   2  -2  130.84    1.52 
  -1  -2   2  131.38    1.52 
  -1  -2   2  128.39    1.52 
  -1  -2   2  129.48    1.51 
   0   2  -2   34.41    0.46 
   0  -2   2   35.22    0.47 
   0  -2   2   36.43    0.45 
   0  -2   2   36.12    0.48 
  -1   2  -2 1000.00   12.24 
  -1   2  -2  978.42   12.29 
   1  -2   2  896.98   12.15 
  -2   2  -2   27.83    0.43 
  -2   2  -2   28.33    0.41 
  -2   2  -2   28.43    0.36 
   2  -2   2   27.64    0.40 
   2  -2   2   27.78    0.42 
  -3   2  -2   96.82    1.22 
  -3   2  -2   96.75    1.22 
   3  -2   2   94.72    1.15 
   3  -2   2   92.27    1.20 
  -4   2  -2   18.48    0.37 
  -4   2  -2   18.84    0.37 
   4  -2   2   19.27    0.34 
   4  -2   2   19.46    0.39 
  -5   2  -2    8.51    0.26 
  -5   2  -2    8.44    0.25 
   5  -2   2    8.31    0.26 
   5  -2   2    8.70    0.22 
  -6   2  -2    3.55    0.18 
  -6   2  -2    3.23    0.18 
   6  -2   2    3.35    0.19 
  -7   2  -2   16.29    0.44 
  -7   2  -2   15.34    0.41 
   7  -2   2   14.29    0.42 
  -8   2  -2    8.03    0.33 
  -8   2  -2    7.88    0.31 
   8  -2   2    6.85    0.31 
  -9   2  -2    4.51    0.26 
  -9   2  -2    3.73    0.23 
   9  -2   2    4.05    0.26 
  10   1  -2   17.11    0.54 
 -10  -1   2   17.56    0.55 
   9   1  -2    2.39    0.19 
  -9  -1   2    2.49    0.20 
  -9  -1   2    2.43    0.18 
   8   1  -2   71.32    1.16 
  -8  -1   2   75.38    1.24 
  -8  -1   2   76.47    1.17 
   7   1  -2    7.27    0.27 
  -7  -1   2    7.77    0.28 
  -7  -1   2    7.48    0.25 
   6   1  -2  254.76    3.08 
   6   1  -2  254.44    3.00 
  -6  -1   2  261.17    3.14 
  -6  -1   2  270.46    3.07 
  -6  -1   2  261.94    3.20 
   5   1  -2   21.99    0.40 
  -5  -1   2   22.17    0.41 
  -5  -1   2   22.36    0.38 
  -5  -1   2   21.77    0.43 
  -5  -1   2   22.29    0.44 
  -4  -1   2  148.62    1.77 
  -4  -1   2  148.37    1.75 
  -4  -1   2  147.90    1.80 
  -4  -1   2  148.95    1.81 
  -4  -1   2  147.42    1.78 
  -3  -1   2   17.05    0.30 
  -3  -1   2   16.84    0.30 
  -3  -1   2   17.27    0.28 
  -3  -1   2   17.47    0.30 
  -3  -1   2   17.01    0.28 
  -2  -1   2  123.99    1.47 
  -2  -1   2  130.43    1.48 
  -2  -1   2  121.65    1.44 
  -2  -1   2  126.42    1.45 
  -2  -1   2  125.38    1.46 
   1   1  -2  198.49    2.36 
  -1  -1   2  213.14    2.50 
  -1  -1   2  214.16    2.57 
  -1  -1   2  219.11    2.67 
  -1  -1   2  215.91    2.63 
   0   1  -2  168.35    1.95 
   0   1  -2  158.44    2.00 
   0  -1   2  161.14    2.03 
   0  -1   2  167.67    2.04 
  -1   1  -2  337.94    4.15 
  -1   1  -2  351.33    4.08 
  -1   1  -2  344.26    4.05 
   1  -1   2  347.00    4.11 
   1  -1   2  344.49    4.23 
  -2   1  -2   30.71    0.44 
  -2   1  -2   31.00    0.40 
  -2   1  -2   30.43    0.45 
   2  -1   2   29.64    0.45 
   2  -1   2   30.29    0.40 
  -3   1  -2   30.04    0.47 
  -3   1  -2   29.81    0.47 
  -3   1  -2   30.69    0.40 
   3  -1   2   29.88    0.41 
  -4   1  -2  105.66    1.22 
  -4   1  -2  102.61    1.34 
  -4   1  -2  102.36    1.35 
   4  -1   2  100.49    1.20 
   4  -1   2   98.71    1.31 
  -5   1  -2   15.95    0.37 
  -5   1  -2   16.29    0.38 
   5  -1   2   16.07    0.29 
   5  -1   2   15.64    0.37 
  -6   1  -2    5.70    0.22 
  -6   1  -2    5.78    0.23 
   6  -1   2    5.66    0.24 
  -7   1  -2    2.37    0.16 
  -7   1  -2    2.56    0.18 
   7  -1   2    2.14    0.16 
  -8   1  -2    2.59    0.19 
  -8   1  -2    2.53    0.18 
   8  -1   2    2.61    0.20 
  -9   1  -2    7.02    0.31 
  -9   1  -2    7.58    0.34 
   9  -1   2    6.56    0.32 
  10   0  -2    3.70    0.26 
 -10   0   2    4.55    0.28 
   9   0  -2    3.19    0.22 
  -9   0   2    3.47    0.23 
  -9   0   2    3.15    0.19 
   8   0  -2    8.16    0.32 
  -8   0   2    9.14    0.30 
  -8   0   2    8.48    0.33 
   7   0  -2    2.52    0.14 
   7   0  -2    2.18    0.16 
  -7   0   2    2.64    0.15 
  -7   0   2    2.59    0.17 
   6   0  -2   29.71    0.52 
  -6   0   2   30.06    0.58 
  -6   0   2   31.15    0.53 
  -6   0   2   30.54    0.58 
   5   0  -2   24.79    0.44 
  -5   0   2   25.10    0.38 
  -5   0   2   24.49    0.47 
  -5   0   2   25.03    0.43 
  -5   0   2   25.99    0.48 
   4   0  -2   24.38    0.41 
  -4   0   2   25.09    0.44 
  -4   0   2   25.13    0.36 
  -4   0   2   24.47    0.43 
  -4   0   2   23.73    0.38 
   3   0  -2   72.47    0.92 
  -3   0   2   70.24    0.92 
  -3   0   2   70.94    0.86 
  -3   0   2   71.51    0.85 
  -3   0   2   70.66    0.91 
   2   0  -2   14.28    0.22 
  -2   0   2   13.90    0.24 
  -2   0   2   13.80    0.24 
  -2   0   2   14.27    0.23 
  -2   0   2   13.89    0.20 
   1   0  -2   80.99    0.94 
  -1   0   2   83.51    0.99 
  -1   0   2   83.86    0.97 
   0   0  -2   32.78    0.41 
   0   0  -2   32.52    0.39 
   0   0   2   31.93    0.39 
   0   0   2   31.78    0.39 
   0   0   2   31.82    0.41 
  -1   0  -2   51.17    0.63 
  -1   0  -2   50.96    0.64 
  -1   0  -2   51.18    0.63 
   1   0   2   50.19    0.63 
  -2   0  -2    4.68    0.13 
  -2   0  -2    4.84    0.11 
  -2   0  -2    4.77    0.13 
   2   0   2    4.81    0.13 
  -3   0  -2  160.13    1.85 
  -3   0  -2  159.40    1.92 
  -3   0  -2  160.84    1.92 
   3   0   2  156.63    1.88 
  -4   0  -2   43.24    0.68 
  -4   0  -2   44.10    0.59 
  -4   0  -2   43.15    0.67 
   4   0   2   42.79    0.67 
   4   0   2   41.95    0.54 
  -5   0  -2   10.52    0.30 
  -5   0  -2   10.26    0.29 
  -5   0  -2   11.27    0.23 
   5   0   2   10.30    0.29 
  -6   0  -2    1.89    0.13 
  -6   0  -2    1.84    0.14 
   6   0   2    1.54    0.13 
  -7   0  -2    4.04    0.22 
  -7   0  -2    3.70    0.20 
   7   0   2    3.91    0.21 
  -8   0  -2    2.82    0.20 
  -8   0  -2    2.67    0.19 
   8   0   2    2.63    0.20 
  -9   0  -2    1.04    0.17 
  -9   0  -2    1.06    0.15 
   9   0   2    0.65    0.14 
  10  -1  -2    0.97    0.16 
 -10   1   2    1.10    0.16 
   9  -1  -2    4.06    0.25 
  -9   1   2    3.87    0.24 
   8  -1  -2    1.34    0.14 
  -8   1   2    1.28    0.14 
  -8   1   2    1.38    0.12 
   7  -1  -2   10.00    0.33 
   7  -1  -2   10.31    0.30 
  -7   1   2   10.67    0.29 
  -7   1   2   10.27    0.33 
   6  -1  -2   13.91    0.33 
  -6   1   2   13.54    0.31 
  -6   1   2   13.62    0.36 
  -6   1   2   13.29    0.35 
   5  -1  -2   20.14    0.39 
  -5   1   2   20.58    0.36 
  -5   1   2   20.12    0.42 
  -5   1   2   19.36    0.41 
   4  -1  -2   62.50    0.75 
   4  -1  -2   62.30    0.85 
  -4   1   2   63.66    0.81 
  -4   1   2   62.06    0.87 
  -4   1   2   62.60    0.88 
   3  -1  -2   58.90    0.70 
   3  -1  -2   58.32    0.78 
  -3   1   2   60.16    0.73 
  -3   1   2   59.41    0.80 
   2  -1  -2   10.59    0.20 
   2  -1  -2   10.06    0.16 
  -2   1   2    9.83    0.20 
  -2   1   2   10.22    0.15 
  -2   1   2   10.82    0.20 
   1  -1  -2  396.62    4.68 
   1  -1  -2  395.33    4.76 
  -1   1   2  377.10    4.47 
  -1   1   2  370.82    4.56 
   0  -1  -2  257.55    3.01 
   0  -1  -2  260.21    3.04 
   0  -1  -2  250.03    3.05 
   0   1   2  234.63    2.96 
   0   1   2  243.95    2.91 
  -1  -1  -2  341.53    4.06 
  -1  -1  -2  332.74    4.04 
   1   1   2  324.09    3.87 
   1   1   2  325.41    4.12 
  -2  -1  -2    8.71    0.19 
  -2  -1  -2    8.92    0.18 
  -2  -1  -2    8.58    0.19 
   2   1   2    9.15    0.19 
  -3  -1  -2  209.56    2.40 
  -3  -1  -2  205.08    2.45 
  -3  -1  -2  208.27    2.45 
   3   1   2  198.99    2.34 
  -4  -1  -2   68.35    0.96 
  -4  -1  -2   68.69    0.90 
  -4  -1  -2   67.06    0.95 
   4   1   2   66.42    0.93 
  -5  -1  -2   15.49    0.37 
  -5  -1  -2   15.40    0.37 
  -5  -1  -2   15.46    0.31 
   5   1   2   14.10    0.34 
  -6  -1  -2    8.77    0.30 
  -6  -1  -2    9.27    0.30 
   6   1   2    8.62    0.29 
  -7  -1  -2    1.56    0.14 
  -7  -1  -2    1.60    0.14 
   7   1   2    1.65    0.15 
  -8  -1  -2    1.16    0.14 
  -8  -1  -2    0.94    0.13 
   8   1   2    0.95    0.15 
  -9  -1  -2    0.67    0.14 
  -9  -1  -2    0.85    0.15 
   9   1   2    0.77    0.15 
  10  -2  -2    0.22    0.11 
 -10   2   2    0.45    0.13 
   9  -2  -2    2.26    0.19 
  -9   2   2    2.24    0.19 
   8  -2  -2    4.47    0.24 
   8  -2  -2    5.44    0.23 
  -8   2   2    4.88    0.25 
  -8   2   2    5.48    0.22 
   7  -2  -2    2.06    0.15 
   7  -2  -2    2.20    0.14 
  -7   2   2    2.33    0.13 
  -7   2   2    1.93    0.15 
   6  -2  -2   42.03    0.70 
  -6   2   2   42.78    0.74 
  -6   2   2   43.30    0.66 
  -6   2   2   41.18    0.73 
   5  -2  -2    0.72    0.07 
  -5   2   2    0.78    0.08 
  -5   2   2    0.59    0.07 
  -5   2   2    0.75    0.06 
   4  -2  -2    6.09    0.19 
  -4   2   2    6.55    0.20 
  -4   2   2    6.60    0.16 
  -4   2   2    6.13    0.19 
   3  -2  -2    9.26    0.22 
   3  -2  -2    9.45    0.15 
  -3   2   2    9.24    0.17 
  -3   2   2    9.24    0.21 
  -3   2   2    8.93    0.22 
   2  -2  -2   13.32    0.25 
   2  -2  -2   13.46    0.21 
  -2   2   2   13.03    0.19 
  -2   2   2   12.91    0.25 
  -2   2   2   12.96    0.24 
   1  -2  -2   31.38    0.42 
   1  -2  -2   30.68    0.44 
  -1   2   2   30.86    0.39 
  -1   2   2   30.69    0.41 
  -1   2   2   30.16    0.44 
   0   2   2    3.22    0.08 
   0   2   2    2.85    0.10 
  -1  -2  -2   22.18    0.35 
  -1  -2  -2   22.66    0.29 
  -1  -2  -2   22.53    0.36 
   1   2   2   21.80    0.32 
   1   2   2   21.47    0.36 
  -2  -2  -2   10.95    0.23 
  -2  -2  -2   10.99    0.23 
   2   2   2   10.90    0.24 
   2   2   2   10.37    0.21 
  -3  -2  -2    0.29    0.05 
  -3  -2  -2    0.15    0.04 
   3   2   2    0.22    0.05 
   3   2   2    0.19    0.04 
  -4  -2  -2   38.56    0.64 
  -4  -2  -2   38.99    0.64 
  -4  -2  -2   39.19    0.60 
   4   2   2   38.21    0.61 
  -5  -2  -2   40.09    0.63 
  -5  -2  -2   39.18    0.69 
  -5  -2  -2   39.20    0.69 
   5   2   2   37.34    0.64 
  -6  -2  -2    3.55    0.19 
  -6  -2  -2    3.64    0.16 
  -6  -2  -2    3.63    0.19 
   6   2   2    3.13    0.17 
  -7  -2  -2    3.63    0.21 
  -7  -2  -2    3.76    0.21 
   7   2   2    3.21    0.19 
  -8  -2  -2    1.21    0.15 
  -8  -2  -2    1.08    0.14 
   8   2   2    1.05    0.14 
  -9  -2  -2    1.48    0.17 
   9   2   2    1.37    0.18 
   9   2   2    1.43    0.17 
  10  -3  -2    0.93    0.17 
 -10   3   2    1.18    0.17 
   9  -3  -2    2.29    0.20 
  -9   3   2    2.21    0.19 
   8  -3  -2    7.77    0.32 
   8  -3  -2    8.26    0.29 
  -8   3   2    8.08    0.32 
   7  -3  -2    3.67    0.19 
   7  -3  -2    3.81    0.21 
  -7   3   2    3.40    0.19 
  -7   3   2    3.55    0.16 
   6  -3  -2   36.47    0.65 
  -6   3   2   36.20    0.67 
  -6   3   2   36.71    0.59 
  -6   3   2   35.39    0.66 
   5  -3  -2    7.76    0.24 
  -5   3   2    7.53    0.24 
  -5   3   2    8.07    0.25 
  -5   3   2    7.91    0.20 
   4  -3  -2   38.55    0.62 
  -4   3   2   38.78    0.63 
  -4   3   2   38.25    0.54 
  -4   3   2   38.79    0.61 
   3  -3  -2    0.96    0.05 
   3  -3  -2    0.91    0.07 
  -3   3   2    0.84    0.05 
  -3   3   2    0.93    0.07 
  -3   3   2    0.88    0.07 
   2  -3  -2   49.43    0.69 
   2  -3  -2   49.34    0.63 
  -2   3   2   49.46    0.62 
  -2   3   2   49.08    0.66 
  -2   3   2   49.63    0.70 
   1  -3  -2    4.63    0.12 
   1  -3  -2    4.56    0.13 
  -1   3   2    4.69    0.11 
  -1   3   2    4.63    0.14 
  -1   3   2    4.68    0.11 
   0  -3  -2   35.68    0.49 
   0  -3  -2   35.44    0.49 
   0  -3  -2   35.15    0.51 
   0   3   2   35.39    0.45 
   0   3   2   34.74    0.53 
  -1  -3  -2    0.30    0.04 
  -1  -3  -2    0.58    0.05 
  -1  -3  -2    0.35    0.03 
   1   3   2    0.34    0.05 
   1   3   2    0.34    0.03 
  -2  -3  -2   39.40    0.60 
  -2  -3  -2   39.69    0.60 
  -2  -3  -2   40.54    0.50 
   2   3   2   38.28    0.53 
   2   3   2   38.82    0.61 
  -3  -3  -2   31.99    0.53 
  -3  -3  -2   32.23    0.55 
   3   3   2   31.32    0.49 
   3   3   2   31.31    0.55 
  -4  -3  -2   57.69    0.84 
  -4  -3  -2   56.79    0.87 
   4   3   2   54.86    0.79 
   4   3   2   53.78    0.86 
  -5  -3  -2   81.61    1.15 
  -5  -3  -2   82.04    1.20 
   5   3   2   78.52    1.10 
   5   3   2   76.64    1.17 
  -6  -3  -2    0.58    0.08 
  -6  -3  -2    0.52    0.10 
   6   3   2    0.36    0.08 
   6   3   2    0.50    0.11 
  -7  -3  -2   16.96    0.47 
   7   3   2   15.55    0.47 
   7   3   2   16.33    0.43 
  -8  -3  -2    1.09    0.14 
   8   3   2    1.22    0.15 
  -9  -3  -2    3.52    0.25 
   9   3   2    2.68    0.23 
  10  -4  -2    0.04    0.08 
 -10   4   2    0.00    0.07 
   9  -4  -2    4.12    0.24 
   9  -4  -2    4.05    0.26 
  -9   4   2    4.04    0.25 
   8  -4  -2   11.57    0.39 
   8  -4  -2   11.61    0.37 
  -8   4   2   11.94    0.40 
   7  -4  -2    2.60    0.16 
   7  -4  -2    2.63    0.17 
  -7   4   2    2.55    0.14 
  -7   4   2    2.62    0.17 
   6  -4  -2   34.99    0.65 
  -6   4   2   36.49    0.59 
  -6   4   2   36.14    0.67 
   5  -4  -2   27.10    0.52 
  -5   4   2   27.93    0.46 
  -5   4   2   27.00    0.52 
  -5   4   2   28.07    0.55 
  -4   4   2   11.39    0.24 
   3  -4  -2    7.23    0.21 
   3  -4  -2    7.49    0.16 
  -3   4   2    7.48    0.22 
  -3   4   2    7.33    0.17 
  -3   4   2    6.88    0.19 
   2  -4  -2    4.07    0.15 
   2  -4  -2    4.15    0.12 
  -2   4   2    3.89    0.12 
  -2   4   2    4.09    0.15 
  -2   4   2    3.85    0.12 
   1  -4  -2  141.97    1.72 
   1  -4  -2  143.65    1.71 
  -1   4   2  143.17    1.70 
  -1   4   2  145.82    1.67 
   0  -4  -2   11.30    0.23 
   0  -4  -2   11.04    0.25 
   0  -4  -2   11.00    0.23 
   0   4   2   11.38    0.18 
   0   4   2   11.31    0.26 
  -1  -4  -2   17.31    0.34 
  -1  -4  -2   17.62    0.29 
  -1  -4  -2   17.41    0.33 
   1   4   2   17.65    0.26 
   1   4   2   17.67    0.36 
  -2  -4  -2   12.41    0.29 
  -2  -4  -2   12.51    0.22 
  -2  -4  -2   12.82    0.30 
   2   4   2   12.33    0.23 
   2   4   2   12.57    0.30 
  -3  -4  -2    0.93    0.09 
  -3  -4  -2    0.95    0.09 
   3   4   2    0.95    0.09 
   3   4   2    0.94    0.07 
  -4  -4  -2   25.57    0.52 
  -4  -4  -2   26.27    0.51 
   4   4   2   23.97    0.43 
   4   4   2   24.71    0.52 
  -5  -4  -2   14.96    0.40 
  -5  -4  -2   15.35    0.38 
   5   4   2   14.85    0.35 
   5   4   2   14.66    0.41 
  -6  -4  -2    8.80    0.32 
  -6  -4  -2    9.27    0.30 
   6   4   2    8.76    0.33 
  -7  -4  -2    1.65    0.16 
   7   4   2    1.76    0.17 
  -8  -4  -2   16.54    0.51 
   8   4   2   15.10    0.51 
  10  -5  -2    3.93    0.26 
 -10   5   2    4.28    0.28 
   9  -5  -2   11.35    0.42 
   9  -5  -2   11.03    0.39 
  -9   5   2   11.38    0.43 
   8  -5  -2   35.73    0.73 
   8  -5  -2   35.19    0.75 
  -8   5   2   37.12    0.79 
   7  -5  -2    1.67    0.15 
   7  -5  -2    1.79    0.15 
  -7   5   2    1.89    0.16 
   6  -5  -2   55.10    0.92 
   6  -5  -2   55.48    0.91 
  -6   5   2   55.96    0.82 
  -6   5   2   55.52    0.93 
   5  -5  -2    4.10    0.19 
  -5   5   2    4.05    0.19 
  -5   5   2    3.84    0.17 
  -5   5   2    3.70    0.14 
   4  -5  -2   13.18    0.23 
   4  -5  -2   13.12    0.34 
  -4   5   2   13.25    0.33 
  -4   5   2   13.29    0.30 
  -4   5   2   12.63    0.27 
   3  -5  -2   10.43    0.28 
   3  -5  -2   10.56    0.22 
  -3   5   2   10.08    0.23 
  -3   5   2   10.47    0.24 
  -3   5   2    9.89    0.27 
   2  -5  -2   84.35    1.08 
   2  -5  -2   85.39    1.15 
  -2   5   2   87.35    1.17 
  -2   5   2   85.68    1.09 
  -2   5   2   84.59    1.06 
   1  -5  -2  138.09    1.69 
   1  -5  -2  137.88    1.71 
  -1   5   2  138.31    1.67 
  -1   5   2  139.17    1.74 
  -1   5   2  137.73    1.60 
   0  -5  -2    5.47    0.18 
   0  -5  -2    5.64    0.17 
   0   5   2    5.90    0.17 
   0   5   2    5.32    0.19 
  -1  -5  -2    2.00    0.09 
  -1  -5  -2    2.04    0.11 
  -1  -5  -2    1.93    0.11 
   1   5   2    1.98    0.12 
  -3  -5  -2    2.34    0.14 
  -3  -5  -2    2.14    0.14 
   3   5   2    2.63    0.16 
  -4  -5  -2   46.17    0.79 
  -4  -5  -2   45.81    0.78 
   4   5   2   43.84    0.79 
  -5  -5  -2    1.19    0.12 
  -5  -5  -2    1.27    0.12 
   5   5   2    0.94    0.12 
  -6  -5  -2    5.45    0.24 
  -6  -5  -2    4.98    0.25 
   6   5   2    5.05    0.26 
  -7  -5  -2    4.28    0.25 
   7   5   2    3.17    0.23 
  -8  -5  -2   12.64    0.46 
   8   5   2   11.22    0.44 
   9  -6  -2    7.10    0.34 
   9  -6  -2    7.22    0.33 
  -9   6   2    7.83    0.36 
   8  -6  -2   18.81    0.52 
   8  -6  -2   19.25    0.53 
  -8   6   2   19.48    0.55 
   7  -6  -2   21.34    0.53 
   7  -6  -2   21.99    0.53 
  -7   6   2   21.76    0.54 
   6  -6  -2   21.91    0.50 
   6  -6  -2   22.14    0.52 
  -6   6   2   22.33    0.53 
  -6   6   2   22.11    0.44 
   5  -6  -2   91.95    1.33 
   5  -6  -2   90.49    1.27 
  -5   6   2   94.72    1.36 
  -5   6   2   92.21    1.23 
   4  -6  -2    7.07    0.25 
  -4   6   2    7.36    0.21 
  -4   6   2    7.95    0.27 
  -4   6   2    7.36    0.22 
   3  -6  -2  143.58    1.73 
   3  -6  -2  141.91    1.85 
  -3   6   2  145.48    1.78 
  -3   6   2  145.51    1.76 
  -3   6   2  145.87    1.88 
   2  -6  -2   51.85    0.76 
   2  -6  -2   52.78    0.82 
  -2   6   2   52.33    0.69 
  -2   6   2   51.70    0.75 
  -2   6   2   51.67    0.82 
   1  -6  -2  246.10    2.91 
   1  -6  -2  243.72    2.90 
  -1   6   2  244.98    2.97 
  -1   6   2  246.80    2.77 
  -1   6   2  246.91    2.89 
   0  -6  -2   22.34    0.42 
   0  -6  -2   21.54    0.43 
   0   6   2   21.97    0.42 
   0   6   2   22.58    0.46 
  -1  -6  -2   34.16    0.55 
  -1  -6  -2   34.35    0.58 
  -1  -6  -2   33.27    0.60 
   1   6   2   34.47    0.63 
  -2  -6  -2   54.76    0.86 
  -2  -6  -2   55.63    0.88 
  -2  -6  -2   55.57    0.78 
   2   6   2   55.87    0.90 
  -3  -6  -2   19.08    0.45 
  -3  -6  -2   19.45    0.45 
   3   6   2   18.12    0.45 
  -4  -6  -2   48.11    0.85 
  -4  -6  -2   49.03    0.85 
   4   6   2   48.19    0.87 
  -5  -6  -2    7.10    0.29 
  -5  -6  -2    6.68    0.28 
   5   6   2    6.57    0.29 
  -6  -6  -2    7.42    0.31 
  -6  -6  -2    8.48    0.34 
   6   6   2    6.63    0.31 
  -7  -6  -2   27.61    0.69 
   7   6   2   25.79    0.68 
   9  -7  -2   12.46    0.45 
   9  -7  -2   11.27    0.43 
  -9   7   2   11.50    0.44 
   8  -7  -2   12.94    0.43 
   8  -7  -2   12.86    0.44 
  -8   7   2   13.42    0.45 
   7  -7  -2   19.38    0.50 
   7  -7  -2   19.57    0.53 
  -7   7   2   19.14    0.53 
   6  -7  -2    9.58    0.31 
   6  -7  -2    9.08    0.33 
  -6   7   2    9.97    0.35 
   5  -7  -2    7.38    0.25 
   5  -7  -2    7.80    0.30 
  -5   7   2    7.29    0.23 
  -5   7   2    7.22    0.28 
   4  -7  -2    9.70    0.26 
   4  -7  -2    9.50    0.32 
  -4   7   2    9.85    0.26 
  -4   7   2    9.52    0.31 
   3  -7  -2   50.06    0.75 
   3  -7  -2   51.16    0.85 
  -3   7   2   50.35    0.85 
  -3   7   2   51.24    0.77 
   2  -7  -2    6.42    0.23 
   2  -7  -2    6.65    0.21 
  -2   7   2    6.45    0.21 
  -2   7   2    6.39    0.24 
   1  -7  -2   20.08    0.42 
   1  -7  -2   20.30    0.43 
  -1   7   2   20.04    0.46 
  -1   7   2   20.54    0.41 
   0  -7  -2   28.75    0.53 
   0  -7  -2   28.75    0.55 
   0   7   2   28.39    0.52 
   0   7   2   27.28    0.56 
  -1  -7  -2    9.98    0.31 
  -1  -7  -2    9.13    0.26 
   1   7   2    9.79    0.31 
   1   7   2    9.75    0.29 
  -2  -7  -2   43.92    0.75 
  -2  -7  -2   43.70    0.78 
   2   7   2   43.32    0.79 
  -3  -7  -2   27.68    0.60 
  -3  -7  -2   27.80    0.58 
   3   7   2   26.64    0.60 
  -4  -7  -2   10.01    0.36 
  -4  -7  -2   11.22    0.36 
   4   7   2    9.87    0.36 
  -5  -7  -2   23.47    0.59 
  -5  -7  -2   24.44    0.59 
   5   7   2   23.04    0.60 
  -6  -7  -2    1.45    0.16 
  -6  -7  -2    1.38    0.16 
   6   7   2    1.33    0.17 
  -7  -7  -2    6.32    0.33 
  -7  -7  -2    6.57    0.32 
   7   7   2    6.48    0.35 
   9  -8  -2    8.22    0.38 
   9  -8  -2    8.53    0.37 
  -9   8   2    7.96    0.38 
   8  -8  -2   10.66    0.39 
   8  -8  -2   10.99    0.42 
  -8   8   2   10.03    0.40 
   7  -8  -2   18.94    0.50 
   7  -8  -2   19.15    0.55 
  -7   8   2   19.01    0.53 
   6  -8  -2  151.43    2.14 
   6  -8  -2  154.27    2.03 
  -6   8   2  155.42    2.16 
   5  -8  -2   12.31    0.40 
  -5   8   2   12.26    0.39 
   4  -8  -2   68.55    1.12 
  -4   8   2   69.97    1.13 
  -4   8   2   72.26    1.04 
   3  -8  -2   22.31    0.45 
   3  -8  -2   22.40    0.52 
  -3   8   2   21.49    0.51 
  -3   8   2   21.64    0.44 
   2  -8  -2   74.26    1.14 
   2  -8  -2   73.90    1.08 
  -2   8   2   76.98    1.18 
  -2   8   2   77.09    1.11 
   1  -8  -2   54.28    0.88 
   1  -8  -2   53.68    0.87 
  -1   8   2   55.45    0.87 
  -1   8   2   54.84    0.93 
   0  -8  -2  127.73    1.70 
   0  -8  -2  128.55    1.73 
   0   8   2  125.21    1.74 
   0   8   2  125.67    1.67 
  -1  -8  -2   92.32    1.28 
  -1  -8  -2   91.43    1.36 
   1   8   2   89.14    1.29 
   1   8   2   88.18    1.33 
  -2  -8  -2    5.09    0.24 
   2   8   2    5.12    0.25 
  -3  -8  -2    7.63    0.31 
  -3  -8  -2    8.18    0.30 
   3   8   2    7.95    0.32 
  -4  -8  -2   10.09    0.37 
  -4  -8  -2   11.04    0.37 
   4   8   2   11.05    0.40 
  -5  -8  -2    4.30    0.25 
  -5  -8  -2    4.44    0.26 
   5   8   2    4.27    0.26 
  -6  -8  -2    3.33    0.24 
  -6  -8  -2    3.60    0.25 
   6   8   2    3.05    0.24 
   8  -9  -2    8.13    0.37 
  -8   9   2    9.12    0.39 
   7  -9  -2   17.48    0.54 
  -7   9   2   17.71    0.53 
   6  -9  -2   35.43    0.78 
  -6   9   2   35.93    0.78 
   5  -9  -2    5.92    0.28 
  -5   9   2    6.60    0.30 
   4  -9  -2    3.27    0.21 
  -4   9   2    3.02    0.17 
  -4   9   2    3.16    0.20 
   3  -9  -2   17.58    0.48 
   3  -9  -2   16.89    0.40 
  -3   9   2   16.97    0.46 
  -3   9   2   17.06    0.41 
   2  -9  -2    3.87    0.21 
   2  -9  -2    4.07    0.20 
  -2   9   2    4.05    0.22 
  -2   9   2    4.21    0.20 
   1  -9  -2    2.81    0.17 
   1  -9  -2    3.22    0.18 
  -1   9   2    3.14    0.19 
  -1   9   2    2.82    0.17 
   0  -9  -2    7.95    0.28 
   0  -9  -2    8.61    0.31 
   0   9   2    8.62    0.32 
   0   9   2    8.32    0.29 
  -1  -9  -2    2.53    0.18 
   1   9   2    2.76    0.19 
   1   9   2    2.57    0.17 
  -2  -9  -2   20.03    0.53 
   2   9   2   19.48    0.51 
   2   9   2   20.14    0.53 
  -3  -9  -2    2.59    0.20 
   3   9   2    2.28    0.19 
   3   9   2    2.25    0.18 
  -4  -9  -2   15.51    0.49 
  -4  -9  -2   16.48    0.50 
   4   9   2   16.03    0.51 
  -5  -9  -2   -0.04    0.07 
  -5  -9  -2   -0.02    0.07 
   5   9   2   -0.03    0.06 
   7 -10  -2    1.89    0.20 
  -7  10   2    2.31    0.21 
   6 -10  -2    0.90    0.16 
  -6  10   2    0.89    0.16 
   5 -10  -2   17.36    0.53 
  -5  10   2   17.13    0.52 
   4 -10  -2    5.03    0.27 
  -4  10   2    5.06    0.27 
   3 -10  -2   22.45    0.58 
  -3  10   2   22.50    0.51 
  -3  10   2   22.11    0.57 
   2 -10  -2    2.90    0.20 
   2 -10  -2    2.68    0.17 
  -2  10   2    2.52    0.19 
  -2  10   2    2.73    0.17 
   1 -10  -2    3.14    0.20 
   1 -10  -2    3.05    0.19 
  -1  10   2    3.04    0.19 
  -1  10   2    2.69    0.19 
   0 -10  -2    7.00    0.30 
   0 -10  -2    6.76    0.28 
   0  10   2    6.46    0.29 
   0  10   2    6.88    0.28 
  -1 -10  -2    3.08    0.21 
   1  10   2    2.81    0.20 
   1  10   2    3.18    0.20 
  -2 -10  -2   12.16    0.42 
   2  10   2   12.06    0.43 
   2  10   2   12.25    0.41 
  -3 -10  -2   12.25    0.44 
   3  10   2   12.11    0.44 
   3  10   2   12.90    0.44 
  -4 -10  -2    5.95    0.32 
   4  10   2    5.82    0.32 
   4  10   2    5.71    0.31 
   6 -11  -2    1.25    0.17 
  -6  11   2    1.14    0.17 
   5 -11  -2    2.75    0.23 
  -5  11   2    2.40    0.21 
   4 -11  -2    7.16    0.34 
  -4  11   2    7.81    0.34 
   3 -11  -2    1.26    0.15 
  -3  11   2    1.28    0.16 
   2 -11  -2    0.41    0.10 
   2 -11  -2    0.38    0.10 
  -2  11   2    0.45    0.11 
  -2  11   2    0.57    0.11 
   1 -11  -2    6.47    0.29 
   1 -11  -2    6.16    0.29 
  -1  11   2    6.08    0.28 
  -1  11   2    6.27    0.30 
   0 -11  -2    7.95    0.34 
   0  11   2    7.60    0.32 
   0  11   2    8.33    0.35 
  -1 -11  -2    2.88    0.22 
   1  11   2    2.83    0.21 
   1  11   2    2.59    0.21 
  -2 -11  -2    0.36    0.11 
   2  11   2    0.38    0.11 
   2  11   2    0.42    0.11 
  -3 -11  -2    4.98    0.30 
   3  11   2    4.68    0.29 
   3  11   2    4.00    0.26 
   5 -12  -2    0.96    0.17 
  -5  12   2    0.86    0.16 
   4 -12  -2    1.87    0.20 
  -4  12   2    1.90    0.19 
   3 -12  -2    0.99    0.16 
  -3  12   2    0.84    0.15 
   2 -12  -2    0.50    0.13 
   2 -12  -2    0.43    0.15 
  -2  12   2    0.51    0.13 
   1 -12  -2    3.71    0.24 
   1 -12  -2    3.65    0.24 
  -1  12   2    3.59    0.23 
  -1  12   2    3.37    0.24 
   0 -12  -2    3.80    0.25 
   0  12   2    3.71    0.25 
   0  12   2    3.85    0.24 
  -1 -12  -2    0.34    0.11 
   1  12   2    0.04    0.08 
   1  12   2    0.10    0.08 
   1  13  -3    0.73    0.15 
  -1 -13   3    0.61    0.14 
  -1 -13   3    0.71    0.16 
   0  13  -3    0.93    0.17 
   0 -13   3    0.85    0.16 
   0 -13   3    0.65    0.15 
  -1  13  -3    5.29    0.29 
   1 -13   3    4.64    0.27 
   1 -13   3    5.11    0.30 
  -2  13  -3    1.04    0.15 
   2 -13   3    0.87    0.16 
  -3  13  -3    0.73    0.14 
   3 -13   3    0.90    0.17 
   3  12  -3   -0.05    0.06 
  -3 -12   3    0.00    0.08 
   2  12  -3    2.70    0.22 
  -2 -12   3    2.73    0.22 
  -2 -12   3    2.44    0.21 
   1  12  -3   10.15    0.40 
  -1 -12   3   10.17    0.40 
  -1 -12   3    9.89    0.39 
   0  12  -3    3.40    0.23 
   0 -12   3    3.46    0.24 
   0 -12   3    3.70    0.24 
  -1  12  -3    2.70    0.20 
   1 -12   3    3.06    0.23 
   1 -12   3    2.85    0.22 
  -2  12  -3    2.88    0.22 
   2 -12   3    3.12    0.24 
  -3  12  -3    3.81    0.24 
   3 -12   3    3.64    0.25 
  -4  12  -3    8.34    0.35 
   4 -12   3    7.67    0.37 
  -5  12  -3    0.98    0.16 
   5 -12   3    1.30    0.19 
   4  11  -3    2.16    0.20 
  -4 -11   3    2.16    0.20 
   3  11  -3    0.18    0.09 
  -3 -11   3    0.15    0.08 
   2  11  -3    7.56    0.33 
  -2 -11   3    7.79    0.34 
  -2 -11   3    7.80    0.32 
   1  11  -3    6.54    0.30 
  -1 -11   3    6.39    0.30 
  -1 -11   3    6.02    0.29 
   0  11  -3    0.40    0.11 
   0 -11   3    0.84    0.15 
   0 -11   3    0.69    0.13 
  -1  11  -3    2.47    0.19 
   1 -11   3    2.69    0.19 
   1 -11   3    2.84    0.21 
  -2  11  -3    0.95    0.13 
   2 -11   3    0.81    0.16 
   2 -11   3    0.90    0.13 
  -3  11  -3   12.71    0.41 
   3 -11   3   12.26    0.44 
  -4  11  -3    9.98    0.37 
   4 -11   3    8.76    0.37 
  -5  11  -3    3.28    0.22 
   5 -11   3    3.69    0.25 
  -6  11  -3    2.06    0.19 
   6 -11   3    1.41    0.18 
   5  10  -3    4.84    0.28 
  -5 -10   3    5.23    0.30 
   4  10  -3    7.01    0.32 
  -4 -10   3    8.40    0.36 
   3  10  -3    1.54    0.15 
  -3 -10   3    1.96    0.16 
  -3 -10   3    1.47    0.16 
   2  10  -3   33.35    0.71 
  -2 -10   3   34.35    0.74 
  -2 -10   3   32.89    0.70 
   1  10  -3   13.75    0.42 
  -1 -10   3   13.45    0.41 
  -1 -10   3   13.75    0.42 
   0  10  -3   16.14    0.45 
   0 -10   3   16.59    0.46 
   0 -10   3   17.18    0.46 
  -1  10  -3   15.11    0.43 
   1 -10   3   14.62    0.40 
   1 -10   3   14.71    0.44 
  -2  10  -3    2.59    0.18 
   2 -10   3    2.82    0.17 
   2 -10   3    2.65    0.19 
  -3  10  -3    8.56    0.32 
   3 -10   3    9.10    0.35 
  -4  10  -3    2.51    0.18 
   4 -10   3    2.56    0.20 
  -5  10  -3    3.52    0.22 
   5 -10   3    3.34    0.23 
  -6  10  -3    4.03    0.24 
   6 -10   3    3.82    0.25 
  -7  10  -3    2.49    0.20 
   7 -10   3    2.80    0.23 
   6   9  -3    2.01    0.19 
  -6  -9   3    2.22    0.20 
   5   9  -3    6.03    0.29 
  -5  -9   3    5.77    0.30 
   4   9  -3    1.17    0.14 
  -4  -9   3    1.20    0.15 
   3   9  -3    1.88    0.16 
  -3  -9   3    2.14    0.17 
  -3  -9   3    2.55    0.17 
   2   9  -3   10.71    0.35 
  -2  -9   3   10.38    0.34 
  -2  -9   3   10.25    0.35 
   1   9  -3   18.23    0.46 
  -1  -9   3   17.28    0.45 
  -1  -9   3   16.82    0.45 
   0   9  -3    1.70    0.14 
   0   9  -3    1.51    0.13 
   0  -9   3    1.70    0.14 
   0  -9   3    1.53    0.14 
  -1   9  -3    6.63    0.26 
  -1   9  -3    6.65    0.23 
   1  -9   3    6.20    0.26 
   1  -9   3    6.24    0.24 
  -2   9  -3   19.06    0.47 
  -2   9  -3   18.49    0.41 
   2  -9   3   18.47    0.42 
  -3   9  -3    2.31    0.16 
  -3   9  -3    2.57    0.15 
   3  -9   3    2.23    0.17 
  -4   9  -3   21.03    0.51 
  -4   9  -3   21.49    0.48 
   4  -9   3   19.90    0.53 
  -5   9  -3    0.30    0.09 
  -5   9  -3    0.34    0.09 
   5  -9   3    0.31    0.10 
  -6   9  -3   10.38    0.37 
  -6   9  -3   10.00    0.35 
   6  -9   3    8.92    0.36 
  -7   9  -3    1.01    0.13 
  -7   9  -3    0.96    0.14 
   7  -9   3    1.12    0.15 
   7  -9   3    1.21    0.16 
  -8   9  -3   13.18    0.45 
  -8   9  -3   12.77    0.45 
   8  -9   3   12.62    0.45 
   8  -9   3   13.31    0.46 
  -7  -8   3    4.36    0.27 
  -7  -8   3    4.61    0.27 
  -6  -8   3    0.67    0.13 
  -6  -8   3    0.80    0.14 
   5   8  -3    6.65    0.29 
   5   8  -3    6.32    0.27 
  -5  -8   3    6.31    0.29 
   4   8  -3    0.16    0.07 
   4   8  -3    0.23    0.07 
  -4  -8   3    0.15    0.08 
  -4  -8   3    0.04    0.06 
   3   8  -3    0.69    0.10 
   3   8  -3    0.84    0.09 
  -3  -8   3    0.92    0.11 
  -3  -8   3    0.64    0.09 
   2   8  -3   19.80    0.47 
   2   8  -3   20.79    0.43 
  -2  -8   3   19.74    0.46 
  -2  -8   3   19.87    0.48 
   1   8  -3   10.77    0.32 
   1   8  -3   11.14    0.29 
  -1  -8   3   11.22    0.33 
  -1  -8   3   10.93    0.33 
   0   8  -3    4.60    0.18 
   0   8  -3    4.44    0.20 
   0  -8   3    3.88    0.19 
   0  -8   3    4.51    0.20 
  -1   8  -3    0.80    0.08 
  -1   8  -3    0.99    0.10 
   1  -8   3    0.88    0.10 
   1  -8   3    1.00    0.11 
  -2   8  -3    1.00    0.10 
  -2   8  -3    0.87    0.09 
   2  -8   3    0.85    0.09 
   2  -8   3    0.92    0.11 
  -3   8  -3    0.24    0.07 
  -3   8  -3    0.26    0.07 
   3  -8   3    0.21    0.07 
  -4   8  -3    6.41    0.24 
  -4   8  -3    7.36    0.27 
   4  -8   3    7.31    0.25 
   4  -8   3    7.31    0.29 
  -5   8  -3    8.85    0.29 
  -5   8  -3    8.51    0.31 
   5  -8   3    8.09    0.28 
   5  -8   3    8.41    0.32 
  -6   8  -3    5.37    0.25 
  -6   8  -3    5.31    0.25 
   6  -8   3    5.27    0.26 
   6  -8   3    5.45    0.25 
  -7   8  -3   11.20    0.38 
  -7   8  -3   10.78    0.37 
   7  -8   3   10.11    0.37 
   7  -8   3   10.26    0.37 
  -8   8  -3    2.68    0.21 
  -8   8  -3    2.83    0.21 
   8  -8   3    2.98    0.22 
   8   7  -3    1.74    0.18 
  -8  -7   3    1.38    0.17 
   7   7  -3    3.50    0.22 
  -7  -7   3    3.75    0.23 
  -7  -7   3    3.84    0.24 
   6   7  -3    0.25    0.08 
  -6  -7   3    0.20    0.09 
  -6  -7   3    0.16    0.07 
   5   7  -3    0.09    0.06 
  -5  -7   3   -0.05    0.05 
  -5  -7   3    0.17    0.07 
   4   7  -3    9.00    0.30 
   4   7  -3    8.86    0.28 
  -4  -7   3    9.26    0.29 
  -4  -7   3    9.74    0.33 
   3   7  -3   17.99    0.39 
   3   7  -3   17.90    0.43 
  -3  -7   3   18.35    0.42 
  -3  -7   3   18.33    0.45 
   2   7  -3   29.73    0.52 
   2   7  -3   29.87    0.57 
  -2  -7   3   30.64    0.60 
  -2  -7   3   30.75    0.58 
   1   7  -3  117.51    1.49 
  -1  -7   3  117.43    1.57 
  -1  -7   3  118.26    1.58 
   0   7  -3    6.45    0.19 
   0   7  -3    6.69    0.23 
   0  -7   3    6.24    0.22 
   0  -7   3    6.25    0.23 
  -1   7  -3   19.95    0.43 
  -1   7  -3   20.63    0.38 
   1  -7   3   20.12    0.37 
   1  -7   3   19.69    0.40 
   1  -7   3   19.00    0.44 
  -2   7  -3    3.17    0.14 
  -2   7  -3    3.66    0.17 
   2  -7   3    3.19    0.14 
   2  -7   3    3.58    0.13 
   2  -7   3    3.39    0.17 
  -3   7  -3   23.49    0.49 
  -3   7  -3   23.33    0.45 
   3  -7   3   23.00    0.44 
   3  -7   3   22.77    0.50 
   3  -7   3   23.68    0.41 
  -4   7  -3   21.42    0.48 
  -4   7  -3   21.34    0.45 
   4  -7   3   20.82    0.44 
   4  -7   3   20.97    0.49 
  -5   7  -3    6.14    0.24 
  -5   7  -3    5.97    0.24 
   5  -7   3    5.84    0.24 
   5  -7   3    5.60    0.24 
  -6   7  -3   22.63    0.53 
  -6   7  -3   23.38    0.54 
   6  -7   3   23.50    0.54 
   6  -7   3   22.05    0.53 
  -7   7  -3    1.36    0.14 
  -7   7  -3    1.91    0.16 
   7  -7   3    1.59    0.15 
   7  -7   3    1.48    0.15 
  -8   7  -3    1.00    0.14 
  -8   7  -3    0.96    0.14 
   8  -7   3    1.13    0.18 
  -9   7  -3    6.71    0.34 
  -9   7  -3    6.92    0.32 
   9  -7   3    7.17    0.35 
   8   6  -3    2.09    0.19 
  -8  -6   3    2.06    0.18 
   7   6  -3   12.92    0.41 
  -7  -6   3   12.97    0.41 
  -7  -6   3   14.07    0.43 
   6   6  -3    6.80    0.27 
  -6  -6   3    7.07    0.28 
  -6  -6   3    6.96    0.28 
   5   6  -3    4.71    0.21 
  -5  -6   3    4.72    0.21 
  -5  -6   3    4.61    0.22 
  -5  -6   3    4.92    0.20 
   4   6  -3    2.71    0.14 
  -4  -6   3    2.99    0.15 
  -4  -6   3    3.05    0.17 
  -4  -6   3    2.67    0.15 
   3   6  -3    3.18    0.16 
   3   6  -3    3.14    0.14 
  -3  -6   3    3.33    0.16 
  -3  -6   3    3.36    0.17 
   2   6  -3   21.45    0.39 
   2   6  -3   21.35    0.44 
  -2  -6   3   21.96    0.45 
  -2  -6   3   21.67    0.44 
   1   6  -3   44.95    0.64 
   1   6  -3   43.49    0.70 
  -1  -6   3   45.78    0.73 
  -1  -6   3   47.01    0.74 
   0   6  -3    5.53    0.16 
   0   6  -3    5.33    0.19 
   0  -6   3    5.66    0.20 
   0  -6   3    5.59    0.13 
   0  -6   3    5.54    0.19 
  -1   6  -3    0.11    0.04 
  -1   6  -3    0.18    0.05 
   1  -6   3    0.33    0.06 
   1  -6   3    0.09    0.03 
   1  -6   3    0.19    0.06 
  -2   6  -3   63.37    0.92 
  -2   6  -3   62.20    0.85 
   2  -6   3   62.98    0.85 
   2  -6   3   63.02    0.86 
  -3   6  -3    1.10    0.09 
  -3   6  -3    1.26    0.10 
   3  -6   3    1.00    0.07 
   3  -6   3    1.17    0.10 
   3  -6   3    1.16    0.09 
  -4   6  -3   53.02    0.84 
  -4   6  -3   51.06    0.79 
   4  -6   3   50.33    0.80 
   4  -6   3   50.91    0.83 
  -5   6  -3    5.77    0.23 
  -5   6  -3    5.94    0.23 
   5  -6   3    5.33    0.23 
   5  -6   3    5.69    0.23 
  -6   6  -3   13.49    0.38 
  -6   6  -3   12.87    0.37 
   6  -6   3   12.73    0.37 
   6  -6   3   12.16    0.38 
  -7   6  -3    0.47    0.10 
  -7   6  -3    0.42    0.10 
   7  -6   3    0.45    0.11 
   7  -6   3    0.35    0.09 
  -8   6  -3    7.34    0.31 
  -8   6  -3    7.86    0.33 
   8  -6   3    7.25    0.33 
  -9   6  -3   15.95    0.49 
  -9   6  -3   15.68    0.51 
   9  -6   3   14.74    0.51 
   9   5  -3   11.30    0.43 
  -9  -5   3   12.06    0.43 
   8   5  -3    5.62    0.28 
  -8  -5   3    5.84    0.28 
   7   5  -3   24.55    0.58 
  -7  -5   3   26.58    0.60 
  -7  -5   3   26.89    0.59 
   6   5  -3   13.97    0.39 
  -6  -5   3   14.90    0.40 
  -6  -5   3   14.86    0.40 
   5   5  -3    4.74    0.20 
  -5  -5   3    4.89    0.19 
  -5  -5   3    5.00    0.21 
  -5  -5   3    4.81    0.20 
   4   5  -3   38.46    0.64 
  -4  -5   3   39.82    0.65 
  -4  -5   3   39.66    0.58 
  -4  -5   3   39.38    0.66 
  -4  -5   3   39.38    0.68 
   3   5  -3    2.82    0.12 
  -3  -5   3    2.81    0.15 
  -3  -5   3    2.95    0.14 
  -3  -5   3    2.57    0.09 
  -3  -5   3    2.93    0.14 
   2   5  -3  190.80    2.23 
   2   5  -3  190.52    2.30 
  -2  -5   3  200.67    2.27 
  -2  -5   3  200.56    2.42 
  -2  -5   3  198.76    2.42 
   1   5  -3    8.70    0.23 
   1   5  -3    8.87    0.19 
  -1  -5   3    8.97    0.24 
  -1  -5   3    9.30    0.25 
  -1  -5   3    9.29    0.17 
   0   5  -3    4.84    0.16 
   0   5  -3    4.90    0.13 
   0  -5   3    4.62    0.12 
   0  -5   3    4.77    0.16 
   0  -5   3    4.55    0.16 
  -1   5  -3   41.67    0.57 
   1  -5   3   40.28    0.60 
   1  -5   3   40.72    0.56 
  -2   5  -3  273.10    3.17 
  -2   5  -3  267.63    3.10 
   2  -5   3  263.78    3.10 
   2  -5   3  264.65    3.03 
   2  -5   3  258.21    3.00 
  -3   5  -3   16.96    0.33 
  -3   5  -3   17.05    0.28 
  -3   5  -3   16.67    0.36 
   3  -5   3   16.77    0.35 
   3  -5   3   16.82    0.37 
  -4   5  -3   43.44    0.69 
  -4   5  -3   43.15    0.71 
   4  -5   3   41.41    0.69 
   4  -5   3   42.00    0.69 
  -5   5  -3    2.58    0.15 
  -5   5  -3    2.55    0.15 
   5  -5   3    2.24    0.15 
   5  -5   3    2.21    0.14 
  -6   5  -3   15.63    0.41 
  -6   5  -3   15.43    0.41 
   6  -5   3   15.14    0.38 
   6  -5   3   15.36    0.42 
  -7   5  -3    2.50    0.18 
  -7   5  -3    2.39    0.17 
   7  -5   3    2.41    0.18 
  -8   5  -3   56.45    1.01 
  -8   5  -3   56.64    1.03 
   8  -5   3   53.89    1.03 
  -9   5  -3   29.26    0.69 
  -9   5  -3   29.48    0.72 
   9  -5   3   27.79    0.72 
  -9  -4   3    6.69    0.30 
  -8  -4   3    3.35    0.21 
  -8  -4   3    3.23    0.20 
   7   4  -3    7.63    0.27 
  -7  -4   3    7.93    0.29 
  -7  -4   3    7.96    0.29 
  -7  -4   3    7.74    0.27 
   6   4  -3    8.17    0.26 
  -6  -4   3    8.06    0.27 
  -6  -4   3    7.83    0.24 
  -6  -4   3    8.13    0.27 
  -6  -4   3    8.35    0.27 
  -5  -4   3   60.57    0.92 
  -5  -4   3   58.78    0.91 
  -5  -4   3   60.74    0.86 
  -5  -4   3   60.19    0.90 
  -5  -4   3   61.15    0.89 
  -4  -4   3   14.10    0.33 
  -4  -4   3   14.02    0.30 
  -4  -4   3   13.72    0.28 
  -4  -4   3   13.85    0.31 
  -4  -4   3   14.51    0.33 
   3   4  -3   22.71    0.39 
  -3  -4   3   22.89    0.37 
  -3  -4   3   23.08    0.43 
  -3  -4   3   22.62    0.41 
  -3  -4   3   22.57    0.42 
   2   4  -3   17.52    0.34 
   2   4  -3   17.35    0.29 
  -2  -4   3   16.93    0.33 
  -2  -4   3   16.59    0.34 
  -2  -4   3   17.32    0.27 
   1   4  -3   43.81    0.56 
   1   4  -3   43.44    0.63 
  -1  -4   3   44.43    0.56 
  -1  -4   3   43.82    0.64 
  -1  -4   3   41.56    0.64 
   0   4  -3  103.77    1.30 
   0   4  -3  106.01    1.22 
   0  -4   3  101.90    1.27 
   0  -4   3  101.46    1.29 
   0  -4   3  102.14    1.21 
  -1   4  -3  400.77    4.64 
  -1   4  -3  388.23    4.78 
   1  -4   3  403.38    4.89 
   1  -4   3  407.15    4.60 
   1  -4   3  405.49    4.82 
  -2   4  -3  236.55    2.94 
  -2   4  -3  237.87    2.72 
   2  -4   3  235.49    2.75 
   2  -4   3  233.38    2.72 
  -3   4  -3   46.21    0.67 
  -3   4  -3   46.88    0.60 
  -3   4  -3   46.73    0.71 
   3  -4   3   44.21    0.67 
   3  -4   3   44.69    0.67 
  -4   4  -3   22.27    0.44 
  -4   4  -3   22.70    0.43 
   4  -4   3   23.50    0.47 
   4  -4   3   22.88    0.43 
  -5   4  -3    4.23    0.19 
  -5   4  -3    3.83    0.17 
   5  -4   3    3.98    0.19 
   5  -4   3    3.96    0.16 
  -6   4  -3   12.33    0.35 
  -6   4  -3   12.78    0.36 
   6  -4   3   12.45    0.37 
   6  -4   3   12.57    0.32 
  -7   4  -3    2.04    0.16 
  -7   4  -3    1.79    0.15 
   7  -4   3    1.78    0.16 
  -8   4  -3   46.65    0.91 
  -8   4  -3   45.29    0.88 
   8  -4   3   42.78    0.88 
  -9   4  -3   16.49    0.52 
  -9   4  -3   15.36    0.48 
   9  -4   3   14.72    0.50 
   9   3  -3    1.94    0.18 
  -9  -3   3    2.45    0.19 
  -9  -3   3    2.66    0.20 
   8   3  -3    9.52    0.34 
  -8  -3   3    9.68    0.33 
  -8  -3   3   10.42    0.36 
   7   3  -3    2.77    0.17 
  -7  -3   3    2.89    0.18 
  -7  -3   3    3.10    0.17 
  -6  -3   3    5.92    0.22 
  -6  -3   3    6.16    0.22 
  -6  -3   3    5.58    0.20 
  -6  -3   3    5.76    0.20 
  -6  -3   3    5.66    0.22 
  -5  -3   3   19.74    0.40 
  -5  -3   3   20.17    0.40 
  -5  -3   3   19.66    0.39 
  -5  -3   3   19.17    0.40 
  -5  -3   3   19.78    0.41 
  -4  -3   3   46.97    0.70 
  -4  -3   3   47.94    0.71 
  -4  -3   3   48.30    0.70 
  -4  -3   3   47.54    0.69 
  -4  -3   3   47.42    0.70 
  -3  -3   3   30.55    0.49 
  -3  -3   3   30.21    0.46 
  -3  -3   3   30.18    0.47 
  -3  -3   3   29.92    0.49 
  -3  -3   3   29.43    0.45 
   2   3  -3   33.54    0.50 
  -2  -3   3   34.43    0.53 
  -2  -3   3   35.06    0.49 
  -2  -3   3   35.41    0.53 
   1   3  -3   20.51    0.28 
   1   3  -3   20.85    0.34 
  -1  -3   3   20.45    0.36 
  -1  -3   3   21.14    0.31 
   0   3  -3   10.13    0.21 
   0  -3   3    9.56    0.21 
   0  -3   3    9.73    0.18 
   0  -3   3    9.76    0.20 
  -1   3  -3   78.21    0.92 
  -1   3  -3   76.67    0.98 
   1  -3   3   75.48    0.94 
   1  -3   3   74.89    0.92 
   1  -3   3   74.37    0.96 
  -2   3  -3    2.21    0.10 
  -2   3  -3    2.24    0.09 
  -2   3  -3    2.37    0.08 
   2  -3   3    2.31    0.10 
   2  -3   3    2.27    0.10 
  -3   3  -3   29.36    0.39 
  -3   3  -3   29.39    0.49 
  -3   3  -3   28.87    0.47 
   3  -3   3   27.97    0.48 
   3  -3   3   28.33    0.45 
  -4   3  -3   51.29    0.76 
  -4   3  -3   49.84    0.77 
   4  -3   3   49.89    0.71 
   4  -3   3   49.89    0.78 
  -5   3  -3    2.93    0.15 
  -5   3  -3    2.35    0.14 
   5  -3   3    2.25    0.14 
   5  -3   3    2.43    0.12 
  -6   3  -3   15.95    0.41 
  -6   3  -3   15.96    0.40 
   6  -3   3   14.96    0.41 
  -7   3  -3    2.72    0.18 
  -7   3  -3    2.59    0.18 
   7  -3   3    2.54    0.19 
  -8   3  -3   16.96    0.48 
  -8   3  -3   17.96    0.51 
   8  -3   3   15.43    0.48 
  -9   3  -3    8.15    0.36 
  -9   3  -3    8.38    0.35 
   9  -3   3    7.97    0.36 
  10   2  -3    5.99    0.31 
 -10  -2   3    5.81    0.31 
   9   2  -3    7.22    0.32 
  -9  -2   3    7.95    0.31 
  -9  -2   3    7.98    0.34 
   8   2  -3    0.81    0.12 
  -8  -2   3    0.74    0.11 
  -8  -2   3    0.68    0.12 
   7   2  -3   15.18    0.41 
   7   2  -3   17.15    0.42 
  -7  -2   3   16.20    0.39 
  -7  -2   3   15.39    0.41 
   6   2  -3   12.67    0.31 
  -6  -2   3   13.22    0.34 
  -6  -2   3   13.21    0.32 
  -6  -2   3   13.06    0.31 
  -6  -2   3   13.45    0.35 
  -5  -2   3   56.74    0.81 
  -5  -2   3   57.56    0.82 
  -5  -2   3   57.42    0.84 
  -5  -2   3   56.96    0.83 
  -5  -2   3   56.75    0.84 
  -4  -2   3   42.78    0.65 
  -4  -2   3   43.08    0.62 
  -4  -2   3   42.34    0.64 
  -4  -2   3   43.66    0.64 
  -4  -2   3   43.30    0.64 
  -3  -2   3    3.45    0.13 
  -3  -2   3    3.32    0.11 
  -3  -2   3    3.33    0.11 
  -3  -2   3    3.35    0.12 
  -3  -2   3    3.89    0.13 
  -2  -2   3   55.79    0.75 
  -2  -2   3   56.77    0.71 
  -2  -2   3   56.80    0.73 
  -2  -2   3   55.08    0.75 
  -2  -2   3   56.90    0.69 
  -1  -2   3   70.31    0.88 
  -1  -2   3   69.51    0.86 
   0   2  -3   49.35    0.64 
   0   2  -3   49.64    0.63 
   0  -2   3   47.39    0.61 
   0  -2   3   47.97    0.63 
  -1   2  -3   37.07    0.49 
  -1   2  -3   37.08    0.46 
  -1   2  -3   36.28    0.51 
   1  -2   3   35.91    0.50 
   1  -2   3   35.38    0.49 
  -2   2  -3    2.05    0.09 
  -2   2  -3    1.98    0.08 
  -2   2  -3    2.14    0.07 
   2  -2   3    1.99    0.08 
   2  -2   3    1.82    0.09 
  -3   2  -3   63.71    0.88 
  -3   2  -3   63.68    0.86 
  -3   2  -3   63.96    0.78 
   3  -2   3   62.09    0.80 
  -4   2  -3   95.05    1.28 
  -4   2  -3   97.13    1.14 
  -4   2  -3   97.07    1.27 
   4  -2   3   90.14    1.24 
   4  -2   3   92.23    1.14 
  -5   2  -3    4.07    0.18 
  -5   2  -3    3.94    0.18 
   5  -2   3    4.15    0.19 
   5  -2   3    3.93    0.14 
  -6   2  -3    9.18    0.30 
  -6   2  -3    9.32    0.30 
   6  -2   3    8.96    0.31 
  -7   2  -3    4.36    0.22 
  -7   2  -3    4.50    0.23 
   7  -2   3    4.12    0.23 
  -8   2  -3    9.63    0.36 
  -8   2  -3    8.92    0.34 
   8  -2   3    8.78    0.35 
  -9   2  -3    7.79    0.33 
  -9   2  -3    8.18    0.36 
   9  -2   3    7.30    0.35 
  10   1  -3    3.50    0.25 
 -10  -1   3    3.23    0.23 
   9   1  -3   12.21    0.42 
  -9  -1   3   11.85    0.41 
   8   1  -3    3.64    0.21 
  -8  -1   3    3.82    0.22 
  -8  -1   3    3.92    0.19 
   7   1  -3    2.96    0.15 
  -7  -1   3    2.56    0.15 
  -7  -1   3    2.99    0.18 
   6   1  -3   38.79    0.64 
  -6  -1   3   39.05    0.58 
  -6  -1   3   36.13    0.66 
  -6  -1   3   38.53    0.67 
  -6  -1   3   37.45    0.61 
   5   1  -3   11.08    0.27 
  -5  -1   3   11.17    0.28 
  -5  -1   3   11.01    0.29 
  -5  -1   3   11.52    0.24 
  -5  -1   3   11.15    0.25 
  -4  -1   3   13.59    0.29 
  -4  -1   3   13.59    0.29 
  -4  -1   3   13.23    0.26 
  -4  -1   3   13.67    0.26 
  -4  -1   3   13.36    0.29 
  -3  -1   3   17.34    0.30 
  -3  -1   3   17.91    0.28 
  -3  -1   3   17.76    0.30 
  -3  -1   3   17.28    0.32 
  -3  -1   3   17.54    0.32 
  -2  -1   3    6.63    0.15 
  -2  -1   3    6.86    0.14 
  -2  -1   3    6.76    0.16 
  -2  -1   3    6.85    0.13 
  -2  -1   3    6.63    0.16 
   1   1  -3    3.22    0.07 
   1   1  -3    3.23    0.09 
  -1  -1   3    3.28    0.10 
  -1  -1   3    3.42    0.07 
  -1  -1   3    3.19    0.10 
   0   1  -3  498.80    5.73 
   0   1  -3  478.14    5.82 
   0  -1   3  481.73    5.57 
   0  -1   3  458.95    5.61 
   0  -1   3  466.21    5.31 
  -1   1  -3    5.75    0.12 
  -1   1  -3    5.91    0.14 
  -1   1  -3    5.98    0.13 
   1  -1   3    5.92    0.15 
   1  -1   3    5.62    0.12 
  -2   1  -3   16.89    0.29 
  -2   1  -3   16.51    0.30 
  -2   1  -3   16.72    0.26 
   2  -1   3   15.83    0.30 
   2  -1   3   16.30    0.24 
  -3   1  -3   97.92    1.16 
  -3   1  -3   97.79    1.24 
  -3   1  -3   96.59    1.25 
   3  -1   3   92.99    1.10 
   3  -1   3   93.33    1.21 
  -4   1  -3   23.33    0.44 
  -4   1  -3   21.76    0.34 
  -4   1  -3   22.78    0.43 
   4  -1   3   22.02    0.44 
   4  -1   3   22.33    0.34 
  -5   1  -3    3.39    0.16 
  -5   1  -3    3.88    0.18 
   5  -1   3    3.29    0.17 
  -6   1  -3    2.91    0.17 
  -6   1  -3    2.80    0.17 
   6  -1   3    2.91    0.17 
  -7   1  -3    2.16    0.16 
  -7   1  -3    2.17    0.16 
   7  -1   3    2.33    0.17 
  -8   1  -3    9.91    0.36 
  -8   1  -3   10.48    0.38 
   8  -1   3    9.65    0.37 
  -9   1  -3    3.82    0.24 
  -9   1  -3    3.73    0.25 
   9  -1   3    3.67    0.25 
  10   0  -3    2.44    0.22 
 -10   0   3    2.18    0.20 
   9   0  -3   10.45    0.39 
  -9   0   3   11.12    0.40 
   8   0  -3    1.36    0.14 
  -8   0   3    1.63    0.15 
  -8   0   3    1.76    0.13 
   7   0  -3    1.11    0.10 
  -7   0   3    1.02    0.11 
  -7   0   3    1.28    0.10 
  -7   0   3    1.03    0.11 
   6   0  -3   17.45    0.38 
  -6   0   3   16.82    0.40 
  -6   0   3   17.35    0.41 
  -6   0   3   17.25    0.35 
   5   0  -3   10.59    0.27 
   5   0  -3   10.41    0.21 
  -5   0   3   10.55    0.23 
  -5   0   3   10.99    0.28 
  -5   0   3   10.29    0.28 
   4   0  -3   84.21    1.04 
   4   0  -3   86.01    1.11 
  -4   0   3   86.46    1.12 
  -4   0   3   85.07    1.05 
   3   0  -3  253.80    2.98 
  -3   0   3  248.31    3.04 
  -3   0   3  250.12    3.02 
  -3   0   3  239.30    5.10 
  -3   0   3  258.85    2.92 
   2   0  -3  164.91    2.01 
  -2   0   3  175.62    1.95 
  -2   0   3  169.47    1.96 
  -2   0   3  167.92    1.99 
  -2   0   3  169.51    1.99 
   1   0  -3    5.99    0.13 
  -1   0   3    5.94    0.12 
  -1   0   3    5.99    0.14 
  -1   0   3    6.13    0.14 
   0   0  -3    3.12    0.09 
   0   0  -3    3.13    0.08 
   0   0   3    2.99    0.09 
   0   0   3    3.04    0.08 
   0   0   3    3.10    0.08 
  -1   0  -3   89.47    1.07 
  -1   0  -3   88.39    1.07 
   1   0   3   86.31    1.07 
   1   0   3   87.49    1.05 
   1   0   3   86.96    0.99 
  -2   0  -3   24.07    0.39 
  -2   0  -3   24.19    0.36 
  -2   0  -3   24.11    0.38 
   2   0   3   22.26    0.37 
  -3   0  -3   11.50    0.26 
  -3   0  -3   11.61    0.23 
   3   0   3   10.61    0.25 
  -4   0  -3    0.93    0.08 
  -4   0  -3    0.86    0.08 
  -4   0  -3    0.83    0.06 
   4   0   3    0.97    0.08 
  -5   0  -3    4.62    0.19 
  -5   0  -3    4.80    0.20 
  -5   0  -3    4.89    0.15 
   5   0   3    5.12    0.21 
  -6   0  -3    4.79    0.22 
  -6   0  -3    4.75    0.22 
   6   0   3    4.15    0.20 
  -7   0  -3    1.16    0.13 
  -7   0  -3    1.32    0.14 
   7   0   3    1.30    0.13 
  -8   0  -3    9.97    0.37 
  -8   0  -3    9.95    0.37 
   8   0   3    9.61    0.37 
  -9   0  -3    1.87    0.18 
  -9   0  -3    2.08    0.19 
   9   0   3    1.96    0.20 
  10  -1  -3    6.35    0.33 
 -10   1   3    6.21    0.32 
   9  -1  -3    3.29    0.22 
  -9   1   3    3.92    0.24 
   8  -1  -3    0.37    0.09 
   8  -1  -3    0.18    0.08 
  -8   1   3    0.34    0.09 
   7  -1  -3    3.42    0.18 
  -7   1   3    3.83    0.16 
  -7   1   3    3.81    0.20 
  -7   1   3    4.02    0.20 
   6  -1  -3   42.46    0.71 
  -6   1   3   40.92    0.72 
  -6   1   3   42.95    0.64 
  -6   1   3   42.78    0.73 
   5  -1  -3    3.29    0.15 
   5  -1  -3    3.08    0.09 
  -5   1   3    3.02    0.15 
  -5   1   3    2.84    0.14 
  -5   1   3    3.08    0.11 
   4  -1  -3    9.52    0.24 
   4  -1  -3    8.81    0.17 
  -4   1   3    9.53    0.19 
  -4   1   3    9.54    0.24 
  -4   1   3    9.22    0.24 
   3  -1  -3  104.68    1.31 
   3  -1  -3  105.57    1.23 
  -3   1   3  107.75    1.33 
  -3   1   3  108.30    1.23 
  -3   1   3  105.99    1.34 
   2  -1  -3    7.43    0.17 
   2  -1  -3    7.48    0.15 
  -2   1   3    7.55    0.18 
  -2   1   3    7.75    0.17 
   1  -1  -3  148.93    1.80 
   1  -1  -3  148.71    1.80 
  -1   1   3  147.65    1.71 
  -1   1   3  146.62    1.87 
   0  -1  -3   14.03    0.21 
   0  -1  -3   13.82    0.21 
   0  -1  -3   13.61    0.24 
   0   1   3   13.59    0.23 
   0   1   3   13.65    0.24 
  -1  -1  -3   76.70    0.96 
  -1  -1  -3   76.56    0.95 
   1   1   3   74.69    0.94 
   1   1   3   75.60    0.95 
  -2  -1  -3    8.74    0.20 
  -2  -1  -3    8.66    0.20 
   2   1   3    8.49    0.20 
   2   1   3    8.60    0.21 
  -3  -1  -3    9.38    0.24 
  -3  -1  -3    9.37    0.22 
  -3  -1  -3    9.28    0.24 
   3   1   3    8.99    0.23 
  -4  -1  -3    7.72    0.23 
  -4  -1  -3    7.56    0.20 
  -4  -1  -3    7.80    0.23 
   4   1   3    7.86    0.23 
  -5  -1  -3   13.11    0.29 
  -5  -1  -3   12.39    0.34 
  -5  -1  -3   12.43    0.33 
   5   1   3   12.37    0.33 
  -6  -1  -3    7.08    0.27 
  -6  -1  -3    7.22    0.27 
   6   1   3    7.33    0.27 
  -7  -1  -3    4.05    0.22 
  -7  -1  -3    3.85    0.22 
   7   1   3    3.22    0.20 
  -8  -1  -3    7.74    0.33 
  -8  -1  -3    7.47    0.32 
   8   1   3    7.42    0.32 
  -9  -1  -3    6.79    0.33 
   9   1   3    6.56    0.33 
  10  -2  -3    2.40    0.22 
 -10   2   3    2.50    0.21 
   9  -2  -3    1.30    0.15 
  -9   2   3    1.86    0.18 
   8  -2  -3    2.07    0.15 
   8  -2  -3    1.94    0.17 
  -8   2   3    2.10    0.17 
   7  -2  -3    3.11    0.17 
  -7   2   3    3.17    0.18 
  -7   2   3    3.01    0.14 
  -7   2   3    2.91    0.18 
   6  -2  -3   15.60    0.38 
  -6   2   3   15.95    0.39 
  -6   2   3   16.27    0.32 
  -6   2   3   15.88    0.39 
   5  -2  -3    4.52    0.18 
  -5   2   3    4.88    0.19 
  -5   2   3    5.01    0.19 
  -5   2   3    5.04    0.15 
   4  -2  -3    4.75    0.17 
   4  -2  -3    4.70    0.11 
  -4   2   3    4.90    0.12 
  -4   2   3    4.61    0.17 
  -4   2   3    4.66    0.17 
   3  -2  -3    6.70    0.19 
   3  -2  -3    6.94    0.14 
  -3   2   3    6.81    0.19 
  -3   2   3    6.86    0.19 
  -3   2   3    7.23    0.13 
   2  -2  -3   33.78    0.46 
   2  -2  -3   33.04    0.50 
  -2   2   3   32.35    0.48 
  -2   2   3   32.16    0.49 
   1  -2  -3  633.15    7.57 
   1  -2  -3  625.22    7.59 
   1  -2  -3  653.82    7.29 
  -1   2   3  619.23    7.35 
  -1   2   3  612.42    7.52 
   0  -2  -3   37.39    0.53 
   0  -2  -3   37.85    0.49 
   0  -2  -3   37.58    0.49 
   0   2   3   37.44    0.54 
   0   2   3   37.08    0.50 
  -1  -2  -3  213.87    2.56 
  -1  -2  -3  210.60    2.49 
  -1  -2  -3  219.44    2.47 
   1   2   3  217.01    2.50 
   1   2   3  211.31    2.45 
  -2  -2  -3    1.37    0.08 
  -2  -2  -3    1.40    0.08 
   2   2   3    1.29    0.09 
   2   2   3    1.26    0.07 
  -3  -2  -3   24.79    0.45 
  -3  -2  -3   24.10    0.43 
   3   2   3   23.34    0.41 
   3   2   3   23.68    0.45 
  -4  -2  -3   40.78    0.67 
  -4  -2  -3   39.91    0.63 
   4   2   3   40.52    0.65 
   4   2   3   39.73    0.69 
  -5  -2  -3    9.68    0.30 
  -5  -2  -3   10.48    0.27 
   5   2   3   10.30    0.32 
   5   2   3    9.84    0.29 
  -6  -2  -3   36.22    0.70 
   6   2   3   36.01    0.68 
   6   2   3   35.04    0.71 
  -7  -2  -3    1.21    0.14 
   7   2   3    1.34    0.15 
   7   2   3    1.09    0.13 
  -8  -2  -3    6.66    0.31 
   8   2   3    7.04    0.31 
   8   2   3    6.67    0.32 
  -9  -2  -3    4.39    0.27 
   9   2   3    4.52    0.29 
   9   2   3    4.26    0.27 
  10  -3  -3   -0.02    0.08 
 -10   3   3    0.08    0.09 
   9  -3  -3    3.41    0.21 
   9  -3  -3    3.21    0.23 
  -9   3   3    3.24    0.22 
   8  -3  -3    4.78    0.25 
   8  -3  -3    4.86    0.23 
  -8   3   3    5.23    0.26 
   7  -3  -3    2.97    0.17 
  -7   3   3    2.99    0.18 
  -7   3   3    3.20    0.19 
   6  -3  -3   12.51    0.34 
  -6   3   3   12.76    0.35 
  -6   3   3   12.38    0.35 
  -6   3   3   12.77    0.28 
   5  -3  -3    3.03    0.15 
  -5   3   3    3.15    0.11 
  -5   3   3    3.27    0.16 
  -5   3   3    3.01    0.15 
   4  -3  -3    2.98    0.14 
   4  -3  -3    3.00    0.09 
  -4   3   3    2.75    0.13 
  -4   3   3    3.08    0.14 
  -4   3   3    2.93    0.10 
   3  -3  -3    1.51    0.07 
   3  -3  -3    1.56    0.10 
  -3   3   3    1.44    0.09 
  -3   3   3    1.46    0.09 
  -3   3   3    1.38    0.06 
   2  -3  -3    5.44    0.14 
   2  -3  -3    5.58    0.17 
  -2   3   3    5.44    0.15 
  -2   3   3    5.51    0.17 
  -2   3   3    5.66    0.12 
   1  -3  -3  323.67    3.80 
   1  -3  -3  315.75    3.81 
  -1   3   3  312.53    3.70 
  -1   3   3  319.58    3.77 
  -1   3   3  311.74    4.08 
   0  -3  -3  120.36    1.44 
   0  -3  -3  121.94    1.48 
   0  -3  -3  121.14    1.43 
   0   3   3  118.34    1.40 
   0   3   3  119.09    1.48 
  -1  -3  -3    1.27    0.08 
  -1  -3  -3    1.42    0.06 
  -1  -3  -3    1.32    0.08 
   1   3   3    1.57    0.07 
   1   3   3    1.44    0.09 
  -2  -3  -3   32.65    0.53 
  -2  -3  -3   31.90    0.53 
   2   3   3   30.94    0.54 
   2   3   3   31.65    0.48 
  -3  -3  -3   11.98    0.29 
  -3  -3  -3   12.26    0.30 
   3   3   3   11.35    0.31 
   3   3   3   12.15    0.27 
  -4  -3  -3   76.77    1.09 
  -4  -3  -3   77.64    1.12 
   4   3   3   73.70    1.11 
   4   3   3   74.01    1.03 
  -5  -3  -3    3.81    0.17 
  -5  -3  -3    3.67    0.19 
   5   3   3    3.64    0.17 
   5   3   3    3.59    0.19 
  -6  -3  -3   40.25    0.70 
  -6  -3  -3   39.83    0.77 
   6   3   3   39.18    0.77 
   6   3   3   38.36    0.71 
  -7  -3  -3    6.37    0.29 
   7   3   3    5.55    0.25 
   7   3   3    5.52    0.28 
  -8  -3  -3   -0.05    0.06 
   8   3   3   -0.02    0.06 
  10  -4  -3    0.07    0.08 
 -10   4   3    0.06    0.08 
   9  -4  -3   11.70    0.40 
   9  -4  -3   12.18    0.43 
  -9   4   3   12.53    0.44 
   8  -4  -3    1.89    0.17 
   8  -4  -3    2.12    0.16 
  -8   4   3    2.51    0.19 
   7  -4  -3   22.00    0.51 
  -7   4   3   23.01    0.54 
  -7   4   3   22.43    0.54 
   6  -4  -3   15.06    0.39 
  -6   4   3   16.00    0.33 
  -6   4   3   15.36    0.41 
  -6   4   3   15.96    0.40 
   5  -4  -3    9.69    0.29 
  -5   4   3    9.83    0.22 
  -5   4   3    9.69    0.28 
  -5   4   3   10.07    0.30 
   4  -4  -3   28.61    0.53 
   4  -4  -3   28.43    0.41 
  -4   4   3   28.82    0.43 
  -4   4   3   28.68    0.53 
  -4   4   3   29.00    0.51 
   3  -4  -3    6.85    0.21 
   3  -4  -3    6.79    0.16 
  -3   4   3    6.83    0.15 
  -3   4   3    6.62    0.21 
  -3   4   3    6.72    0.19 
   2  -4  -3  206.15    2.40 
   2  -4  -3  206.92    2.46 
  -2   4   3  210.28    2.46 
  -2   4   3  205.93    2.41 
  -2   4   3  206.13    2.48 
   1  -4  -3  217.05    2.55 
   1  -4  -3  218.63    2.55 
  -1   4   3  216.83    2.63 
  -1   4   3  214.07    2.46 
  -1   4   3  214.66    2.57 
   0  -4  -3   87.05    1.13 
   0  -4  -3   85.48    1.08 
   0  -4  -3   86.86    1.09 
   0   4   3   87.18    1.05 
   0   4   3   86.39    1.16 
  -1  -4  -3   14.20    0.31 
  -1  -4  -3   13.04    0.24 
  -1  -4  -3   13.93    0.29 
   1   4   3   13.72    0.24 
   1   4   3   13.11    0.31 
  -2  -4  -3    9.26    0.26 
  -2  -4  -3    9.08    0.17 
  -2  -4  -3    9.01    0.24 
   2   4   3    9.00    0.20 
   2   4   3    9.14    0.27 
  -3  -4  -3    3.30    0.16 
  -3  -4  -3    3.48    0.16 
   3   4   3    3.17    0.13 
   3   4   3    3.22    0.17 
  -4  -4  -3   22.89    0.47 
  -4  -4  -3   23.10    0.50 
   4   4   3   22.81    0.51 
   4   4   3   23.20    0.44 
  -5  -4  -3   10.42    0.32 
  -5  -4  -3   10.55    0.34 
   5   4   3    9.69    0.28 
   5   4   3    9.56    0.33 
  -6  -4  -3    8.97    0.31 
  -6  -4  -3    8.52    0.32 
   6   4   3    7.66    0.32 
  -7  -4  -3    0.48    0.12 
   7   4   3    0.26    0.10 
  -8  -4  -3    4.39    0.27 
   8   4   3    3.48    0.25 
  10  -5  -3    2.99    0.24 
 -10   5   3    3.49    0.26 
   9  -5  -3   24.00    0.64 
   9  -5  -3   24.99    0.62 
  -9   5   3   24.64    0.65 
   8  -5  -3    5.76    0.28 
   8  -5  -3    6.32    0.29 
  -8   5   3    5.88    0.29 
   7  -5  -3   49.59    0.88 
   7  -5  -3   47.30    0.88 
  -7   5   3   47.98    0.88 
   6  -5  -3   43.77    0.79 
  -6   5   3   43.38    0.80 
  -6   5   3   43.69    0.76 
   5  -5  -3    3.85    0.19 
  -5   5   3    4.18    0.14 
  -5   5   3    3.92    0.18 
  -5   5   3    3.82    0.19 
   4  -5  -3   21.77    0.36 
   4  -5  -3   22.63    0.47 
  -4   5   3   22.04    0.37 
  -4   5   3   22.28    0.43 
  -4   5   3   21.50    0.47 
   3  -5  -3    5.93    0.21 
   3  -5  -3    5.91    0.17 
  -3   5   3    5.89    0.21 
  -3   5   3    6.25    0.18 
  -3   5   3    6.07    0.16 
   2  -5  -3   79.61    1.10 
   2  -5  -3   79.84    1.05 
  -2   5   3   79.97    1.02 
  -2   5   3   80.10    1.13 
  -2   5   3   80.30    1.02 
   1  -5  -3   37.09    0.59 
   1  -5  -3   37.33    0.59 
  -1   5   3   36.40    0.62 
  -1   5   3   36.46    0.51 
  -1   5   3   36.64    0.55 
   0  -5  -3    1.36    0.08 
   0  -5  -3    1.37    0.08 
   0  -5  -3    1.42    0.10 
   0   5   3    1.34    0.06 
   0   5   3    1.36    0.10 
  -1  -5  -3   79.95    1.03 
  -1  -5  -3   81.09    1.13 
  -1  -5  -3   82.45    1.10 
   1   5   3   80.14    1.15 
   1   5   3   80.31    0.98 
  -2  -5  -3   83.66    1.18 
  -2  -5  -3   83.75    1.21 
  -2  -5  -3   89.03    1.12 
   2   5   3   79.86    1.16 
  -3  -5  -3   23.72    0.50 
  -3  -5  -3   24.88    0.51 
   3   5   3   22.55    0.51 
  -4  -5  -3   35.86    0.68 
  -4  -5  -3   35.45    0.67 
   4   5   3   33.30    0.68 
  -5  -5  -3    3.81    0.21 
  -5  -5  -3    3.36    0.19 
   5   5   3    3.25    0.20 
  -6  -5  -3   13.44    0.40 
  -6  -5  -3   13.18    0.42 
   6   5   3   11.89    0.42 
  -7  -5  -3    0.38    0.12 
   7   5   3    0.41    0.13 
  -8  -5  -3   28.58    0.76 
   8   5   3   24.48    0.72 
   9  -6  -3   24.22    0.64 
   9  -6  -3   24.26    0.63 
  -9   6   3   25.57    0.68 
   8  -6  -3    0.90    0.15 
   8  -6  -3    1.01    0.14 
  -8   6   3    1.08    0.14 
   7  -6  -3   38.34    0.78 
   7  -6  -3   38.04    0.75 
  -7   6   3   38.42    0.78 
   6  -6  -3   50.15    0.90 
  -6   6   3   52.19    0.92 
  -6   6   3   52.22    0.88 
   5  -6  -3  112.51    1.59 
  -5   6   3  110.27    1.57 
  -5   6   3  112.91    1.50 
   4  -6  -3   20.30    0.47 
   4  -6  -3   20.71    0.37 
  -4   6   3   21.20    0.48 
  -4   6   3   20.38    0.37 
  -4   6   3   20.77    0.41 
   3  -6  -3  100.02    1.28 
   3  -6  -3   98.44    1.37 
  -3   6   3   98.96    1.26 
  -3   6   3   97.60    1.25 
  -3   6   3   99.12    1.38 
   2  -6  -3    8.78    0.26 
   2  -6  -3    8.97    0.24 
  -2   6   3    8.04    0.27 
  -2   6   3    8.61    0.20 
  -2   6   3    8.71    0.22 
   1  -6  -3  171.39    2.12 
   1  -6  -3  172.62    2.13 
  -1   6   3  164.83    1.98 
  -1   6   3  162.86    1.90 
  -1   6   3  160.11    2.08 
   0  -6  -3    5.40    0.20 
   0  -6  -3    5.65    0.19 
   0   6   3    5.03    0.18 
   0   6   3    5.48    0.21 
  -1  -6  -3  206.39    2.45 
  -1  -6  -3  207.64    2.51 
  -1  -6  -3  206.99    2.56 
   1   6   3  203.29    2.56 
  -2  -6  -3   27.30    0.56 
  -2  -6  -3   27.99    0.54 
   2   6   3   26.74    0.57 
  -3  -6  -3   14.36    0.39 
  -3  -6  -3   14.48    0.38 
   3   6   3   12.98    0.39 
  -4  -6  -3   32.14    0.66 
  -4  -6  -3   31.70    0.65 
   4   6   3   29.57    0.65 
  -5  -6  -3    0.87    0.12 
  -5  -6  -3    0.91    0.12 
   5   6   3    0.71    0.13 
  -6  -6  -3   10.62    0.38 
  -6  -6  -3   11.57    0.40 
   6   6   3   10.02    0.40 
  -7  -6  -3    5.53    0.30 
   7   6   3    4.79    0.30 
   9  -7  -3    0.68    0.15 
   9  -7  -3    1.13    0.18 
  -9   7   3    0.69    0.14 
   8  -7  -3   17.28    0.50 
   8  -7  -3   16.66    0.51 
  -8   7   3   17.24    0.52 
   7  -7  -3   20.07    0.51 
   7  -7  -3   19.94    0.54 
  -7   7   3   19.13    0.53 
   6  -7  -3    2.43    0.18 
   6  -7  -3    2.65    0.17 
  -6   7   3    2.71    0.19 
   5  -7  -3   33.44    0.69 
  -5   7   3   34.43    0.63 
  -5   7   3   34.40    0.71 
   4  -7  -3    7.78    0.29 
  -4   7   3    8.33    0.23 
  -4   7   3    8.24    0.24 
  -4   7   3    7.91    0.29 
   3  -7  -3    8.23    0.23 
   3  -7  -3    7.99    0.28 
  -3   7   3    8.35    0.29 
  -3   7   3    7.54    0.22 
  -3   7   3    8.28    0.26 
   1  -7  -3    6.94    0.24 
   1  -7  -3    7.07    0.24 
  -1   7   3    7.49    0.27 
  -1   7   3    7.02    0.22 
   0  -7  -3    4.10    0.17 
   0  -7  -3    4.27    0.19 
   0   7   3    4.22    0.18 
  -1  -7  -3    1.18    0.12 
  -1  -7  -3    1.25    0.11 
  -1  -7  -3    1.04    0.09 
   1   7   3    1.03    0.11 
  -2  -7  -3    9.32    0.32 
  -2  -7  -3    9.37    0.29 
   2   7   3   10.00    0.34 
  -3  -7  -3    1.70    0.15 
  -3  -7  -3    1.70    0.14 
   3   7   3    1.79    0.16 
  -4  -7  -3   31.52    0.68 
  -4  -7  -3   31.73    0.68 
   4   7   3   30.82    0.70 
  -5  -7  -3    0.93    0.15 
  -5  -7  -3    0.95    0.13 
   5   7   3    1.02    0.14 
  -6  -7  -3    0.73    0.14 
  -6  -7  -3    0.68    0.13 
   6   7   3    0.53    0.12 
   9  -8  -3    5.78    0.32 
   9  -8  -3    5.35    0.29 
  -9   8   3    5.64    0.32 
   8  -8  -3    4.65    0.28 
   8  -8  -3    4.46    0.26 
  -8   8   3    4.28    0.27 
   7  -8  -3    7.30    0.33 
   7  -8  -3    6.97    0.29 
  -7   8   3    8.19    0.35 
   6  -8  -3    2.46    0.19 
   6  -8  -3    1.98    0.16 
  -6   8   3    2.52    0.19 
   5  -8  -3    6.35    0.29 
  -5   8   3    5.39    0.26 
   4  -8  -3   13.56    0.41 
  -4   8   3   13.56    0.41 
   3  -8  -3   10.46    0.29 
   3  -8  -3   10.61    0.34 
  -3   8   3   10.23    0.34 
  -3   8   3   10.45    0.28 
   2  -8  -3   39.32    0.69 
   2  -8  -3   40.30    0.74 
  -2   8   3   39.97    0.67 
  -2   8   3   38.58    0.75 
   1  -8  -3   14.02    0.37 
   1  -8  -3   13.83    0.37 
  -1   8   3   13.47    0.34 
  -1   8   3   13.71    0.40 
   0  -8  -3    1.20    0.11 
   0  -8  -3    1.17    0.12 
   0   8   3    1.21    0.11 
   0   8   3    1.33    0.13 
  -1  -8  -3    4.03    0.21 
   1   8   3    3.82    0.20 
   1   8   3    3.56    0.21 
  -2  -8  -3   18.29    0.47 
  -2  -8  -3   17.77    0.48 
   2   8   3   16.74    0.47 
  -3  -8  -3    8.74    0.34 
  -3  -8  -3    9.06    0.32 
   3   8   3    8.92    0.36 
  -4  -8  -3   26.35    0.62 
  -4  -8  -3   25.99    0.65 
   4   8   3   22.75    0.61 
  -5  -8  -3    0.17    0.09 
  -5  -8  -3    0.31    0.10 
   5   8   3    0.21    0.10 
  -6  -8  -3    1.17    0.16 
  -6  -8  -3    1.12    0.16 
   6   8   3    1.27    0.18 
   8  -9  -3    0.10    0.09 
  -8   9   3    0.17    0.10 
   7  -9  -3    0.84    0.16 
  -7   9   3    1.44    0.17 
   6  -9  -3    4.62    0.27 
  -6   9   3    4.89    0.27 
   5  -9  -3    0.43    0.11 
  -5   9   3    0.35    0.09 
   4  -9  -3   10.72    0.38 
  -4   9   3   10.85    0.38 
   3  -9  -3    1.05    0.13 
   3  -9  -3    1.37    0.12 
  -3   9   3    1.34    0.14 
  -3   9   3    1.33    0.12 
   2  -9  -3   19.16    0.46 
  -2   9   3   17.72    0.49 
  -2   9   3   19.37    0.44 
   1  -9  -3    8.24    0.29 
   1  -9  -3    7.71    0.29 
  -1   9   3    7.87    0.31 
  -1   9   3    7.26    0.26 
   0  -9  -3   13.65    0.40 
   0  -9  -3   13.37    0.37 
   0   9   3   13.29    0.42 
   0   9   3   13.21    0.37 
  -1  -9  -3    1.03    0.13 
   1   9   3    0.82    0.11 
   1   9   3    0.81    0.13 
  -2  -9  -3    2.60    0.19 
   2   9   3    3.03    0.20 
   2   9   3    2.91    0.21 
  -3  -9  -3   12.10    0.41 
  -3  -9  -3   12.58    0.44 
   3   9   3   13.10    0.45 
  -4  -9  -3    1.76    0.18 
  -4  -9  -3    1.73    0.18 
   4   9   3    2.04    0.20 
  -5  -9  -3    0.14    0.09 
  -5  -9  -3    0.30    0.10 
   5   9   3    0.34    0.11 
   7 -10  -3    1.85    0.20 
  -7  10   3    2.14    0.21 
   6 -10  -3    3.87    0.26 
  -6  10   3    3.44    0.24 
   5 -10  -3    1.00    0.15 
  -5  10   3    0.89    0.16 
   4 -10  -3    5.09    0.28 
  -4  10   3    4.81    0.27 
   3 -10  -3    0.41    0.10 
  -3  10   3    0.31    0.10 
   2 -10  -3    4.88    0.24 
   2 -10  -3    4.89    0.25 
  -2  10   3    4.90    0.23 
  -2  10   3    4.88    0.26 
   1 -10  -3   13.22    0.40 
   1 -10  -3   12.47    0.40 
  -1  10   3   13.47    0.39 
  -1  10   3   14.04    0.45 
   0 -10  -3    3.57    0.22 
   0  10   3    3.72    0.21 
   0  10   3    3.25    0.22 
  -1 -10  -3    7.69    0.33 
   1  10   3    7.76    0.34 
   1  10   3    6.67    0.29 
  -2 -10  -3    2.86    0.22 
   2  10   3    2.69    0.20 
   2  10   3    3.04    0.23 
  -3 -10  -3    1.86    0.19 
   3  10   3    1.64    0.17 
   3  10   3    2.17    0.21 
  -4 -10  -3    0.46    0.13 
   4  10   3    0.45    0.13 
   4  10   3    0.43    0.12 
   6 -11  -3    8.88    0.40 
  -6  11   3    9.69    0.41 
   5 -11  -3    1.49    0.18 
  -5  11   3    1.67    0.18 
   4 -11  -3    1.16    0.16 
  -4  11   3    0.98    0.17 
   3 -11  -3    0.59    0.13 
  -3  11   3    0.81    0.15 
   2 -11  -3    4.79    0.26 
   2 -11  -3    4.98    0.26 
  -2  11   3    4.80    0.28 
   1 -11  -3   14.14    0.44 
   1 -11  -3   14.43    0.45 
  -1  11   3   14.12    0.43 
  -1  11   3   14.16    0.48 
   0 -11  -3    0.15    0.08 
   0  11   3    0.00    0.06 
   0  11   3   -0.02    0.07 
  -1 -11  -3   13.04    0.46 
   1  11   3   13.61    0.44 
   1  11   3   12.92    0.47 
  -2 -11  -3    9.06    0.39 
   2  11   3    7.64    0.34 
   2  11   3    8.21    0.38 
   4 -12  -3    1.17    0.17 
  -4  12   3    0.92    0.16 
   3 -12  -3    0.71    0.15 
  -3  12   3    0.75    0.16 
   2 -12  -3    1.86    0.19 
   2 -12  -3    1.75    0.18 
  -2  12   3    1.93    0.20 
   1 -12  -3   10.02    0.40 
  -1  12   3    9.59    0.40 
   0 -12  -3    5.72    0.31 
   0  12   3    4.86    0.30 
   0  12   3    5.33    0.28 
   1  13  -4    4.86    0.29 
  -1 -13   4    4.83    0.29 
  -1 -13   4    4.65    0.29 
   0  13  -4    1.45    0.18 
   0 -13   4    0.92    0.16 
   0 -13   4    1.08    0.18 
  -1  13  -4    2.76    0.22 
   1 -13   4    2.79    0.24 
   1 -13   4    2.92    0.27 
  -2  13  -4    0.46    0.14 
   2 -13   4    0.30    0.12 
  -3  13  -4   16.53    0.53 
   3 -13   4   15.38    0.57 
   3  12  -4    2.49    0.21 
  -3 -12   4    2.07    0.22 
   2  12  -4   14.51    0.49 
  -2 -12   4   16.37    0.52 
  -2 -12   4   14.94    0.49 
   1  12  -4    0.12    0.07 
  -1 -12   4    0.24    0.09 
  -1 -12   4    0.18    0.09 
   0  12  -4    7.85    0.35 
   0 -12   4    7.37    0.34 
   0 -12   4    7.70    0.34 
  -1  12  -4    1.54    0.17 
   1 -12   4    1.33    0.17 
   1 -12   4    1.21    0.16 
  -2  12  -4    6.28    0.31 
   2 -12   4    5.68    0.31 
  -3  12  -4    0.76    0.15 
   3 -12   4    1.14    0.16 
  -4  12  -4    4.43    0.27 
   4 -12   4    4.39    0.28 
  -5  12  -4    2.01    0.20 
   5 -12   4    2.35    0.23 
   4  11  -4    2.25    0.21 
  -4 -11   4    2.17    0.21 
   3  11  -4    9.59    0.38 
  -3 -11   4    9.61    0.37 
  -3 -11   4    9.75    0.39 
   2  11  -4   12.86    0.43 
  -2 -11   4   13.11    0.44 
  -2 -11   4   12.74    0.43 
   1  11  -4    1.51    0.16 
  -1 -11   4    1.38    0.16 
  -1 -11   4    1.30    0.15 
   0  11  -4    7.51    0.32 
   0 -11   4    7.40    0.33 
   0 -11   4    7.82    0.32 
  -1  11  -4    3.63    0.22 
   1 -11   4    3.70    0.24 
   1 -11   4    3.66    0.22 
  -2  11  -4   11.96    0.40 
   2 -11   4   12.41    0.44 
  -3  11  -4   17.70    0.51 
   3 -11   4   16.25    0.51 
  -4  11  -4    5.38    0.28 
   4 -11   4    5.01    0.29 
  -5  11  -4   25.30    0.64 
   5 -11   4   24.23    0.66 
  -6  11  -4    0.89    0.16 
   6 -11   4    0.54    0.14 
   6  10  -4    3.78    0.25 
  -6 -10   4    3.68    0.26 
   5  10  -4   10.48    0.40 
  -5 -10   4   11.31    0.44 
   4  10  -4    9.76    0.37 
  -4 -10   4    9.82    0.39 
   3  10  -4    0.66    0.12 
  -3 -10   4    0.87    0.13 
  -3 -10   4    1.10    0.14 
   2  10  -4   21.06    0.55 
  -2 -10   4   21.38    0.55 
  -2 -10   4   22.06    0.56 
   1  10  -4    3.26    0.20 
  -1 -10   4    3.80    0.22 
  -1 -10   4    3.51    0.21 
   0  10  -4   15.85    0.45 
   0 -10   4   15.19    0.43 
   0 -10   4   15.68    0.45 
  -1  10  -4    0.01    0.05 
   1 -10   4    0.08    0.07 
   1 -10   4    0.03    0.06 
  -2  10  -4   14.44    0.42 
   2 -10   4   14.40    0.39 
   2 -10   4   14.04    0.44 
  -3  10  -4   11.69    0.39 
   3 -10   4   11.87    0.41 
  -4  10  -4    0.92    0.12 
   4 -10   4    0.65    0.13 
  -5  10  -4    6.34    0.29 
   5 -10   4    5.23    0.28 
  -6  10  -4    7.32    0.33 
   6 -10   4    7.09    0.34 
  -7  10  -4    4.44    0.27 
   7 -10   4    4.10    0.27 
   6   9  -4    3.36    0.23 
  -6  -9   4    3.41    0.24 
   5   9  -4    1.14    0.14 
  -5  -9   4    1.13    0.15 
   4   9  -4    1.79    0.16 
  -4  -9   4    1.90    0.16 
  -4  -9   4    1.51    0.16 
   3   9  -4   14.84    0.43 
  -3  -9   4   14.60    0.42 
  -3  -9   4   15.05    0.44 
   2   9  -4    3.10    0.19 
  -2  -9   4    3.13    0.19 
  -2  -9   4    2.96    0.19 
   1   9  -4   21.39    0.51 
  -1  -9   4   21.25    0.51 
  -1  -9   4   21.49    0.52 
   0   9  -4   11.13    0.35 
   0  -9   4   11.16    0.34 
   0  -9   4   10.82    0.35 
  -1   9  -4    7.51    0.28 
   1  -9   4    7.12    0.29 
   1  -9   4    7.77    0.27 
  -2   9  -4    2.79    0.17 
   2  -9   4    2.72    0.18 
   2  -9   4    2.79    0.16 
  -3   9  -4   22.99    0.54 
  -4   9  -4   19.38    0.50 
   4  -9   4   16.68    0.47 
  -5   9  -4    2.03    0.17 
   5  -9   4    1.86    0.17 
  -6   9  -4   28.92    0.67 
   6  -9   4   27.37    0.66 
   6  -9   4   27.77    0.64 
  -7   9  -4    1.42    0.16 
   7  -9   4    1.35    0.16 
   7  -9   4    1.35    0.16 
   7   8  -4   16.16    0.50 
  -7  -8   4   16.60    0.52 
   6   8  -4    1.07    0.14 
  -6  -8   4    0.93    0.16 
   5   8  -4   14.67    0.44 
  -5  -8   4   15.69    0.47 
   4   8  -4    4.66    0.23 
  -4  -8   4    5.40    0.26 
  -4  -8   4    5.30    0.24 
   3   8  -4    1.77    0.14 
  -3  -8   4    1.69    0.15 
  -3  -8   4    1.89    0.14 
   2   8  -4   17.29    0.43 
  -2  -8   4   16.60    0.43 
  -2  -8   4   17.46    0.44 
   1   8  -4    1.49    0.13 
  -1  -8   4    1.82    0.14 
  -1  -8   4    1.77    0.14 
   0   8  -4   24.45    0.52 
   0  -8   4   22.79    0.49 
   0  -8   4   24.48    0.53 
  -1   8  -4    0.74    0.09 
   1  -8   4    0.50    0.09 
   1  -8   4    0.74    0.12 
  -2   8  -4    9.58    0.31 
  -2   8  -4    9.40    0.26 
   2  -8   4    9.30    0.32 
   2  -8   4    9.57    0.27 
  -3   8  -4    2.65    0.14 
  -3   8  -4    3.04    0.18 
   3  -8   4    2.77    0.18 
   3  -8   4    2.54    0.14 
  -4   8  -4    4.94    0.20 
  -4   8  -4    5.02    0.23 
   4  -8   4    4.91    0.21 
   4  -8   4    5.03    0.24 
  -5   8  -4    4.22    0.20 
  -5   8  -4    4.04    0.22 
   5  -8   4    3.78    0.20 
   5  -8   4    3.84    0.22 
  -6   8  -4    7.13    0.28 
  -6   8  -4    7.07    0.30 
   6  -8   4    6.40    0.29 
   6  -8   4    6.06    0.28 
  -7   8  -4    0.61    0.12 
  -7   8  -4    0.79    0.14 
   7  -8   4    0.68    0.14 
   7  -8   4    0.60    0.13 
  -8   8  -4    3.80    0.24 
  -8   8  -4    3.38    0.24 
   8  -8   4    3.49    0.25 
  -8  -7   4    1.76    0.18 
  -7  -7   4   26.90    0.65 
  -7  -7   4   25.69    0.63 
  -6  -7   4    3.15    0.20 
  -6  -7   4    3.01    0.20 
   5   7  -4    3.58    0.20 
   5   7  -4    3.70    0.19 
  -5  -7   4    3.74    0.21 
  -5  -7   4    3.89    0.20 
   4   7  -4    3.99    0.18 
   4   7  -4    4.04    0.20 
  -4  -7   4    4.47    0.22 
  -4  -7   4    4.59    0.21 
   3   7  -4    1.32    0.12 
   3   7  -4    1.34    0.10 
  -3  -7   4    1.13    0.12 
  -3  -7   4    1.21    0.11 
   2   7  -4   48.32    0.79 
   2   7  -4   47.22    0.70 
  -2  -7   4   49.66    0.82 
  -2  -7   4   48.89    0.82 
   1   7  -4    1.69    0.09 
   1   7  -4    1.51    0.12 
  -1  -7   4    1.40    0.12 
  -1  -7   4    1.56    0.12 
   0   7  -4   45.37    0.76 
   0   7  -4   46.83    0.66 
   0  -7   4   42.41    0.74 
   0  -7   4   44.43    0.72 
  -1   7  -4    0.55    0.08 
  -1   7  -4    0.70    0.06 
   1  -7   4    0.63    0.09 
   1  -7   4    0.66    0.06 
   1  -7   4    0.49    0.07 
  -2   7  -4   10.01    0.24 
  -2   7  -4   10.19    0.30 
   2  -7   4    9.81    0.25 
   2  -7   4   10.17    0.31 
   2  -7   4    9.81    0.26 
  -3   7  -4    1.93    0.11 
  -3   7  -4    2.00    0.14 
   3  -7   4    2.01    0.12 
   3  -7   4    1.84    0.14 
  -4   7  -4    4.16    0.20 
  -4   7  -4    4.82    0.19 
   4  -7   4    4.69    0.20 
   4  -7   4    4.56    0.22 
  -5   7  -4    7.07    0.25 
  -5   7  -4    7.10    0.28 
   5  -7   4    6.74    0.27 
   5  -7   4    6.65    0.26 
  -6   7  -4    1.82    0.15 
  -7   7  -4    0.03    0.06 
  -7   7  -4    0.08    0.06 
   7  -7   4    0.21    0.08 
   7  -7   4    0.24    0.10 
  -8   7  -4    9.53    0.37 
  -8   7  -4    9.34    0.37 
   8  -7   4    9.25    0.39 
   8   6  -4   12.21    0.42 
  -8  -6   4   13.59    0.43 
   7   6  -4   40.59    0.79 
  -7  -6   4   41.77    0.81 
  -7  -6   4   41.41    0.80 
   6   6  -4    4.58    0.22 
  -6  -6   4    4.89    0.24 
  -6  -6   4    5.02    0.23 
   5   6  -4    4.11    0.19 
  -5  -6   4    4.17    0.21 
  -5  -6   4    4.40    0.20 
  -5  -6   4    3.87    0.19 
   4   6  -4   17.77    0.41 
   4   6  -4   17.25    0.38 
  -4  -6   4   19.53    0.46 
  -4  -6   4   18.98    0.43 
   3   6  -4    1.22    0.09 
   3   6  -4    1.34    0.11 
  -3  -6   4    1.19    0.11 
  -3  -6   4    1.18    0.11 
   2   6  -4   71.82    0.94 
   2   6  -4   72.59    1.03 
  -2  -6   4   73.67    1.08 
  -2  -6   4   72.87    1.07 
  -2  -6   4   75.45    1.03 
   1   6  -4    7.58    0.18 
   1   6  -4    7.38    0.23 
  -1  -6   4    7.61    0.24 
  -1  -6   4    7.55    0.16 
  -1  -6   4    7.19    0.24 
   0   6  -4   18.43    0.39 
   0   6  -4   18.82    0.31 
   0  -6   4   17.62    0.37 
   0  -6   4   17.66    0.39 
   0  -6   4   17.57    0.30 
  -1   6  -4   10.25    0.21 
  -1   6  -4   10.28    0.27 
   1  -6   4   10.00    0.22 
   1  -6   4   10.07    0.26 
   1  -6   4   10.71    0.29 
  -2   6  -4    2.65    0.11 
  -2   6  -4    3.05    0.15 
   2  -6   4    2.62    0.12 
   2  -6   4    2.82    0.12 
   2  -6   4    2.75    0.15 
  -3   6  -4   74.24    0.97 
  -3   6  -4   75.23    1.01 
  -3   6  -4   74.86    1.09 
   3  -6   4   72.39    1.07 
   3  -6   4   72.26    1.03 
  -4   6  -4    2.90    0.14 
  -4   6  -4    2.55    0.15 
   4  -6   4    2.72    0.16 
   4  -6   4    2.67    0.15 
  -5   6  -4   10.57    0.32 
  -5   6  -4    9.79    0.30 
   5  -6   4    9.58    0.31 
   5  -6   4    9.95    0.32 
  -6   6  -4    0.73    0.12 
  -6   6  -4    0.50    0.10 
   6  -6   4    0.73    0.13 
   6  -6   4    0.52    0.10 
  -7   6  -4    0.74    0.13 
  -7   6  -4    0.77    0.13 
   7  -6   4    0.65    0.13 
  -8   6  -4   19.47    0.54 
  -8   6  -4   19.74    0.54 
   8  -6   4   19.15    0.57 
  -9   6  -4    7.59    0.35 
  -9   6  -4    7.45    0.35 
   9  -6   4    7.03    0.36 
   9   5  -4    8.52    0.36 
  -9  -5   4    9.79    0.37 
   8   5  -4    7.43    0.31 
  -8  -5   4    8.47    0.33 
   7   5  -4   16.25    0.44 
  -7  -5   4   17.29    0.45 
  -7  -5   4   16.96    0.45 
   6   5  -4    5.36    0.22 
  -6  -5   4    5.74    0.23 
  -6  -5   4    5.31    0.22 
  -6  -5   4    5.66    0.24 
   5   5  -4   30.19    0.56 
  -5  -5   4   29.90    0.59 
  -5  -5   4   30.15    0.57 
  -5  -5   4   30.87    0.52 
  -5  -5   4   29.19    0.56 
   4   5  -4  136.78    1.71 
  -4  -5   4  141.80    1.71 
  -4  -5   4  135.88    1.80 
  -4  -5   4  141.08    1.81 
  -4  -5   4  141.94    1.83 
   3   5  -4    4.32    0.14 
   3   5  -4    4.05    0.17 
  -3  -5   4    4.16    0.18 
  -3  -5   4    4.19    0.13 
  -3  -5   4    4.10    0.17 
   2   5  -4   65.17    0.84 
   2   5  -4   66.10    0.92 
  -2  -5   4   68.45    0.85 
  -2  -5   4   66.91    0.97 
  -2  -5   4   66.05    0.97 
   1   5  -4    3.74    0.15 
   1   5  -4    3.43    0.10 
  -1  -5   4    3.44    0.15 
  -1  -5   4    3.35    0.14 
  -1  -5   4    3.35    0.11 
   0   5  -4    0.21    0.05 
   0   5  -4    0.14    0.03 
   0  -5   4    0.13    0.04 
   0  -5   4    0.14    0.03 
   0  -5   4    0.14    0.04 
  -1   5  -4   12.36    0.22 
  -1   5  -4   12.39    0.29 
   1  -5   4   12.15    0.30 
   1  -5   4   12.35    0.26 
   1  -5   4   12.12    0.26 
  -2   5  -4   74.32    0.96 
  -2   5  -4   77.82    1.06 
  -2   5  -4   75.46    0.98 
   2  -5   4   75.24    1.05 
   2  -5   4   75.04    1.01 
  -3   5  -4  110.08    1.39 
  -3   5  -4  110.61    1.46 
  -3   5  -4  111.39    1.34 
   3  -5   4  106.93    1.40 
   3  -5   4  106.01    1.41 
  -4   5  -4    5.98    0.22 
  -4   5  -4    5.88    0.20 
   4  -5   4    5.92    0.21 
   4  -5   4    5.66    0.22 
  -5   5  -4    3.12    0.17 
  -5   5  -4    3.12    0.16 
   5  -5   4    3.03    0.17 
   5  -5   4    3.37    0.17 
  -6   5  -4   12.59    0.37 
  -6   5  -4   12.62    0.36 
   6  -5   4   11.76    0.37 
   6  -5   4   12.45    0.34 
  -7   5  -4    2.24    0.17 
  -7   5  -4    2.48    0.18 
   7  -5   4    2.15    0.18 
  -8   5  -4   12.03    0.42 
  -8   5  -4   12.97    0.43 
   8  -5   4   11.78    0.43 
  -9   5  -4    3.05    0.23 
  -9   5  -4    3.13    0.23 
   9  -5   4    3.05    0.24 
  -9  -4   4    3.86    0.24 
  -9  -4   4    3.68    0.23 
  -8  -4   4    3.52    0.20 
  -8  -4   4    3.19    0.20 
   7   4  -4   16.25    0.41 
  -7  -4   4   16.48    0.42 
  -7  -4   4   17.00    0.43 
  -7  -4   4   15.70    0.41 
  -6  -4   4    0.61    0.10 
  -6  -4   4    0.56    0.09 
  -6  -4   4    0.61    0.09 
  -6  -4   4    0.64    0.08 
  -6  -4   4    0.51    0.09 
  -5  -4   4  106.25    1.44 
  -5  -4   4  106.32    1.39 
  -5  -4   4  104.54    1.38 
  -5  -4   4  106.76    1.42 
  -5  -4   4  104.84    1.41 
  -4  -4   4   91.02    1.22 
  -4  -4   4   92.44    1.19 
  -4  -4   4   92.20    1.25 
  -4  -4   4   93.11    1.27 
  -4  -4   4   93.45    1.20 
   3   4  -4   16.22    0.33 
   3   4  -4   16.14    0.30 
  -3  -4   4   16.68    0.36 
  -3  -4   4   16.35    0.31 
  -3  -4   4   17.11    0.36 
   2   4  -4   79.91    1.04 
   2   4  -4   78.38    0.96 
  -2  -4   4   77.52    1.06 
  -2  -4   4   78.74    0.98 
  -2  -4   4   77.78    1.06 
   1   4  -4    3.42    0.13 
  -1  -4   4    3.09    0.13 
  -1  -4   4    3.27    0.13 
  -1  -4   4    2.85    0.10 
   0   4  -4   30.20    0.48 
   0  -4   4   28.62    0.43 
   0  -4   4   28.59    0.46 
   0  -4   4   28.99    0.48 
  -1   4  -4   99.19    1.15 
  -1   4  -4   96.43    1.25 
   1  -4   4   95.46    1.24 
   1  -4   4   96.27    1.20 
   1  -4   4   96.54    1.20 
  -2   4  -4  267.07    3.12 
  -2   4  -4  265.61    3.04 
  -2   4  -4  268.30    3.12 
   2  -4   4  265.29    3.09 
   2  -4   4  265.09    3.09 
  -3   4  -4   40.17    0.55 
  -3   4  -4   39.19    0.64 
  -3   4  -4   38.94    0.59 
   3  -4   4   37.01    0.59 
   3  -4   4   38.22    0.62 
  -4   4  -4    5.56    0.21 
  -4   4  -4    6.89    0.21 
   4  -4   4    5.06    0.20 
   4  -4   4    5.62    0.19 
  -5   4  -4    3.85    0.18 
  -5   4  -4    3.87    0.18 
   5  -4   4    3.94    0.16 
   5  -4   4    3.68    0.19 
  -6   4  -4    4.67    0.22 
  -6   4  -4    4.61    0.21 
   6  -4   4    4.28    0.22 
  -7   4  -4    0.62    0.12 
  -7   4  -4    0.67    0.12 
   7  -4   4    0.61    0.13 
  -8   4  -4    3.66    0.23 
  -8   4  -4    3.99    0.24 
   8  -4   4    3.80    0.25 
  -9   4  -4    1.22    0.16 
  -9   4  -4    0.91    0.16 
   9  -4   4    0.80    0.16 
   9   3  -4    5.76    0.28 
  -9  -3   4    6.25    0.29 
   8   3  -4    4.51    0.23 
  -8  -3   4    4.88    0.24 
  -8  -3   4    4.57    0.22 
   7   3  -4   36.95    0.66 
  -7  -3   4   37.72    0.70 
  -7  -3   4   37.44    0.68 
  -7  -3   4   37.06    0.70 
  -6  -3   4    6.86    0.24 
  -6  -3   4    6.81    0.24 
  -6  -3   4    7.32    0.24 
  -6  -3   4    7.07    0.24 
  -6  -3   4    7.61    0.24 
  -5  -3   4   59.02    0.87 
  -5  -3   4   60.89    0.90 
  -5  -3   4   59.04    0.88 
  -5  -3   4   59.90    0.87 
  -5  -3   4   59.10    0.87 
  -4  -3   4   39.52    0.63 
  -4  -3   4   39.50    0.59 
  -4  -3   4   39.50    0.63 
  -4  -3   4   39.35    0.60 
  -4  -3   4   39.14    0.61 
  -3  -3   4   13.16    0.27 
  -3  -3   4   13.47    0.30 
  -3  -3   4   12.91    0.27 
  -3  -3   4   13.14    0.29 
  -3  -3   4   13.15    0.25 
   2   3  -4  148.38    1.76 
  -2  -3   4  151.15    1.83 
  -2  -3   4  149.85    1.78 
  -2  -3   4  148.64    1.82 
  -2  -3   4  151.16    1.71 
   1   3  -4    3.73    0.12 
  -1  -3   4    3.81    0.13 
  -1  -3   4    3.71    0.12 
   0   3  -4    0.39    0.04 
   0  -3   4    0.44    0.05 
   0  -3   4    0.51    0.05 
   0  -3   4    0.63    0.05 
  -1   3  -4   22.27    0.31 
  -1   3  -4   23.07    0.38 
  -1   3  -4   22.76    0.36 
   1  -3   4   21.83    0.37 
   1  -3   4   21.50    0.37 
  -2   3  -4   26.02    0.39 
  -2   3  -4   26.70    0.40 
  -2   3  -4   26.75    0.45 
   2  -3   4   25.90    0.44 
   2  -3   4   26.14    0.42 
  -3   3  -4  112.93    1.35 
  -3   3  -4  114.94    1.46 
  -3   3  -4  112.84    1.41 
   3  -3   4  108.27    1.41 
   3  -3   4  108.37    1.35 
  -4   3  -4    2.02    0.12 
  -4   3  -4    2.15    0.08 
  -4   3  -4    2.04    0.12 
   4  -3   4    1.79    0.10 
   4  -3   4    2.05    0.13 
  -5   3  -4   27.39    0.54 
  -5   3  -4   27.51    0.53 
   5  -3   4   25.95    0.45 
   5  -3   4   25.48    0.54 
  -6   3  -4    6.18    0.25 
  -6   3  -4    6.28    0.25 
   6  -3   4    6.32    0.27 
  -7   3  -4    0.85    0.12 
  -7   3  -4    0.78    0.11 
   7  -3   4    0.72    0.12 
  -8   3  -4   11.60    0.40 
  -8   3  -4   11.78    0.40 
   8  -3   4   11.58    0.42 
  -9   3  -4    5.49    0.30 
  -9   3  -4    4.73    0.27 
   9  -3   4    5.59    0.31 
  10   2  -4    1.47    0.18 
 -10  -2   4    1.45    0.18 
   9   2  -4    8.35    0.34 
  -9  -2   4    8.21    0.34 
   8   2  -4    7.62    0.30 
  -8  -2   4    8.02    0.31 
  -8  -2   4    8.04    0.28 
   7   2  -4    9.59    0.29 
  -7  -2   4    9.72    0.32 
  -7  -2   4   10.18    0.29 
  -7  -2   4    9.77    0.31 
  -6  -2   4    6.76    0.24 
  -6  -2   4    7.04    0.22 
  -6  -2   4    6.81    0.23 
  -6  -2   4    6.72    0.24 
  -6  -2   4    6.84    0.21 
  -5  -2   4    0.51    0.08 
  -5  -2   4    0.53    0.07 
  -5  -2   4    0.48    0.08 
  -5  -2   4    0.52    0.07 
  -5  -2   4    0.58    0.06 
  -4  -2   4   62.52    0.84 
  -4  -2   4   63.32    0.90 
  -4  -2   4   63.18    0.86 
  -4  -2   4   63.10    0.89 
  -4  -2   4   64.05    0.87 
  -3  -2   4   75.41    0.99 
  -3  -2   4   74.78    1.01 
  -3  -2   4   74.86    0.99 
  -3  -2   4   76.33    0.94 
  -3  -2   4   76.06    0.95 
   2   2  -4  223.75    2.54 
  -2  -2   4  215.62    2.54 
  -2  -2   4  223.44    2.63 
  -2  -2   4  217.74    2.56 
   1   2  -4    4.75    0.13 
   1   2  -4    4.66    0.12 
  -1  -2   4    4.84    0.13 
  -1  -2   4    4.68    0.14 
   0   2  -4   21.29    0.34 
   0   2  -4   21.16    0.33 
   0  -2   4   21.44    0.35 
   0  -2   4   21.07    0.35 
  -1   2  -4    9.64    0.21 
  -1   2  -4    9.80    0.17 
  -1   2  -4    9.75    0.20 
   1  -2   4    9.51    0.20 
   1  -2   4    9.29    0.21 
  -2   2  -4    5.48    0.14 
  -2   2  -4    5.54    0.16 
  -2   2  -4    5.42    0.14 
   2  -2   4    5.35    0.17 
   2  -2   4    5.35    0.14 
  -3   2  -4   23.65    0.36 
  -3   2  -4   23.85    0.44 
  -3   2  -4   24.23    0.41 
   3  -2   4   23.12    0.44 
   3  -2   4   23.33    0.37 
  -4   2  -4   13.48    0.33 
  -4   2  -4   13.60    0.25 
  -4   2  -4   13.97    0.32 
   4  -2   4   12.60    0.33 
   4  -2   4   13.48    0.26 
  -5   2  -4    1.50    0.12 
  -5   2  -4    1.50    0.11 
   5  -2   4    1.62    0.13 
  -6   2  -4    2.97    0.17 
  -6   2  -4    2.76    0.17 
   6  -2   4    2.93    0.18 
  -7   2  -4    0.60    0.11 
  -7   2  -4    0.62    0.11 
   7  -2   4    0.52    0.11 
  -8   2  -4    4.07    0.24 
  -8   2  -4    3.82    0.23 
   8  -2   4    4.01    0.25 
  -9   2  -4    5.88    0.31 
  -9   2  -4    5.69    0.29 
   9  -2   4    5.93    0.32 
  10   1  -4    6.82    0.34 
 -10  -1   4    6.57    0.33 
   9   1  -4    5.11    0.27 
  -9  -1   4    5.44    0.28 
   8   1  -4   10.16    0.35 
   8   1  -4    9.50    0.32 
  -8  -1   4   10.68    0.36 
   7   1  -4    9.75    0.30 
  -7  -1   4   10.66    0.29 
  -7  -1   4   10.65    0.33 
  -7  -1   4   10.87    0.34 
   6   1  -4   35.96    0.63 
  -6  -1   4   34.43    0.63 
  -6  -1   4   34.79    0.57 
  -6  -1   4   37.03    0.65 
  -5  -1   4    7.55    0.24 
  -5  -1   4    7.86    0.23 
  -5  -1   4    8.37    0.24 
  -5  -1   4    7.87    0.20 
  -4  -1   4   21.86    0.42 
  -4  -1   4   22.44    0.36 
  -4  -1   4   23.09    0.42 
  -4  -1   4   23.07    0.40 
   3   1  -4  202.06    2.34 
  -3  -1   4  217.27    2.48 
  -3  -1   4  212.82    2.53 
  -3  -1   4  219.77    2.49 
  -3  -1   4  213.33    2.54 
   2   1  -4  107.75    1.32 
   2   1  -4  110.05    1.25 
  -2  -1   4  109.39    1.36 
  -2  -1   4  113.77    1.29 
  -2  -1   4  108.94    1.35 
   1   1  -4   26.20    0.40 
   1   1  -4   26.31    0.35 
  -1  -1   4   25.02    0.39 
  -1  -1   4   25.12    0.39 
  -1  -1   4   26.07    0.33 
   0   1  -4   14.02    0.23 
   0   1  -4   14.27    0.25 
   0  -1   4   13.25    0.24 
   0  -1   4   13.29    0.25 
   0  -1   4   13.55    0.20 
  -1   1  -4   45.22    0.61 
  -1   1  -4   44.27    0.60 
   1  -1   4   43.69    0.57 
   1  -1   4   44.03    0.62 
   1  -1   4   44.31    0.57 
  -2   1  -4  154.01    1.80 
  -2   1  -4  152.86    1.80 
  -2   1  -4  152.78    1.83 
   2  -1   4  151.35    1.73 
   2  -1   4  150.59    1.84 
  -3   1  -4   14.91    0.32 
  -3   1  -4   15.15    0.27 
  -3   1  -4   14.63    0.30 
   3  -1   4   14.31    0.32 
   3  -1   4   13.98    0.23 
  -4   1  -4   63.23    0.90 
  -4   1  -4   61.58    0.92 
  -4   1  -4   61.91    0.82 
   4  -1   4   60.24    0.91 
   4  -1   4   59.45    0.75 
  -5   1  -4   18.58    0.43 
  -5   1  -4   17.78    0.41 
   5  -1   4   16.87    0.41 
  -6   1  -4   10.70    0.34 
  -6   1  -4   10.47    0.33 
   6  -1   4   10.05    0.33 
  -7   1  -4    3.33    0.20 
  -7   1  -4    3.18    0.20 
   7  -1   4    2.87    0.20 
  -8   1  -4   13.47    0.43 
  -8   1  -4   14.30    0.45 
   8  -1   4   13.00    0.44 
  -9   1  -4    2.80    0.22 
  -9   1  -4    2.75    0.22 
   9  -1   4    3.11    0.25 
  10   0  -4    3.72    0.26 
 -10   0   4    4.38    0.27 
   9   0  -4    1.68    0.17 
  -9   0   4    2.08    0.18 
   8   0  -4    4.28    0.21 
  -8   0   4    4.05    0.22 
  -8   0   4    3.71    0.21 
   7   0  -4   25.07    0.52 
  -7   0   4   25.00    0.54 
  -7   0   4   24.69    0.46 
  -7   0   4   24.75    0.55 
   6   0  -4   26.81    0.52 
  -6   0   4   26.68    0.54 
  -6   0   4   27.01    0.45 
  -6   0   4   26.95    0.54 
   5   0  -4   42.01    0.67 
   5   0  -4   42.09    0.59 
  -5   0   4   43.37    0.71 
  -5   0   4   44.75    0.70 
  -5   0   4   43.37    0.61 
   4   0  -4   15.77    0.33 
   4   0  -4   14.92    0.27 
  -4   0   4   15.05    0.25 
  -4   0   4   15.62    0.31 
  -4   0   4   15.15    0.33 
   3   0  -4   40.76    0.56 
  -3   0   4   40.87    0.50 
  -3   0   4   41.81    0.58 
  -3   0   4   40.25    0.61 
  -3   0   4   40.41    0.61 
   2   0  -4    7.96    0.17 
  -2   0   4    8.50    0.17 
  -2   0   4    8.15    0.20 
  -2   0   4    8.34    0.20 
   1   0  -4  119.95    1.43 
   1   0  -4  121.10    1.37 
  -1   0   4  114.50    1.38 
  -1   0   4  113.42    1.37 
  -1   0   4  114.97    1.33 
   0   0  -4  124.82    1.49 
   0   0  -4  126.06    1.44 
   0   0   4  123.01    1.48 
   0   0   4  124.09    1.43 
   0   0   4  121.64    1.43 
  -1   0  -4   24.87    0.38 
  -1   0  -4   24.56    0.38 
   1   0   4   23.57    0.37 
   1   0   4   23.82    0.32 
   1   0   4   23.00    0.39 
  -2   0  -4    9.42    0.21 
  -2   0  -4    9.08    0.22 
   2   0   4    9.13    0.22 
   2   0   4    9.27    0.21 
  -3   0  -4   29.27    0.50 
  -3   0  -4   28.25    0.48 
  -3   0  -4   28.63    0.45 
   3   0   4   27.73    0.49 
  -4   0  -4   37.12    0.63 
  -4   0  -4   37.70    0.56 
  -4   0  -4   36.95    0.63 
   4   0   4   35.54    0.62 
  -5   0  -4    7.27    0.25 
  -5   0  -4    7.40    0.20 
  -5   0  -4    7.02    0.25 
   5   0   4    6.51    0.24 
  -6   0  -4   60.72    1.00 
  -6   0  -4   60.77    1.00 
   6   0   4   55.60    0.94 
  -7   0  -4    2.77    0.19 
  -7   0  -4    3.46    0.20 
   7   0   4    2.89    0.20 
  -8   0  -4   18.84    0.53 
  -8   0  -4   19.02    0.53 
   8   0   4   17.87    0.53 
  -9   0  -4    1.85    0.19 
  -9   0  -4    2.05    0.20 
   9   0   4    1.31    0.18 
  10  -1  -4    1.75    0.19 
 -10   1   4    1.86    0.19 
   9  -1  -4    0.73    0.13 
  -9   1   4    1.16    0.15 
   8  -1  -4    0.06    0.06 
  -8   1   4    0.14    0.07 
  -8   1   4    0.15    0.08 
   7  -1  -4   21.17    0.48 
  -7   1   4   21.12    0.50 
  -7   1   4   21.51    0.51 
   6  -1  -4   23.66    0.49 
  -6   1   4   24.83    0.42 
  -6   1   4   24.03    0.51 
  -6   1   4   24.75    0.51 
   5  -1  -4   43.47    0.59 
   5  -1  -4   44.30    0.71 
  -5   1   4   43.73    0.72 
  -5   1   4   44.17    0.60 
  -5   1   4   44.62    0.71 
   4  -1  -4   51.44    0.76 
   4  -1  -4   52.07    0.68 
  -4   1   4   54.16    0.77 
  -4   1   4   52.21    0.79 
  -4   1   4   52.63    0.65 
   3  -1  -4    5.17    0.13 
   3  -1  -4    5.17    0.16 
  -3   1   4    4.86    0.16 
  -3   1   4    4.91    0.15 
   2  -1  -4   15.00    0.26 
   2  -1  -4   14.72    0.28 
  -2   1   4   14.49    0.27 
  -2   1   4   14.96    0.28 
   1  -1  -4  122.01    1.46 
   1  -1  -4  123.67    1.46 
  -1   1   4  117.72    1.43 
  -1   1   4  119.18    1.42 
   0  -1  -4   28.41    0.43 
   0  -1  -4   28.92    0.39 
   0  -1  -4   28.39    0.40 
   0   1   4   27.22    0.42 
   0   1   4   27.70    0.42 
  -1  -1  -4   15.15    0.28 
  -1  -1  -4   14.51    0.26 
  -1  -1  -4   12.98    0.20 
   1   1   4   14.66    0.28 
   1   1   4   14.64    0.28 
  -2  -1  -4   45.02    0.64 
  -2  -1  -4   43.70    0.64 
   2   1   4   45.12    0.66 
   2   1   4   45.28    0.67 
  -3  -1  -4   11.09    0.28 
  -3  -1  -4   11.38    0.26 
   3   1   4   10.39    0.27 
   3   1   4   10.67    0.27 
  -4  -1  -4   10.93    0.26 
  -4  -1  -4   10.51    0.29 
   4   1   4   10.09    0.28 
   4   1   4   10.39    0.29 
  -5  -1  -4    0.00    0.04 
  -5  -1  -4   -0.01    0.04 
  -5  -1  -4    0.04    0.04 
   5   1   4    0.16    0.06 
  -6  -1  -4   40.82    0.77 
  -6  -1  -4   41.91    0.77 
   6   1   4   41.32    0.77 
  -7  -1  -4    5.37    0.26 
   7   1   4    5.59    0.27 
  -8  -1  -4   10.50    0.39 
   8   1   4   11.08    0.40 
   8   1   4   10.39    0.40 
  -9  -1  -4    6.95    0.34 
   9   1   4    5.84    0.32 
   9   1   4    6.21    0.33 
  10  -2  -4    6.46    0.33 
 -10   2   4    8.35    0.38 
   9  -2  -4    0.26    0.09 
   9  -2  -4    0.43    0.11 
  -9   2   4    0.38    0.10 
   8  -2  -4    4.28    0.22 
  -8   2   4    4.23    0.23 
  -8   2   4    4.10    0.23 
   7  -2  -4   17.14    0.43 
  -7   2   4   16.40    0.44 
  -7   2   4   16.03    0.43 
   6  -2  -4   49.47    0.82 
  -6   2   4   49.85    0.84 
  -6   2   4   47.93    0.82 
  -6   2   4   53.52    0.78 
   5  -2  -4   11.34    0.21 
   5  -2  -4   11.89    0.31 
  -5   2   4   10.48    0.29 
  -5   2   4   10.79    0.30 
  -5   2   4   11.49    0.22 
   4  -2  -4  117.77    1.40 
   4  -2  -4  116.69    1.51 
  -4   2   4  118.30    1.52 
  -4   2   4  118.57    1.53 
  -4   2   4  120.37    1.37 
   3  -2  -4   52.43    0.76 
   3  -2  -4   52.90    0.70 
  -3   2   4   51.92    0.74 
  -3   2   4   51.29    0.74 
   2  -2  -4   86.09    1.07 
   2  -2  -4   86.56    1.11 
  -2   2   4   85.81    1.08 
  -2   2   4   83.62    1.09 
   1  -2  -4  479.00    5.82 
   1  -2  -4  470.22    5.52 
   1  -2  -4  484.79    5.79 
  -1   2   4  448.14    5.24 
   0  -2  -4   75.43    0.93 
   0  -2  -4   76.30    0.93 
   0   2   4   74.79    0.98 
   0   2   4   73.84    0.95 
  -1  -2  -4   98.02    1.13 
  -1  -2  -4   97.11    1.23 
  -1  -2  -4   97.02    1.20 
   1   2   4   96.81    1.20 
   1   2   4   93.98    1.22 
  -2  -2  -4   15.43    0.31 
  -2  -2  -4   15.30    0.32 
   2   2   4   15.53    0.33 
   2   2   4   14.98    0.31 
  -3  -2  -4   20.74    0.40 
  -3  -2  -4   20.74    0.41 
   3   2   4   21.02    0.43 
   3   2   4   20.17    0.40 
  -4  -2  -4   23.31    0.48 
  -4  -2  -4   23.96    0.45 
   4   2   4   24.15    0.47 
   4   2   4   23.82    0.50 
  -5  -2  -4   12.15    0.31 
  -5  -2  -4   12.21    0.35 
   5   2   4   11.26    0.35 
   5   2   4   11.21    0.32 
  -6  -2  -4   23.62    0.55 
   6   2   4   23.18    0.53 
   6   2   4   23.40    0.56 
  -7  -2  -4    0.60    0.12 
   7   2   4    0.91    0.13 
   7   2   4    0.90    0.13 
  -8  -2  -4    6.90    0.32 
   8   2   4    6.41    0.31 
   8   2   4    5.82    0.31 
  10  -3  -4    3.27    0.25 
 -10   3   4    3.76    0.26 
   9  -3  -4    0.89    0.13 
   9  -3  -4    1.10    0.15 
  -9   3   4    0.96    0.14 
   8  -3  -4   22.61    0.54 
  -8   3   4   24.53    0.60 
  -8   3   4   24.89    0.60 
   7  -3  -4   45.86    0.82 
  -7   3   4   47.75    0.85 
  -7   3   4   47.23    0.85 
   6  -3  -4   11.92    0.34 
  -6   3   4   11.80    0.34 
  -6   3   4   12.52    0.35 
   5  -3  -4   29.76    0.57 
  -5   3   4   29.49    0.43 
  -5   3   4   29.35    0.56 
   4  -3  -4   34.04    0.60 
   4  -3  -4   34.47    0.49 
  -4   3   4   34.80    0.46 
  -4   3   4   33.76    0.60 
  -4   3   4   34.93    0.59 
   3  -3  -4   18.18    0.37 
   3  -3  -4   18.03    0.32 
  -3   3   4   17.50    0.35 
  -3   3   4   17.70    0.25 
  -3   3   4   17.34    0.36 
   2  -3  -4   13.53    0.27 
   2  -3  -4   12.97    0.28 
  -2   3   4   13.53    0.27 
  -2   3   4   13.37    0.21 
  -2   3   4   13.52    0.30 
   1  -3  -4    8.00    0.16 
   1  -3  -4    7.98    0.20 
   1  -3  -4    8.04    0.20 
  -1   3   4    8.06    0.22 
  -1   3   4    7.85    0.19 
   0  -3  -4    4.42    0.15 
   0  -3  -4    4.23    0.12 
   0  -3  -4    4.43    0.13 
   0   3   4    4.18    0.13 
   0   3   4    4.16    0.15 
  -1  -3  -4    4.05    0.15 
  -1  -3  -4    3.88    0.13 
  -1  -3  -4    3.85    0.10 
   1   3   4    3.83    0.13 
   1   3   4    3.80    0.15 
  -2  -3  -4   60.05    0.86 
  -2  -3  -4   59.80    0.87 
   2   3   4   59.54    0.89 
   2   3   4   59.64    0.82 
  -3  -3  -4    7.08    0.23 
  -3  -3  -4    7.20    0.23 
   3   3   4    6.95    0.24 
   3   3   4    7.25    0.21 
  -4  -3  -4   29.94    0.56 
  -4  -3  -4   30.12    0.58 
   4   3   4   29.33    0.53 
   4   3   4   27.64    0.58 
  -5  -3  -4    2.00    0.15 
  -5  -3  -4    2.28    0.14 
   5   3   4    2.08    0.14 
   5   3   4    2.13    0.16 
  -6  -3  -4    5.24    0.25 
  -6  -3  -4    5.78    0.23 
   6   3   4    5.32    0.24 
   6   3   4    5.12    0.26 
  -7  -3  -4    2.37    0.19 
   7   3   4    2.48    0.20 
   7   3   4    2.14    0.18 
  -8  -3  -4   18.12    0.55 
   8   3   4   17.10    0.55 
  10  -4  -4   14.41    0.50 
 -10   4   4   14.11    0.50 
   9  -4  -4    7.04    0.31 
   9  -4  -4    7.04    0.33 
  -9   4   4    6.21    0.31 
   8  -4  -4   29.22    0.65 
  -8   4   4   29.66    0.68 
  -8   4   4   30.00    0.68 
   7  -4  -4   63.56    1.06 
  -7   4   4   62.07    1.03 
  -7   4   4   62.89    1.04 
   6  -4  -4    3.69    0.19 
  -6   4   4    4.03    0.20 
  -6   4   4    3.83    0.20 
   5  -4  -4   29.12    0.57 
  -5   4   4   28.09    0.54 
  -5   4   4   28.89    0.57 
   4  -4  -4   29.54    0.55 
   4  -4  -4   29.62    0.45 
  -4   4   4   28.75    0.52 
  -4   4   4   28.81    0.55 
  -4   4   4   28.92    0.41 
   3  -4  -4   12.60    0.26 
   3  -4  -4   12.56    0.31 
  -3   4   4   12.39    0.22 
  -3   4   4   12.68    0.29 
  -3   4   4   12.19    0.31 
   2  -4  -4   79.82    1.08 
   2  -4  -4   78.97    1.04 
  -2   4   4   77.36    1.08 
  -2   4   4   76.85    1.01 
  -2   4   4   77.09    0.95 
   1  -4  -4    1.56    0.09 
   1  -4  -4    1.25    0.08 
  -1   4   4    1.32    0.07 
  -1   4   4    1.39    0.10 
  -1   4   4    1.50    0.08 
   0  -4  -4   63.17    0.84 
   0  -4  -4   63.34    0.85 
   0  -4  -4   63.48    0.90 
   0   4   4   62.11    0.91 
   0   4   4   62.20    0.81 
  -1  -4  -4   20.66    0.39 
  -1  -4  -4   20.89    0.34 
  -1  -4  -4   21.00    0.42 
   1   4   4   20.74    0.35 
   1   4   4   20.49    0.43 
  -2  -4  -4    9.00    0.25 
  -2  -4  -4    8.35    0.25 
   2   4   4    8.40    0.21 
   2   4   4    8.44    0.27 
  -3  -4  -4   23.03    0.47 
  -3  -4  -4   22.84    0.47 
   3   4   4   22.51    0.42 
   3   4   4   21.93    0.49 
  -4  -4  -4    7.22    0.26 
  -4  -4  -4    7.14    0.25 
   4   4   4    7.47    0.24 
   4   4   4    7.54    0.28 
  -5  -4  -4    1.15    0.13 
  -5  -4  -4    1.28    0.12 
   5   4   4    1.15    0.13 
  -6  -4  -4    9.01    0.31 
  -6  -4  -4    8.65    0.33 
   6   4   4    8.19    0.34 
  -7  -4  -4    2.04    0.18 
   7   4   4    1.83    0.18 
  -8  -4  -4   24.47    0.66 
   8   4   4   22.92    0.66 
  10  -5  -4    1.48    0.18 
  10  -5  -4    1.44    0.18 
 -10   5   4    1.67    0.19 
   9  -5  -4   15.43    0.50 
   9  -5  -4   16.07    0.49 
  -9   5   4   15.40    0.50 
   8  -5  -4    2.24    0.18 
   8  -5  -4    2.27    0.18 
  -8   5   4    2.32    0.19 
   7  -5  -4   44.30    0.84 
  -7   5   4   45.37    0.84 
  -7   5   4   45.95    0.87 
   6  -5  -4    6.03    0.26 
  -6   5   4    5.75    0.23 
  -6   5   4    5.81    0.25 
   5  -5  -4   78.53    1.18 
  -5   5   4   82.96    1.19 
  -5   5   4   82.92    1.24 
   4  -5  -4   31.80    0.50 
   4  -5  -4   32.67    0.61 
  -4   5   4   32.07    0.56 
  -4   5   4   31.36    0.47 
  -4   5   4   31.80    0.61 
   3  -5  -4   11.63    0.26 
   3  -5  -4   11.33    0.31 
  -3   5   4   11.42    0.23 
  -3   5   4   11.79    0.27 
  -3   5   4   10.93    0.31 
   2  -5  -4   18.35    0.37 
   2  -5  -4   18.01    0.39 
  -2   5   4   18.59    0.41 
  -2   5   4   18.19    0.34 
  -2   5   4   18.50    0.32 
   1  -5  -4   20.58    0.41 
   1  -5  -4   20.72    0.40 
  -1   5   4   20.58    0.35 
  -1   5   4   19.85    0.36 
   0  -5  -4   15.18    0.31 
   0  -5  -4   15.38    0.35 
   0  -5  -4   15.43    0.31 
   0   5   4   15.24    0.37 
   0   5   4   15.13    0.28 
  -1  -5  -4    3.42    0.12 
  -1  -5  -4    3.23    0.16 
  -1  -5  -4    3.18    0.14 
   1   5   4    3.31    0.12 
   1   5   4    3.47    0.17 
  -2  -5  -4   37.98    0.68 
  -2  -5  -4   38.66    0.65 
   2   5   4   36.44    0.68 
  -3  -5  -4   12.50    0.35 
  -3  -5  -4   12.56    0.35 
   3   5   4   11.96    0.36 
  -4  -5  -4   12.10    0.35 
  -4  -5  -4   12.11    0.36 
   4   5   4   11.73    0.38 
  -5  -5  -4    1.88    0.15 
  -5  -5  -4    1.73    0.15 
   5   5   4    1.48    0.16 
  -6  -5  -4    9.37    0.36 
  -6  -5  -4    9.84    0.35 
   6   5   4    9.23    0.37 
  -7  -5  -4    3.94    0.25 
   7   5   4    3.41    0.25 
   9  -6  -4    6.85    0.33 
   9  -6  -4    6.59    0.32 
  -9   6   4    6.79    0.34 
   8  -6  -4    3.76    0.24 
   8  -6  -4    3.80    0.23 
  -8   6   4    3.65    0.23 
   7  -6  -4   18.91    0.52 
  -7   6   4   19.05    0.49 
  -7   6   4   18.32    0.51 
   6  -6  -4    2.83    0.19 
  -6   6   4    3.08    0.19 
  -6   6   4    2.88    0.17 
   5  -6  -4   57.91    0.98 
  -5   6   4   58.36    0.98 
  -5   6   4   57.87    0.90 
   4  -6  -4   14.55    0.39 
   4  -6  -4   14.98    0.31 
  -4   6   4   14.37    0.39 
  -4   6   4   14.79    0.34 
   3  -6  -4    0.65    0.09 
   3  -6  -4    0.41    0.07 
  -3   6   4    0.57    0.10 
  -3   6   4    0.47    0.07 
  -3   6   4    0.53    0.06 
   2  -6  -4   49.09    0.75 
   2  -6  -4   47.93    0.77 
  -2   6   4   49.57    0.70 
  -2   6   4   48.98    0.83 
  -2   6   4   49.41    0.71 
   1  -6  -4   11.67    0.30 
   1  -6  -4   10.89    0.30 
  -1   6   4   11.03    0.26 
  -1   6   4   10.86    0.32 
   0  -6  -4   16.00    0.38 
   0  -6  -4   15.07    0.34 
   0  -6  -4   15.81    0.34 
  -1  -6  -4   55.11    0.84 
  -1  -6  -4   55.40    0.89 
  -1  -6  -4   54.79    0.78 
   1   6   4   52.41    0.89 
  -2  -6  -4   21.50    0.49 
  -2  -6  -4   21.15    0.47 
   2   6   4   20.44    0.50 
  -3  -6  -4    3.94    0.20 
  -3  -6  -4    3.77    0.20 
   3   6   4    3.50    0.20 
  -4  -6  -4   13.76    0.41 
  -4  -6  -4   14.01    0.41 
   4   6   4   13.48    0.43 
  -5  -6  -4    6.70    0.29 
  -5  -6  -4    6.88    0.30 
   5   6   4    6.66    0.31 
  -6  -6  -4    1.08    0.14 
  -6  -6  -4    1.18    0.15 
   6   6   4    1.17    0.18 
  -7  -6  -4    1.75    0.19 
   7   6   4    1.28    0.19 
   9  -7  -4    2.98    0.23 
   9  -7  -4    2.72    0.23 
  -9   7   4    3.00    0.23 
   8  -7  -4    6.32    0.31 
   8  -7  -4    6.62    0.30 
  -8   7   4    6.93    0.33 
   7  -7  -4   14.34    0.46 
   7  -7  -4   14.78    0.43 
  -7   7   4   14.95    0.47 
   6  -7  -4   20.31    0.53 
  -6   7   4   19.76    0.52 
  -6   7   4   19.58    0.47 
   5  -7  -4   15.37    0.44 
  -5   7   4   15.62    0.38 
  -5   7   4   15.24    0.44 
   4  -7  -4    5.64    0.24 
  -4   7   4    5.80    0.20 
  -4   7   4    6.05    0.26 
   3  -7  -4    0.72    0.10 
   3  -7  -4    0.82    0.09 
  -3   7   4    0.85    0.08 
  -3   7   4    0.82    0.11 
   2  -7  -4   60.89    0.92 
   2  -7  -4   59.82    0.95 
  -2   7   4   58.83    0.98 
  -2   7   4   59.56    0.86 
   1  -7  -4    5.06    0.20 
   1  -7  -4    5.60    0.22 
  -1   7   4    5.35    0.24 
  -1   7   4    5.43    0.19 
   0  -7  -4    0.25    0.07 
   0  -7  -4    0.16    0.06 
   0   7   4    0.18    0.06 
   0   7   4    0.17    0.07 
  -1  -7  -4    5.06    0.21 
  -1  -7  -4    5.19    0.23 
   1   7   4    4.98    0.24 
  -2  -7  -4    0.39    0.09 
  -2  -7  -4    0.42    0.10 
   2   7   4    0.35    0.09 
  -3  -7  -4   29.56    0.63 
  -3  -7  -4   29.14    0.64 
   3   7   4   27.88    0.65 
  -4  -7  -4    4.17    0.23 
  -4  -7  -4    3.76    0.22 
   4   7   4    3.68    0.24 
  -5  -7  -4   11.44    0.41 
  -5  -7  -4   12.33    0.42 
   5   7   4   10.52    0.42 
  -6  -7  -4    2.51    0.21 
  -6  -7  -4    2.67    0.22 
   6   7   4    2.44    0.22 
   8  -8  -4    5.79    0.31 
   8  -8  -4    5.65    0.29 
  -8   8   4    5.57    0.31 
   7  -8  -4    9.52    0.35 
   7  -8  -4    9.94    0.39 
  -7   8   4    9.27    0.38 
   6  -8  -4    0.67    0.13 
  -6   8   4    0.68    0.13 
   5  -8  -4    0.18    0.08 
  -5   8   4    0.36    0.10 
   4  -8  -4    3.74    0.21 
  -4   8   4    3.63    0.21 
   3  -8  -4    5.23    0.21 
   3  -8  -4    5.74    0.25 
  -3   8   4    5.37    0.25 
   2  -8  -4   10.62    0.32 
   2  -8  -4    9.63    0.32 
  -2   8   4    9.80    0.34 
  -2   8   4   10.03    0.28 
   1  -8  -4    2.06    0.15 
   1  -8  -4    2.16    0.15 
  -1   8   4    1.84    0.13 
  -1   8   4    1.89    0.16 
   0  -8  -4    8.66    0.30 
   0  -8  -4    8.42    0.27 
   0   8   4    8.42    0.28 
   0   8   4    8.08    0.32 
  -1  -8  -4    3.12    0.19 
   1   8   4    2.82    0.17 
   1   8   4    2.72    0.19 
  -2  -8  -4    6.06    0.26 
  -2  -8  -4    5.73    0.27 
   2   8   4    5.76    0.28 
  -3  -8  -4    5.94    0.27 
  -3  -8  -4    5.59    0.28 
   3   8   4    6.15    0.31 
  -4  -8  -4    0.20    0.09 
  -4  -8  -4    0.32    0.11 
   4   8   4    0.24    0.09 
  -5  -8  -4    1.05    0.17 
  -5  -8  -4    1.06    0.15 
   5   8   4    1.03    0.18 
   8  -9  -4    2.29    0.22 
  -8   9   4    2.12    0.21 
   7  -9  -4   15.07    0.51 
  -7   9   4   16.33    0.53 
   6  -9  -4   22.24    0.61 
  -6   9   4   22.08    0.60 
   5  -9  -4    2.35    0.19 
  -5   9   4    2.39    0.19 
   4  -9  -4    6.54    0.30 
  -4   9   4    6.46    0.30 
   3  -9  -4    9.85    0.35 
   3  -9  -4    8.67    0.29 
  -3   9   4    9.07    0.35 
   2  -9  -4   21.55    0.53 
   2  -9  -4   21.52    0.51 
  -2   9   4   23.05    0.59 
  -2   9   4   21.11    0.55 
   1  -9  -4    4.13    0.22 
   1  -9  -4    4.51    0.22 
  -1   9   4    3.30    0.18 
  -1   9   4    3.31    0.21 
   0  -9  -4    3.42    0.21 
   0   9   4    2.95    0.21 
   0   9   4    2.98    0.18 
  -1  -9  -4    3.10    0.21 
   1   9   4    2.81    0.18 
   1   9   4    2.89    0.21 
  -2  -9  -4    0.39    0.11 
   2   9   4    0.30    0.09 
   2   9   4    0.19    0.09 
  -3  -9  -4    0.56    0.12 
  -3  -9  -4    0.58    0.12 
   3   9   4    0.32    0.10 
  -4  -9  -4    1.42    0.16 
  -4  -9  -4    1.12    0.16 
   4   9   4    1.29    0.17 
   7 -10  -4   23.81    0.68 
  -7  10   4   24.53    0.68 
   6 -10  -4    5.00    0.29 
  -6  10   4    4.92    0.29 
   5 -10  -4    8.58    0.37 
  -5  10   4    8.33    0.36 
   4 -10  -4    5.21    0.28 
  -4  10   4    5.25    0.28 
   3 -10  -4    4.77    0.26 
  -3  10   4    4.52    0.26 
   2 -10  -4   13.13    0.42 
   2 -10  -4   12.58    0.40 
  -2  10   4   12.65    0.43 
   1 -10  -4    1.21    0.14 
   1 -10  -4    1.39    0.14 
  -1  10   4    1.41    0.16 
  -1  10   4    1.64    0.14 
   0 -10  -4    0.30    0.09 
  -1 -10  -4    0.88    0.15 
   1  10   4    0.70    0.13 
   1  10   4    0.61    0.13 
  -2 -10  -4    0.80    0.16 
   2  10   4    0.73    0.15 
   2  10   4    0.94    0.16 
  -3 -10  -4    4.04    0.27 
   3  10   4    3.77    0.27 
   3  10   4    3.27    0.23 
   6 -11  -4    3.62    0.27 
  -6  11   4    3.84    0.27 
   5 -11  -4    0.49    0.13 
  -5  11   4    0.40    0.13 
   4 -11  -4   20.30    0.59 
  -4  11   4   22.20    0.63 
   3 -11  -4    5.63    0.30 
  -3  11   4    6.19    0.32 
   2 -11  -4   21.79    0.58 
   2 -11  -4   22.47    0.58 
  -2  11   4   21.29    0.61 
   1 -11  -4   25.91    0.65 
  -1  11   4   28.29    0.72 
   0 -11  -4    0.50    0.13 
   0  11   4    0.35    0.12 
   0  11   4    0.29    0.10 
  -1 -11  -4   25.68    0.69 
   1  11   4   27.25    0.72 
   1  11   4   25.81    0.64 
  -2 -11  -4    0.02    0.08 
   2  11   4    0.22    0.09 
   2  11   4    0.17    0.09 
   3 -12  -4    0.19    0.10 
  -3  12   4    0.16    0.10 
   2 -12  -4   13.07    0.45 
  -2  12   4   13.80    0.50 
   1 -12  -4    6.90    0.34 
  -1  12   4    5.81    0.33 
   1  13  -5    7.15    0.37 
  -1 -13   5    7.53    0.36 
  -1 -13   5    7.57    0.37 
   0  13  -5    0.29    0.11 
   0 -13   5    0.40    0.12 
   0 -13   5    0.45    0.14 
  -1  13  -5   23.97    0.66 
   1 -13   5   23.29    0.67 
  -2  13  -5    2.79    0.23 
   2 -13   5    2.49    0.23 
   3  12  -5   16.42    0.53 
  -3 -12   5   17.92    0.57 
  -3 -12   5   16.60    0.53 
   2  12  -5    3.15    0.23 
  -2 -12   5    3.16    0.23 
  -2 -12   5    2.92    0.23 
   1  12  -5   30.33    0.73 
  -1 -12   5   30.75    0.73 
  -1 -12   5   28.65    0.72 
   0  12  -5    2.68    0.21 
   0 -12   5    2.72    0.22 
   0 -12   5    2.92    0.22 
  -1  12  -5   28.00    0.69 
   1 -12   5   30.12    0.69 
   1 -12   5   27.60    0.72 
  -2  12  -5    5.60    0.29 
   2 -12   5    5.80    0.31 
  -3  12  -5   11.16    0.42 
   3 -12   5   10.55    0.43 
  -4  12  -5    0.11    0.09 
   4 -12   5    0.07    0.09 
   5  11  -5    8.38    0.40 
  -5 -11   5    7.90    0.44 
   4  11  -5    1.90    0.19 
  -4 -11   5    2.08    0.20 
   3  11  -5    3.40    0.23 
  -3 -11   5    3.46    0.23 
  -3 -11   5    2.95    0.23 
   2  11  -5    1.46    0.16 
  -2 -11   5    1.31    0.16 
  -2 -11   5    1.69    0.17 
   1  11  -5    1.74    0.17 
  -1 -11   5    1.44    0.16 
  -1 -11   5    1.71    0.17 
   0  11  -5   11.90    0.41 
   0 -11   5   11.54    0.40 
   0 -11   5   11.94    0.42 
  -1  11  -5    2.73    0.20 
   1 -11   5    2.85    0.20 
   1 -11   5    2.88    0.21 
  -2  11  -5   11.35    0.40 
   2 -11   5   11.95    0.43 
  -3  11  -5   23.29    0.61 
   3 -11   5   21.66    0.61 
  -4  11  -5    1.46    0.16 
   4 -11   5    1.83    0.19 
  -5  11  -5    6.53    0.32 
   5 -11   5    5.85    0.32 
  -6  11  -5    1.47    0.17 
   6 -11   5    1.62    0.19 
   6  10  -5    4.82    0.28 
  -6 -10   5    5.05    0.31 
   5  10  -5    2.03    0.19 
  -5 -10   5    2.74    0.22 
   4  10  -5    5.56    0.28 
  -4 -10   5    5.50    0.29 
  -4 -10   5    5.69    0.28 
   3  10  -5    0.33    0.10 
  -3 -10   5    0.41    0.11 
  -3 -10   5    0.35    0.10 
   2  10  -5   17.31    0.49 
  -2 -10   5   16.36    0.48 
  -2 -10   5   16.42    0.49 
   1  10  -5    0.11    0.07 
  -1 -10   5    0.15    0.07 
   0  10  -5   51.84    0.94 
   0 -10   5   49.48    0.93 
   0 -10   5   49.38    0.90 
  -1  10  -5   12.14    0.39 
   1 -10   5   12.12    0.37 
   1 -10   5   11.49    0.40 
  -2  10  -5   17.65    0.49 
   2 -10   5   17.71    0.44 
   2 -10   5   16.83    0.49 
  -3  10  -5    9.99    0.37 
   3 -10   5    9.93    0.38 
  -4  10  -5    3.09    0.21 
   4 -10   5    2.83    0.21 
  -5  10  -5    5.96    0.29 
   5 -10   5    5.91    0.30 
  -6  10  -5    1.48    0.17 
   6 -10   5    1.16    0.16 
  -7  10  -5    8.63    0.38 
   7 -10   5    7.55    0.36 
   6   9  -5    1.00    0.14 
  -6  -9   5    1.29    0.17 
   5   9  -5    1.01    0.13 
  -5  -9   5    1.35    0.16 
   4   9  -5    2.15    0.17 
  -4  -9   5    2.20    0.17 
  -4  -9   5    2.19    0.18 
  -3  -9   5    4.09    0.23 
  -3  -9   5    3.52    0.22 
   2   9  -5    4.23    0.22 
  -2  -9   5    4.36    0.23 
  -2  -9   5    4.77    0.24 
   1   9  -5    2.15    0.16 
  -1  -9   5    2.15    0.17 
  -1  -9   5    2.17    0.16 
   0   9  -5   33.54    0.67 
   0  -9   5   32.86    0.66 
   0  -9   5   32.77    0.68 
  -1   9  -5   12.66    0.38 
   1  -9   5   13.35    0.37 
   1  -9   5   12.86    0.40 
  -2   9  -5    1.39    0.13 
   2  -9   5    1.35    0.14 
   2  -9   5    1.39    0.12 
  -3   9  -5    9.79    0.34 
   3  -9   5    9.63    0.35 
  -4   9  -5    4.61    0.24 
   4  -9   5    4.68    0.25 
  -5   9  -5   11.45    0.39 
   5  -9   5   12.64    0.42 
  -6   9  -5    1.01    0.14 
   6  -9   5    1.01    0.15 
   6  -9   5    0.98    0.16 
  -7   9  -5   10.15    0.40 
   7  -9   5    9.95    0.39 
   7  -9   5    9.58    0.39 
   7   8  -5   16.86    0.51 
  -7  -8   5   16.75    0.53 
   6   8  -5    3.30    0.21 
  -6  -8   5    3.19    0.22 
   5   8  -5    5.14    0.25 
  -5  -8   5    5.45    0.27 
  -5  -8   5    5.60    0.26 
   4   8  -5    0.14    0.06 
  -4  -8   5    0.13    0.07 
  -4  -8   5    0.10    0.06 
   3   8  -5    1.09    0.12 
  -3  -8   5    1.06    0.12 
  -3  -8   5    1.14    0.12 
   2   8  -5   24.34    0.54 
  -2  -8   5   23.68    0.55 
  -2  -8   5   25.07    0.56 
   1   8  -5    4.41    0.21 
  -1  -8   5    4.35    0.22 
  -1  -8   5    4.09    0.20 
   0   8  -5   42.48    0.75 
   0  -8   5   41.14    0.76 
   0  -8   5   42.06    0.74 
  -1   8  -5    0.29    0.07 
   1  -8   5    0.33    0.08 
   1  -8   5    0.33    0.08 
  -2   8  -5    5.84    0.24 
   2  -8   5    5.72    0.21 
   2  -8   5    5.38    0.24 
  -3   8  -5   59.23    0.98 
   3  -8   5   59.45    0.90 
   3  -8   5   57.30    0.98 
  -4   8  -5    6.92    0.28 
   4  -8   5    6.74    0.28 
   4  -8   5    6.87    0.26 
  -5   8  -5   15.70    0.45 
   5  -8   5   15.33    0.45 
   5  -8   5   15.45    0.43 
  -6   8  -5    0.11    0.07 
   6  -8   5    0.12    0.07 
   6  -8   5   -0.05    0.06 
  -7   8  -5    3.96    0.24 
   7  -8   5    4.11    0.25 
  -8   8  -5    8.54    0.37 
   8  -8   5    7.41    0.35 
   7   7  -5    5.50    0.27 
  -7  -7   5    5.79    0.29 
   6   7  -5    6.68    0.28 
  -6  -7   5    7.07    0.30 
   5   7  -5    4.08    0.21 
  -5  -7   5    4.44    0.22 
  -5  -7   5    4.73    0.24 
   4   7  -5   18.93    0.46 
  -4  -7   5   19.17    0.46 
  -4  -7   5   18.58    0.48 
   3   7  -5    1.74    0.13 
  -3  -7   5    1.92    0.15 
  -3  -7   5    2.20    0.15 
   2   7  -5   24.88    0.51 
  -2  -7   5   24.05    0.52 
  -2  -7   5   23.66    0.52 
   1   7  -5   15.40    0.38 
  -1  -7   5   15.62    0.40 
  -1  -7   5   15.30    0.38 
   0   7  -5    7.13    0.24 
   0  -7   5    6.47    0.24 
   0  -7   5    6.65    0.23 
  -1   7  -5    0.65    0.08 
   1  -7   5    0.70    0.07 
   1  -7   5    0.45    0.09 
   1  -7   5    0.63    0.08 
  -2   7  -5   49.18    0.82 
   2  -7   5   49.69    0.85 
   2  -7   5   50.64    0.77 
   2  -7   5   51.17    0.77 
  -3   7  -5  159.37    2.08 
  -3   7  -5  161.76    2.01 
  -3   7  -5  159.59    1.97 
   3  -7   5  154.97    2.05 
   3  -7   5  155.93    1.98 
  -4   7  -5    1.86    0.12 
  -4   7  -5    1.87    0.15 
   4  -7   5    1.54    0.14 
   4  -7   5    1.53    0.13 
  -5   7  -5    9.32    0.29 
  -5   7  -5    9.29    0.33 
   5  -7   5    9.11    0.32 
   5  -7   5    8.91    0.32 
  -6   7  -5    1.40    0.15 
  -6   7  -5    1.33    0.13 
   6  -7   5    1.62    0.15 
   6  -7   5    1.66    0.15 
  -7   7  -5    4.38    0.25 
  -7   7  -5    4.74    0.25 
   7  -7   5    3.70    0.24 
  -8   7  -5    8.05    0.35 
  -8   7  -5    7.73    0.34 
   8  -7   5    7.32    0.35 
  -8  -6   5    5.46    0.27 
  -7  -6   5    2.95    0.20 
  -7  -6   5    2.78    0.18 
  -6  -6   5    0.40    0.09 
  -6  -6   5    0.32    0.09 
  -6  -6   5    0.46    0.10 
   5   6  -5   18.21    0.44 
   5   6  -5   19.12    0.46 
  -5  -6   5   17.63    0.43 
  -5  -6   5   18.27    0.46 
   4   6  -5   56.60    0.84 
   4   6  -5   58.26    0.91 
  -4  -6   5   59.99    0.94 
  -4  -6   5   56.85    0.95 
   3   6  -5   10.34    0.29 
   3   6  -5   10.76    0.25 
  -3  -6   5   11.38    0.32 
  -3  -6   5   10.76    0.32 
   2   6  -5   61.92    0.92 
  -2  -6   5   63.44    0.83 
  -2  -6   5   62.02    0.96 
  -2  -6   5   62.96    0.96 
   1   6  -5    2.99    0.15 
  -1  -6   5    3.08    0.16 
  -1  -6   5    3.05    0.15 
  -1  -6   5    2.72    0.11 
   0   6  -5   52.57    0.81 
   0  -6   5   50.44    0.80 
   0  -6   5   49.46    0.70 
   0  -6   5   50.38    0.77 
  -1   6  -5    2.73    0.14 
  -1   6  -5    2.81    0.10 
   1  -6   5    2.91    0.12 
   1  -6   5    2.86    0.14 
   1  -6   5    2.81    0.15 
  -2   6  -5  212.76    2.61 
  -2   6  -5  208.58    2.51 
  -2   6  -5  216.66    2.47 
   2  -6   5  204.36    2.52 
   2  -6   5  202.02    2.45 
  -3   6  -5   99.60    1.28 
  -3   6  -5  100.16    1.39 
  -3   6  -5  100.47    1.27 
   3  -6   5   97.30    1.33 
   3  -6   5   97.11    1.36 
  -4   6  -5    0.83    0.08 
  -4   6  -5    0.65    0.09 
   4  -6   5    0.70    0.11 
   4  -6   5    0.68    0.10 
  -5   6  -5    8.86    0.31 
   5  -6   5    7.78    0.29 
   5  -6   5    8.08    0.28 
  -6   6  -5    5.25    0.23 
  -6   6  -5    5.43    0.25 
   6  -6   5    4.82    0.22 
   6  -6   5    4.74    0.25 
  -7   6  -5    3.99    0.23 
  -7   6  -5    4.49    0.24 
   7  -6   5    4.19    0.25 
  -8   6  -5    0.63    0.14 
  -8   6  -5    0.63    0.13 
   8  -6   5    0.46    0.13 
   8   5  -5    3.82    0.22 
  -8  -5   5    4.09    0.22 
   7   5  -5    4.58    0.22 
  -7  -5   5    4.31    0.22 
  -7  -5   5    4.57    0.22 
   6   5  -5    2.27    0.14 
  -6  -5   5    2.07    0.14 
  -6  -5   5    2.08    0.15 
  -6  -5   5    2.15    0.15 
   5   5  -5    5.43    0.20 
  -5  -5   5    5.37    0.23 
  -5  -5   5    5.85    0.23 
  -5  -5   5    5.58    0.19 
  -5  -5   5    5.40    0.21 
   4   5  -5    2.40    0.14 
   4   5  -5    2.63    0.12 
  -4  -5   5    2.87    0.13 
  -4  -5   5    2.55    0.15 
  -4  -5   5    2.61    0.15 
   3   5  -5   11.77    0.24 
   3   5  -5   11.74    0.29 
  -3  -5   5   12.12    0.32 
  -3  -5   5   11.92    0.26 
  -3  -5   5   12.16    0.32 
   2   5  -5   24.11    0.45 
   2   5  -5   24.42    0.36 
  -2  -5   5   25.04    0.41 
  -2  -5   5   25.28    0.49 
  -2  -5   5   24.74    0.49 
   1   5  -5    3.16    0.14 
  -1  -5   5    2.98    0.11 
  -1  -5   5    2.81    0.14 
  -1  -5   5    3.08    0.14 
   0   5  -5   28.93    0.50 
   0  -5   5   29.91    0.50 
   0  -5   5   29.11    0.52 
   0  -5   5   28.38    0.46 
  -1   5  -5    0.42    0.06 
  -1   5  -5    0.34    0.04 
   1  -5   5    0.39    0.06 
   1  -5   5    0.46    0.08 
  -2   5  -5   50.57    0.72 
  -2   5  -5   50.79    0.78 
  -2   5  -5   50.45    0.68 
   2  -5   5   47.72    0.75 
   2  -5   5   48.51    0.74 
  -3   5  -5   49.65    0.69 
  -3   5  -5   50.58    0.80 
  -3   5  -5   49.82    0.72 
   3  -5   5   49.12    0.77 
   3  -5   5   48.25    0.78 
  -4   5  -5    1.63    0.13 
  -4   5  -5    1.61    0.11 
   4  -5   5    1.77    0.12 
   4  -5   5    1.96    0.14 
  -5   5  -5   41.80    0.77 
  -5   5  -5   43.35    0.73 
   5  -5   5   39.55    0.68 
   5  -5   5   38.34    0.73 
  -6   5  -5    3.20    0.18 
  -6   5  -5    3.07    0.19 
   6  -5   5    3.09    0.20 
  -7   5  -5   12.99    0.40 
  -7   5  -5   13.59    0.42 
   7  -5   5   12.97    0.44 
  -8   5  -5   11.14    0.40 
  -8   5  -5   12.05    0.42 
   8  -5   5   10.85    0.42 
  -9   5  -5    3.18    0.24 
  -9   5  -5    3.19    0.23 
   9  -5   5    2.94    0.28 
  -9  -4   5    0.62    0.12 
   8   4  -5   10.34    0.35 
  -8  -4   5    9.86    0.34 
  -8  -4   5   10.08    0.33 
  -7  -4   5    7.27    0.27 
  -7  -4   5    7.52    0.27 
  -7  -4   5    7.60    0.27 
  -7  -4   5    7.11    0.26 
  -7  -4   5    7.69    0.28 
  -6  -4   5    1.41    0.11 
  -6  -4   5    1.42    0.11 
  -6  -4   5    1.34    0.12 
  -6  -4   5    1.46    0.12 
  -6  -4   5    1.37    0.12 
  -5  -4   5    9.35    0.29 
  -5  -4   5    9.58    0.25 
  -5  -4   5    9.55    0.29 
  -5  -4   5    9.44    0.26 
  -5  -4   5    9.42    0.26 
   4   4  -5    2.47    0.12 
  -4  -4   5    2.54    0.14 
  -4  -4   5    2.95    0.15 
  -4  -4   5    3.00    0.12 
  -4  -4   5    2.50    0.12 
   3   4  -5   30.02    0.50 
  -3  -4   5   29.95    0.48 
  -3  -4   5   29.06    0.53 
   2   4  -5   90.67    1.17 
   2   4  -5   91.89    1.07 
  -2  -4   5   94.58    1.19 
  -2  -4   5   94.86    1.26 
  -2  -4   5   93.69    1.25 
   1   4  -5    8.01    0.21 
  -1  -4   5    7.98    0.22 
  -1  -4   5    8.13    0.20 
  -1  -4   5    8.31    0.23 
  -1   4  -5   19.21    0.35 
  -1   4  -5   19.72    0.28 
  -1   4  -5   19.68    0.38 
   1  -4   5   19.95    0.37 
   1  -4   5   19.08    0.38 
  -2   4  -5    2.69    0.10 
  -2   4  -5    2.85    0.13 
  -2   4  -5    2.57    0.11 
   2  -4   5    2.52    0.12 
   2  -4   5    2.42    0.12 
  -3   4  -5  104.14    1.39 
  -3   4  -5  103.11    1.28 
  -3   4  -5  103.03    1.30 
   3  -4   5   97.78    1.32 
   3  -4   5   97.20    1.28 
  -4   4  -5   12.31    0.30 
  -4   4  -5   11.38    0.32 
   4  -4   5   12.50    0.30 
  -5   4  -5   85.39    1.20 
  -5   4  -5   81.18    1.23 
   5  -4   5   79.33    1.10 
   5  -4   5   78.40    1.20 
  -6   4  -5   19.65    0.49 
  -6   4  -5   20.05    0.47 
   6  -4   5   18.39    0.49 
  -7   4  -5   21.51    0.55 
  -7   4  -5   22.10    0.54 
   7  -4   5   20.55    0.56 
  -8   4  -5   19.05    0.53 
  -8   4  -5   19.08    0.54 
   8  -4   5   16.96    0.54 
  -9   4  -5    5.08    0.29 
  -9   4  -5    5.03    0.29 
   9  -4   5    4.02    0.28 
   9   3  -5    0.61    0.12 
  -9  -3   5    0.73    0.14 
  -8  -3   5   15.76    0.44 
  -8  -3   5   16.10    0.45 
  -7  -3   5    2.30    0.16 
  -7  -3   5    2.22    0.14 
  -7  -3   5    2.29    0.15 
  -7  -3   5    2.10    0.15 
  -7  -3   5    2.32    0.15 
  -6  -3   5    7.45    0.26 
  -6  -3   5    7.04    0.25 
  -6  -3   5    6.75    0.23 
  -6  -3   5    7.21    0.24 
  -6  -3   5    6.89    0.22 
  -5  -3   5   36.42    0.64 
  -5  -3   5   35.96    0.59 
  -5  -3   5   36.08    0.62 
  -5  -3   5   35.62    0.62 
  -5  -3   5   36.65    0.59 
  -4  -3   5   13.11    0.30 
  -4  -3   5   12.58    0.32 
  -4  -3   5   12.98    0.27 
  -4  -3   5   13.16    0.31 
  -4  -3   5   13.14    0.28 
   3   3  -5   20.02    0.35 
  -3  -3   5   21.05    0.41 
  -3  -3   5   20.37    0.38 
  -3  -3   5   20.88    0.33 
  -3  -3   5   20.49    0.39 
   2   3  -5   52.63    0.71 
  -2  -3   5   52.21    0.77 
  -2  -3   5   51.94    0.73 
  -2  -3   5   52.72    0.76 
  -2  -3   5   53.00    0.63 
   1   3  -5    4.59    0.15 
   1   3  -5    4.73    0.14 
  -1  -3   5    4.64    0.16 
  -1  -3   5    4.74    0.15 
   0   3  -5    0.45    0.05 
   0   3  -5    0.56    0.05 
   0  -3   5    0.57    0.05 
   0  -3   5    0.47    0.06 
  -1   3  -5  102.82    1.19 
  -1   3  -5  101.97    1.28 
  -1   3  -5  102.97    1.29 
   1  -3   5   98.68    1.24 
   1  -3   5   96.37    1.25 
  -2   3  -5   22.95    0.38 
  -2   3  -5   23.30    0.43 
  -2   3  -5   23.04    0.36 
   2  -3   5   23.06    0.43 
   2  -3   5   22.74    0.39 
  -3   3  -5   80.46    1.05 
  -3   3  -5   79.98    1.01 
  -3   3  -5   78.86    1.11 
   3  -3   5   77.68    1.02 
   3  -3   5   77.48    1.10 
  -4   3  -5    4.77    0.14 
  -4   3  -5    4.58    0.19 
  -4   3  -5    4.66    0.18 
   4  -3   5    4.04    0.19 
   4  -3   5    4.27    0.15 
  -5   3  -5    9.32    0.28 
  -5   3  -5    9.62    0.30 
   5  -3   5    9.10    0.31 
  -6   3  -5    7.76    0.29 
  -6   3  -5    7.96    0.28 
   6  -3   5    8.03    0.31 
  -7   3  -5    0.29    0.10 
  -7   3  -5    0.20    0.08 
   7  -3   5    0.13    0.08 
  -8   3  -5   15.52    0.48 
  -8   3  -5   15.25    0.48 
   8  -3   5   14.14    0.48 
  -9   3  -5    2.69    0.22 
  -9   3  -5    3.12    0.23 
   9  -3   5    2.37    0.22 
  10   2  -5    6.02    0.32 
 -10  -2   5    6.24    0.32 
   9   2  -5    3.29    0.22 
  -9  -2   5    3.41    0.22 
   8   2  -5   19.04    0.47 
  -8  -2   5   20.10    0.51 
  -8  -2   5   20.40    0.51 
   7   2  -5    0.21    0.08 
  -7  -2   5    0.22    0.06 
  -7  -2   5    0.23    0.07 
  -7  -2   5    0.26    0.08 
  -6  -2   5    4.92    0.19 
  -6  -2   5    5.32    0.21 
  -6  -2   5    5.03    0.21 
  -6  -2   5    5.23    0.18 
  -6  -2   5    5.16    0.20 
  -5  -2   5   13.37    0.31 
  -5  -2   5   12.90    0.30 
  -5  -2   5   12.99    0.33 
  -5  -2   5   13.16    0.28 
  -5  -2   5   12.83    0.32 
  -4  -2   5    4.23    0.16 
  -4  -2   5    4.34    0.13 
  -4  -2   5    4.30    0.16 
  -4  -2   5    4.26    0.17 
   3   2  -5   89.05    1.09 
   3   2  -5   88.87    1.15 
  -3  -2   5   89.18    1.16 
  -3  -2   5   89.19    1.18 
  -3  -2   5   88.66    1.09 
   2   2  -5  120.42    1.48 
   2   2  -5  119.49    1.41 
  -2  -2   5  119.96    1.36 
  -2  -2   5  118.42    1.49 
  -2  -2   5  116.64    1.46 
   1   2  -5   58.72    0.75 
   1   2  -5   59.24    0.80 
  -1  -2   5   57.47    0.79 
  -1  -2   5   57.52    0.78 
   0   2  -5  103.25    1.27 
   0   2  -5  101.71    1.24 
   0  -2   5  100.05    1.25 
   0  -2   5   98.65    1.24 
  -1   2  -5   42.85    0.61 
  -1   2  -5   43.56    0.62 
   1  -2   5   41.66    0.59 
   1  -2   5   41.86    0.63 
  -2   2  -5   11.00    0.26 
  -2   2  -5   10.98    0.23 
  -2   2  -5   10.65    0.22 
   2  -2   5   10.37    0.22 
   2  -2   5   10.61    0.27 
  -3   2  -5    7.25    0.20 
  -3   2  -5    7.62    0.18 
  -3   2  -5    7.69    0.23 
   3  -2   5    7.26    0.17 
   3  -2   5    7.39    0.23 
  -4   2  -5   36.39    0.61 
  -4   2  -5   37.12    0.54 
  -4   2  -5   36.28    0.64 
   4  -2   5   36.94    0.53 
   4  -2   5   36.68    0.66 
  -5   2  -5    7.74    0.26 
  -5   2  -5    8.28    0.28 
   5  -2   5    6.86    0.26 
  -6   2  -5    7.95    0.29 
  -6   2  -5    7.56    0.29 
   6  -2   5    7.03    0.29 
  -7   2  -5    8.04    0.32 
  -7   2  -5    8.09    0.31 
   7  -2   5    7.93    0.33 
  -8   2  -5    2.75    0.20 
  -8   2  -5    2.34    0.19 
   8  -2   5    2.03    0.19 
  -9   2  -5    1.95    0.19 
  -9   2  -5    1.75    0.18 
   9  -2   5    1.88    0.20 
  10   1  -5    5.02    0.29 
 -10  -1   5    5.94    0.31 
   9   1  -5    5.19    0.28 
  -9  -1   5    5.02    0.26 
   8   1  -5   11.77    0.36 
  -8  -1   5   11.76    0.38 
  -8  -1   5   12.50    0.39 
   7   1  -5    7.20    0.26 
  -7  -1   5    7.65    0.28 
  -7  -1   5    7.71    0.28 
   6   1  -5    4.65    0.16 
   6   1  -5    4.65    0.20 
  -6  -1   5    4.77    0.20 
  -6  -1   5    4.51    0.20 
  -6  -1   5    4.46    0.16 
   5   1  -5   20.38    0.37 
  -5  -1   5   21.57    0.36 
  -5  -1   5   21.35    0.42 
  -5  -1   5   21.07    0.44 
  -5  -1   5   21.12    0.45 
   4   1  -5   30.61    0.49 
  -4  -1   5   30.61    0.54 
  -4  -1   5   30.63    0.54 
  -4  -1   5   31.03    0.44 
  -4  -1   5   31.01    0.50 
   3   1  -5    3.85    0.13 
   3   1  -5    4.10    0.10 
  -3  -1   5    4.56    0.16 
  -3  -1   5    3.94    0.12 
  -3  -1   5    4.28    0.16 
   2   1  -5   21.51    0.37 
   2   1  -5   22.14    0.30 
  -2  -1   5   22.71    0.40 
  -2  -1   5   22.55    0.33 
  -2  -1   5   22.37    0.40 
   1   1  -5    1.46    0.06 
   1   1  -5    1.54    0.08 
  -1  -1   5    1.40    0.08 
  -1  -1   5    1.41    0.08 
  -1  -1   5    1.40    0.05 
   0   1  -5  111.12    1.31 
   0   1  -5  109.61    1.35 
   0  -1   5  110.41    1.27 
   0  -1   5  107.48    1.32 
   0  -1   5  108.24    1.36 
  -1   1  -5   34.25    0.51 
  -1   1  -5   33.58    0.50 
   1  -1   5   31.81    0.45 
   1  -1   5   32.16    0.46 
   1  -1   5   32.12    0.51 
  -2   1  -5  260.77    3.03 
  -2   1  -5  265.91    3.06 
   2  -1   5  249.11    2.97 
   2  -1   5  255.51    2.85 
  -3   1  -5   87.15    1.11 
  -3   1  -5   88.62    1.15 
  -3   1  -5   86.37    1.18 
   3  -1   5   83.87    1.17 
   3  -1   5   84.28    1.01 
  -4   1  -5    7.01    0.19 
  -4   1  -5    7.51    0.24 
  -4   1  -5    7.52    0.23 
   4  -1   5    7.19    0.25 
  -5   1  -5    8.57    0.29 
  -5   1  -5    8.47    0.27 
   5  -1   5    7.64    0.27 
  -6   1  -5   12.55    0.38 
  -6   1  -5   12.10    0.36 
   6  -1   5   11.37    0.37 
  -7   1  -5    2.14    0.17 
  -7   1  -5    2.10    0.17 
   7  -1   5    2.04    0.18 
  -8   1  -5   12.69    0.43 
  -8   1  -5   12.93    0.44 
   8  -1   5   12.03    0.44 
  -9   1  -5    1.10    0.18 
  -9   1  -5    1.18    0.17 
   9  -1   5    1.05    0.18 
  10   0  -5    4.67    0.29 
 -10   0   5    4.76    0.28 
   9   0  -5    0.53    0.12 
  -9   0   5    0.89    0.13 
   8   0  -5   11.88    0.36 
  -8   0   5   11.97    0.39 
  -8   0   5   12.98    0.40 
   7   0  -5   11.49    0.34 
  -7   0   5   11.88    0.36 
  -7   0   5   12.27    0.36 
   6   0  -5    6.76    0.24 
   6   0  -5    5.93    0.18 
  -6   0   5    6.55    0.23 
  -6   0   5    6.60    0.25 
  -6   0   5    7.12    0.19 
   5   0  -5    4.74    0.19 
   5   0  -5    4.24    0.14 
  -5   0   5    4.75    0.18 
  -5   0   5    4.45    0.19 
  -5   0   5    4.76    0.13 
   4   0  -5    6.11    0.17 
  -4   0   5    5.50    0.17 
  -4   0   5    6.31    0.21 
  -4   0   5    6.13    0.13 
  -4   0   5    6.12    0.20 
   3   0  -5    1.50    0.08 
  -3   0   5    1.72    0.10 
  -3   0   5    1.80    0.10 
  -3   0   5    1.68    0.08 
   2   0  -5    0.56    0.05 
  -2   0   5    0.51    0.06 
  -2   0   5    0.60    0.06 
  -2   0   5    0.63    0.05 
   1   0  -5   38.35    0.56 
   1   0  -5   38.22    0.47 
  -1   0   5   36.61    0.56 
  -1   0   5   37.47    0.51 
  -1   0   5   37.12    0.54 
   0   0  -5   43.30    0.56 
   0   0  -5   42.74    0.61 
   0   0   5   42.31    0.58 
   0   0   5   42.80    0.58 
   0   0   5   43.25    0.63 
  -1   0  -5  121.62    1.48 
  -1   0  -5  119.93    1.45 
   1   0   5  118.31    1.38 
   1   0   5  119.44    1.48 
   1   0   5  117.97    1.43 
  -2   0  -5   53.90    0.76 
  -2   0  -5   53.45    0.75 
   2   0   5   53.18    0.78 
   2   0   5   52.17    0.74 
  -3   0  -5   54.93    0.82 
  -3   0  -5   56.60    0.79 
   3   0   5   54.64    0.83 
   3   0   5   54.74    0.81 
  -4   0  -5   11.11    0.30 
  -4   0  -5   10.99    0.26 
  -4   0  -5   11.14    0.30 
   4   0   5   11.66    0.32 
  -5   0  -5   13.58    0.36 
  -5   0  -5   14.13    0.31 
  -5   0  -5   13.81    0.38 
   5   0   5   13.36    0.37 
  -6   0  -5   10.66    0.35 
  -6   0  -5   10.88    0.35 
   6   0   5    9.63    0.34 
  -7   0  -5   19.05    0.51 
  -7   0  -5   19.10    0.51 
   7   0   5   18.49    0.51 
  -8   0  -5    6.13    0.30 
   8   0   5    5.87    0.30 
   8   0   5    6.01    0.31 
  10  -1  -5    5.17    0.30 
 -10   1   5    5.51    0.30 
   9  -1  -5   18.60    0.50 
  -9   1   5   18.16    0.53 
  -9   1   5   18.49    0.53 
   8  -1  -5    7.40    0.29 
  -8   1   5    7.79    0.31 
  -8   1   5    7.92    0.31 
   7  -1  -5   76.78    1.17 
  -7   1   5   79.03    1.22 
  -7   1   5   79.34    1.21 
   6  -1  -5   16.80    0.41 
  -6   1   5   17.72    0.43 
  -6   1   5   16.84    0.41 
   5  -1  -5   66.17    0.87 
   5  -1  -5   65.41    0.98 
  -5   1   5   67.73    0.99 
  -5   1   5   67.91    1.02 
  -5   1   5   68.20    0.84 
   4  -1  -5    1.11    0.09 
   4  -1  -5    1.03    0.07 
  -4   1   5    1.11    0.08 
  -4   1   5    1.11    0.09 
   3  -1  -5  101.37    1.32 
   3  -1  -5  103.20    1.27 
  -3   1   5   99.79    1.30 
  -3   1   5  101.30    1.27 
   2  -1  -5   39.14    0.56 
   2  -1  -5   37.92    0.58 
  -2   1   5   41.43    0.61 
  -2   1   5   39.66    0.58 
   1  -1  -5    0.91    0.06 
   1  -1  -5    0.86    0.04 
   1  -1  -5    0.82    0.06 
  -1   1   5    0.93    0.06 
  -1   1   5    0.95    0.07 
   0  -1  -5  296.60    3.50 
   0  -1  -5  299.28    3.58 
   0   1   5  294.92    3.37 
   0   1   5  290.14    3.59 
  -1  -1  -5   11.40    0.19 
  -1  -1  -5   10.97    0.25 
  -1  -1  -5   10.69    0.23 
   1   1   5   10.71    0.24 
   1   1   5   10.44    0.25 
  -2  -1  -5   51.72    0.75 
  -2  -1  -5   51.75    0.75 
   2   1   5   50.88    0.76 
   2   1   5   52.32    0.76 
  -3  -1  -5   14.93    0.34 
  -3  -1  -5   14.53    0.32 
   3   1   5   14.17    0.33 
   3   1   5   13.37    0.33 
  -4  -1  -5    5.40    0.19 
  -4  -1  -5    5.19    0.21 
   4   1   5    5.66    0.22 
   4   1   5    5.40    0.21 
  -5  -1  -5   13.08    0.32 
  -5  -1  -5   12.51    0.36 
   5   1   5   12.38    0.36 
   5   1   5   12.18    0.35 
  -6  -1  -5    4.35    0.22 
   6   1   5    4.06    0.22 
   6   1   5    4.09    0.22 
  -7  -1  -5    9.27    0.35 
   7   1   5    9.04    0.36 
   7   1   5    9.49    0.36 
  -8  -1  -5    7.32    0.33 
   8   1   5    6.71    0.33 
   8   1   5    7.12    0.34 
  10  -2  -5    7.99    0.37 
 -10   2   5    9.26    0.39 
   9  -2  -5    0.85    0.14 
  -9   2   5    0.84    0.14 
  -9   2   5    0.93    0.15 
   8  -2  -5    6.85    0.29 
  -8   2   5    6.22    0.28 
  -8   2   5    6.59    0.28 
   7  -2  -5   22.06    0.52 
  -7   2   5   22.26    0.53 
  -7   2   5   22.10    0.52 
   6  -2  -5   13.99    0.38 
  -6   2   5   14.76    0.39 
  -6   2   5   14.11    0.37 
   5  -2  -5   10.80    0.30 
   5  -2  -5   11.20    0.23 
  -5   2   5   11.56    0.31 
  -5   2   5   11.40    0.32 
   4  -2  -5   19.65    0.41 
   4  -2  -5   20.03    0.34 
  -4   2   5   20.37    0.41 
  -4   2   5   19.97    0.41 
   3  -2  -5    1.58    0.08 
   3  -2  -5    1.53    0.10 
  -3   2   5    1.57    0.09 
  -3   2   5    1.45    0.10 
   2  -2  -5  103.52    1.31 
   2  -2  -5  103.36    1.29 
  -2   2   5   99.64    1.28 
  -2   2   5  101.50    1.28 
   1  -2  -5    0.03    0.03 
   1  -2  -5    0.03    0.02 
   1  -2  -5    0.01    0.02 
  -1   2   5    0.04    0.03 
  -1   2   5    0.05    0.03 
   0  -2  -5  137.65    1.61 
   0  -2  -5  137.28    1.61 
   0  -2  -5  135.89    1.69 
   0   2   5  132.78    1.65 
   0   2   5  132.63    1.62 
  -1  -2  -5    4.27    0.16 
  -1  -2  -5    4.55    0.14 
  -1  -2  -5    4.41    0.11 
   1   2   5    4.32    0.16 
   1   2   5    4.64    0.16 
  -2  -2  -5   40.88    0.63 
  -2  -2  -5   40.44    0.64 
   2   2   5   38.69    0.64 
   2   2   5   39.97    0.62 
  -3  -2  -5   53.54    0.82 
  -3  -2  -5   52.79    0.80 
   3   2   5   52.96    0.80 
   3   2   5   52.07    0.83 
  -4  -2  -5    4.75    0.19 
  -4  -2  -5    4.65    0.20 
   4   2   5    4.37    0.19 
   4   2   5    4.65    0.21 
  -5  -2  -5    7.02    0.27 
  -5  -2  -5    6.41    0.23 
   5   2   5    6.50    0.25 
   5   2   5    6.18    0.26 
  -6  -2  -5    1.40    0.14 
   6   2   5    1.34    0.14 
   6   2   5    1.33    0.14 
  -7  -2  -5    5.06    0.27 
   7   2   5    5.07    0.28 
   7   2   5    4.92    0.26 
  -8  -2  -5   10.30    0.41 
   8   2   5   10.18    0.40 
   8   2   5    9.13    0.40 
  10  -3  -5    8.46    0.36 
  10  -3  -5    8.39    0.38 
 -10   3   5    9.81    0.41 
   9  -3  -5    0.69    0.13 
  -9   3   5    0.62    0.12 
   8  -3  -5   18.79    0.50 
  -8   3   5   18.81    0.51 
  -8   3   5   18.27    0.50 
   7  -3  -5    9.42    0.33 
  -7   3   5    9.70    0.33 
  -7   3   5    9.93    0.34 
   6  -3  -5   13.22    0.37 
  -6   3   5   12.61    0.36 
  -6   3   5   13.19    0.37 
   5  -3  -5   40.07    0.71 
   5  -3  -5   40.95    0.58 
  -5   3   5   38.21    0.67 
  -5   3   5   38.60    0.68 
   4  -3  -5    1.56    0.11 
   4  -3  -5    1.61    0.09 
  -4   3   5    1.59    0.11 
  -4   3   5    1.63    0.11 
   3  -3  -5   18.89    0.39 
   3  -3  -5   19.34    0.35 
  -3   3   5   17.57    0.38 
  -3   3   5   18.78    0.37 
   2  -3  -5   13.02    0.29 
   2  -3  -5   13.03    0.28 
  -2   3   5   12.31    0.19 
  -2   3   5   12.14    0.29 
  -2   3   5   12.43    0.27 
   1  -3  -5    1.62    0.09 
   1  -3  -5    1.57    0.07 
   1  -3  -5    1.51    0.09 
  -1   3   5    1.56    0.10 
  -1   3   5    1.55    0.09 
   0  -3  -5   27.03    0.42 
   0  -3  -5   26.96    0.48 
   0  -3  -5   28.09    0.43 
   0   3   5   25.82    0.43 
   0   3   5   25.71    0.47 
  -1  -3  -5    3.19    0.10 
  -1  -3  -5    3.39    0.13 
  -1  -3  -5    3.34    0.15 
   1   3   5    3.24    0.13 
   1   3   5    3.21    0.15 
  -2  -3  -5  177.40    2.18 
  -2  -3  -5  176.09    2.16 
   2   3   5  170.73    2.07 
   2   3   5  170.29    2.15 
  -3  -3  -5   97.67    1.34 
  -3  -3  -5   97.38    1.34 
   3   3   5   94.35    1.34 
   3   3   5   94.24    1.27 
  -4  -3  -5    2.15    0.14 
  -4  -3  -5    2.45    0.15 
   4   3   5    1.98    0.13 
   4   3   5    2.44    0.16 
  -5  -3  -5    9.34    0.32 
  -5  -3  -5    8.67    0.29 
   5   3   5    8.96    0.30 
   5   3   5    8.42    0.32 
  -6  -3  -5    2.65    0.19 
   6   3   5    2.47    0.19 
   6   3   5    2.48    0.18 
  -7  -3  -5    8.70    0.36 
   7   3   5    7.17    0.34 
  -8  -3  -5    2.95    0.23 
   8   3   5    2.96    0.24 
  10  -4  -5    8.74    0.39 
  10  -4  -5    8.77    0.37 
 -10   4   5    8.50    0.39 
   9  -4  -5    0.77    0.14 
   9  -4  -5    0.78    0.15 
  -9   4   5    0.76    0.14 
   8  -4  -5    1.77    0.17 
  -8   4   5    1.93    0.17 
  -8   4   5    2.06    0.17 
   7  -4  -5   19.66    0.50 
  -7   4   5   18.81    0.49 
  -7   4   5   19.05    0.49 
   6  -4  -5    2.04    0.15 
  -6   4   5    1.97    0.14 
  -6   4   5    2.16    0.15 
   5  -4  -5   88.66    1.29 
  -5   4   5   91.20    1.29 
  -5   4   5   89.82    1.31 
   4  -4  -5   24.72    0.50 
   4  -4  -5   24.25    0.42 
  -4   4   5   24.08    0.49 
  -4   4   5   23.75    0.47 
   3  -4  -5   17.27    0.34 
   3  -4  -5   17.67    0.39 
  -3   4   5   16.99    0.36 
  -3   4   5   17.35    0.39 
  -3   4   5   16.65    0.26 
   2  -4  -5   56.78    0.84 
   2  -4  -5   58.10    0.83 
  -2   4   5   57.11    0.81 
  -2   4   5   56.52    0.72 
  -2   4   5   56.88    0.87 
   1  -4  -5   19.76    0.40 
   1  -4  -5   19.74    0.38 
   1  -4  -5   19.95    0.33 
  -1   4   5   18.50    0.40 
  -1   4   5   18.60    0.35 
   0  -4  -5   74.59    1.06 
   0  -4  -5   74.87    0.98 
   0  -4  -5   75.94    0.98 
   0   4   5   72.25    1.04 
   0   4   5   71.15    0.95 
  -1  -4  -5    8.99    0.26 
  -1  -4  -5    9.62    0.24 
  -1  -4  -5    8.80    0.19 
   1   4   5    9.02    0.23 
   1   4   5    8.66    0.27 
  -2  -4  -5  159.42    1.98 
  -2  -4  -5  155.92    2.01 
   2   4   5  151.83    2.00 
   2   4   5  154.71    1.89 
  -3  -4  -5   22.81    0.49 
  -3  -4  -5   23.24    0.49 
   3   4   5   22.67    0.44 
   3   4   5   21.70    0.51 
  -4  -4  -5    6.04    0.24 
  -4  -4  -5    6.28    0.25 
   4   4   5    5.78    0.26 
   4   4   5    6.23    0.23 
  -5  -4  -5   12.33    0.39 
  -5  -4  -5   12.79    0.37 
   5   4   5   11.68    0.39 
  -6  -4  -5    4.64    0.25 
  -6  -4  -5    4.90    0.24 
   6   4   5    5.04    0.28 
  -7  -4  -5    4.86    0.28 
   7   4   5    4.69    0.28 
  10  -5  -5    3.00    0.23 
  10  -5  -5    2.87    0.24 
 -10   5   5    2.99    0.25 
   9  -5  -5    1.21    0.18 
   9  -5  -5    1.05    0.15 
  -9   5   5    1.18    0.15 
   8  -5  -5    0.31    0.10 
  -8   5   5    0.33    0.10 
  -8   5   5    0.58    0.12 
   7  -5  -5   20.94    0.54 
  -7   5   5   22.56    0.54 
  -7   5   5   23.31    0.57 
   6  -5  -5    2.18    0.16 
  -6   5   5    2.21    0.16 
  -6   5   5    2.12    0.16 
   5  -5  -5   12.30    0.37 
  -5   5   5   13.05    0.35 
  -5   5   5   12.77    0.37 
   4  -5  -5    4.15    0.20 
   4  -5  -5    3.99    0.15 
  -4   5   5    4.15    0.18 
  -4   5   5    4.30    0.20 
   3  -5  -5    1.82    0.11 
   3  -5  -5    1.82    0.13 
  -3   5   5    2.03    0.14 
  -3   5   5    1.78    0.11 
   2  -5  -5   58.80    0.88 
   2  -5  -5   58.82    0.86 
  -2   5   5   58.11    0.92 
  -2   5   5   58.72    0.77 
  -2   5   5   58.53    0.83 
   1  -5  -5    0.64    0.07 
   1  -5  -5    0.55    0.07 
  -1   5   5    0.44    0.08 
  -1   5   5    0.56    0.06 
  -1   5   5    0.48    0.06 
   0  -5  -5   44.37    0.66 
   0  -5  -5   45.97    0.74 
   0  -5  -5   44.91    0.67 
   0   5   5   44.81    0.76 
   0   5   5   44.15    0.64 
  -1  -5  -5   26.90    0.49 
   1   5   5   26.15    0.44 
   1   5   5   26.84    0.56 
  -2  -5  -5   13.89    0.37 
  -2  -5  -5   14.44    0.36 
   2   5   5   14.83    0.41 
  -3  -5  -5    8.78    0.29 
  -3  -5  -5    8.37    0.29 
   3   5   5    7.83    0.30 
  -4  -5  -5    3.67    0.20 
  -4  -5  -5    3.83    0.20 
   4   5   5    3.45    0.21 
  -5  -5  -5   19.78    0.51 
  -5  -5  -5   19.91    0.50 
   5   5   5   18.77    0.53 
  -6  -5  -5    0.58    0.11 
  -6  -5  -5    0.33    0.11 
   6   5   5    0.64    0.14 
  -7  -5  -5    2.05    0.20 
   7   5   5    1.73    0.20 
   9  -6  -5    2.50    0.21 
   9  -6  -5    2.22    0.21 
  -9   6   5    2.08    0.20 
   8  -6  -5    3.14    0.22 
  -8   6   5    3.33    0.22 
  -8   6   5    3.05    0.22 
   7  -6  -5   23.30    0.59 
  -7   6   5   23.10    0.55 
  -7   6   5   22.12    0.58 
   6  -6  -5    1.00    0.13 
  -6   6   5    0.74    0.12 
  -6   6   5    1.18    0.12 
   5  -6  -5    3.77    0.21 
  -5   6   5    4.10    0.19 
  -5   6   5    3.72    0.21 
   4  -6  -5    0.29    0.08 
   4  -6  -5    0.45    0.07 
  -4   6   5    0.22    0.08 
  -4   6   5    0.44    0.08 
   3  -6  -5   12.14    0.34 
   3  -6  -5   11.94    0.30 
  -3   6   5   11.87    0.35 
  -3   6   5   12.12    0.29 
   2  -6  -5   59.91    0.91 
   2  -6  -5   59.97    0.92 
  -2   6   5   60.40    0.82 
  -2   6   5   58.41    0.84 
  -2   6   5   58.54    0.97 
   1  -6  -5    3.82    0.18 
   1  -6  -5    3.85    0.17 
  -1   6   5    3.72    0.15 
  -1   6   5    3.80    0.19 
   0  -6  -5   23.54    0.44 
   0  -6  -5   22.91    0.49 
   0  -6  -5   23.01    0.43 
   0   6   5   25.27    0.55 
  -1  -6  -5    5.38    0.20 
  -1  -6  -5    5.09    0.22 
   1   6   5    5.06    0.23 
  -2  -6  -5    0.53    0.10 
  -2  -6  -5    0.38    0.09 
   2   6   5    0.47    0.09 
  -3  -6  -5   37.19    0.71 
  -3  -6  -5   35.76    0.72 
   3   6   5   33.65    0.72 
  -4  -6  -5    2.99    0.19 
  -4  -6  -5    3.16    0.20 
   4   6   5    3.39    0.23 
  -5  -6  -5   28.79    0.67 
  -5  -6  -5   29.17    0.67 
   5   6   5   26.27    0.67 
  -6  -6  -5    0.63    0.13 
  -6  -6  -5    0.69    0.14 
   6   6   5    0.62    0.15 
   9  -7  -5    0.51    0.13 
   9  -7  -5    0.39    0.13 
  -9   7   5    0.54    0.14 
   8  -7  -5    2.22    0.19 
   8  -7  -5    1.88    0.19 
  -8   7   5    2.09    0.19 
   7  -7  -5    5.60    0.29 
  -7   7   5    5.89    0.27 
  -7   7   5    5.67    0.29 
   6  -7  -5   46.76    0.91 
  -6   7   5   46.75    0.83 
  -6   7   5   46.41    0.90 
   5  -7  -5   13.99    0.43 
  -5   7   5   13.93    0.43 
  -5   7   5   14.64    0.37 
   4  -7  -5   16.69    0.38 
   4  -7  -5   16.80    0.45 
  -4   7   5   16.36    0.38 
  -4   7   5   16.04    0.45 
   3  -7  -5    3.07    0.18 
   3  -7  -5    3.32    0.16 
  -3   7   5    2.93    0.18 
   2  -7  -5   51.64    0.85 
   2  -7  -5   50.05    0.83 
  -2   7   5   49.78    0.89 
  -2   7   5   50.79    0.77 
   1  -7  -5    2.19    0.15 
   1  -7  -5    1.87    0.13 
  -1   7   5    2.21    0.16 
  -1   7   5    1.86    0.12 
   0  -7  -5   22.72    0.45 
   0  -7  -5   23.00    0.52 
   0   7   5   23.84    0.48 
   0   7   5   22.22    0.55 
  -1  -7  -5   24.45    0.50 
  -1  -7  -5   23.87    0.55 
   1   7   5   23.19    0.56 
  -2  -7  -5    2.74    0.17 
  -2  -7  -5    2.98    0.19 
   2   7   5    3.28    0.21 
  -3  -7  -5   12.39    0.39 
  -3  -7  -5   12.38    0.40 
   3   7   5   12.31    0.42 
  -4  -7  -5    0.26    0.09 
  -4  -7  -5    0.50    0.12 
   4   7   5    0.22    0.09 
  -5  -7  -5    4.38    0.26 
  -5  -7  -5    3.86    0.24 
   5   7   5    3.58    0.26 
  -6  -7  -5    3.78    0.25 
  -6  -7  -5    3.68    0.25 
   6   7   5    3.90    0.28 
   8  -8  -5    2.74    0.21 
   8  -8  -5    2.59    0.22 
  -8   8   5    2.61    0.22 
   7  -8  -5    6.03    0.31 
   7  -8  -5    5.98    0.30 
  -7   8   5    6.04    0.31 
   6  -8  -5    4.31    0.25 
  -6   8   5    4.67    0.26 
   5  -8  -5    4.30    0.25 
  -5   8   5    4.56    0.25 
   4  -8  -5    2.10    0.17 
  -4   8   5    2.08    0.17 
   3  -8  -5    2.53    0.17 
   3  -8  -5    2.70    0.16 
  -3   8   5    2.91    0.19 
   2  -8  -5    5.66    0.24 
   2  -8  -5    5.71    0.24 
  -2   8   5    4.78    0.25 
   1  -8  -5    0.64    0.11 
   1  -8  -5    0.67    0.11 
  -1   8   5    0.61    0.09 
  -1   8   5    0.53    0.10 
   0  -8  -5    7.42    0.29 
   0   8   5    6.82    0.30 
   0   8   5    6.97    0.25 
  -1  -8  -5    0.85    0.14 
   1   8   5    0.67    0.11 
   1   8   5    0.85    0.15 
  -2  -8  -5    2.29    0.18 
  -2  -8  -5    2.01    0.16 
   2   8   5    2.21    0.19 
  -3  -8  -5   10.13    0.38 
  -3  -8  -5   10.06    0.36 
   3   8   5    9.28    0.39 
  -4  -8  -5    1.30    0.16 
  -4  -8  -5    1.82    0.18 
   4   8   5    1.41    0.18 
  -5  -8  -5    2.58    0.22 
  -5  -8  -5    3.09    0.24 
   5   8   5    1.84    0.20 
   8  -9  -5    4.87    0.35 
  -8   9   5    4.96    0.34 
   7  -9  -5    4.45    0.28 
  -7   9   5    4.88    0.29 
   6  -9  -5    0.64    0.13 
  -6   9   5    0.77    0.14 
   5  -9  -5    0.39    0.10 
  -5   9   5    0.42    0.11 
   4  -9  -5    2.72    0.20 
  -4   9   5    2.99    0.21 
   3  -9  -5    4.71    0.25 
   3  -9  -5    5.26    0.23 
  -3   9   5    4.28    0.25 
   2  -9  -5    2.57    0.17 
   2  -9  -5    2.42    0.18 
  -2   9   5    2.90    0.21 
   1  -9  -5    4.15    0.21 
   1  -9  -5    3.86    0.22 
  -1   9   5    3.91    0.24 
   0  -9  -5    0.23    0.09 
   0   9   5    0.32    0.10 
   0   9   5    0.27    0.08 
  -1  -9  -5    6.29    0.30 
   1   9   5    6.07    0.31 
   1   9   5    6.23    0.27 
  -2  -9  -5    0.91    0.16 
   2   9   5    0.65    0.15 
   2   9   5    0.68    0.13 
  -3  -9  -5   27.79    0.71 
  -3  -9  -5   29.10    0.69 
   3   9   5   28.66    0.74 
  -4  -9  -5    5.92    0.30 
  -4  -9  -5    5.61    0.31 
   4   9   5    4.79    0.31 
   7 -10  -5   18.07    0.67 
  -7  10   5   20.88    0.63 
   6 -10  -5    0.03    0.07 
  -6  10   5    0.13    0.09 
   5 -10  -5   20.67    0.59 
  -5  10   5   20.85    0.60 
   4 -10  -5   11.72    0.43 
  -4  10   5   11.33    0.43 
   3 -10  -5   16.36    0.48 
   3 -10  -5   17.26    0.51 
  -3  10   5   17.29    0.53 
   2 -10  -5   12.86    0.41 
   2 -10  -5   12.38    0.41 
  -2  10   5   13.11    0.46 
   1 -10  -5   18.14    0.51 
  -1  10   5   17.35    0.53 
   0 -10  -5   15.17    0.48 
   0  10   5   14.40    0.50 
  -1 -10  -5    1.07    0.16 
   1  10   5    1.46    0.15 
   1  10   5    1.30    0.17 
  -2 -10  -5   11.00    0.43 
   2  10   5   10.96    0.45 
   2  10   5   10.90    0.40 
  -3 -10  -5    6.90    0.36 
   3  10   5    7.65    0.39 
   3  10   5    7.74    0.35 
   5 -11  -5    2.67    0.23 
  -5  11   5    2.51    0.23 
   4 -11  -5   10.96    0.43 
  -4  11   5   10.33    0.42 
   3 -11  -5    1.42    0.17 
  -3  11   5    1.21    0.17 
   2 -11  -5   15.80    0.48 
  -2  11   5   15.83    0.53 
   1 -11  -5    0.16    0.09 
  -1  11   5    0.13    0.10 
   0 -11  -5   23.60    0.64 
   0  11   5   23.27    0.68 
  -1 -11  -5   11.42    0.45 
   1  11   5   11.10    0.46 
   0  13  -6    0.26    0.10 
   0 -13   6    0.15    0.10 
   0 -13   6    0.44    0.13 
  -1  13  -6   18.56    0.57 
   1 -13   6   17.45    0.58 
  -2  13  -6    1.85    0.20 
   2 -13   6    2.14    0.27 
   3  12  -6   12.40    0.46 
  -3 -12   6   11.93    0.47 
  -3 -12   6   12.58    0.46 
   2  12  -6    2.52    0.22 
  -2 -12   6    2.14    0.21 
  -2 -12   6    2.37    0.21 
   1  12  -6   13.60    0.47 
  -1 -12   6   13.21    0.47 
  -1 -12   6   13.98    0.49 
   0  12  -6    1.15    0.16 
   0 -12   6    1.11    0.18 
   0 -12   6    1.00    0.17 
  -1  12  -6    4.10    0.25 
   1 -12   6    4.08    0.25 
   1 -12   6    3.67    0.26 
  -2  12  -6    0.02    0.07 
   2 -12   6    0.06    0.08 
  -3  12  -6    3.70    0.25 
   3 -12   6    3.45    0.26 
  -4  12  -6    0.82    0.17 
   4 -12   6    0.78    0.17 
   4  11  -6    2.64    0.22 
  -4 -11   6    2.55    0.22 
  -4 -11   6    2.98    0.22 
   3  11  -6   11.08    0.41 
  -3 -11   6   10.24    0.40 
  -3 -11   6   10.51    0.42 
   2  11  -6    2.78    0.21 
  -2 -11   6    2.68    0.21 
  -2 -11   6    2.45    0.20 
   1  11  -6    0.59    0.13 
  -1 -11   6    0.55    0.12 
  -1 -11   6    0.49    0.12 
   0  11  -6   14.64    0.46 
   0 -11   6   15.18    0.50 
   0 -11   6   15.84    0.47 
  -1  11  -6    2.04    0.18 
   1 -11   6    2.34    0.18 
   1 -11   6    1.82    0.18 
  -2  11  -6    6.38    0.30 
   2 -11   6    6.82    0.33 
  -3  11  -6    1.42    0.16 
   3 -11   6    1.52    0.18 
  -4  11  -6    0.71    0.14 
   4 -11   6    0.56    0.13 
  -5  11  -6    0.63    0.14 
   5 -11   6    0.94    0.18 
   6  10  -6    3.07    0.23 
  -6 -10   6    3.36    0.26 
   5  10  -6   12.89    0.45 
  -5 -10   6   13.99    0.49 
   4  10  -6    1.60    0.16 
  -4 -10   6    1.81    0.17 
  -4 -10   6    1.41    0.17 
   3  10  -6    6.17    0.29 
  -3 -10   6    6.00    0.30 
  -3 -10   6    5.65    0.28 
   2  10  -6    7.94    0.33 
  -2 -10   6    7.90    0.33 
  -2 -10   6    7.94    0.34 
   1  10  -6    2.96    0.20 
  -1 -10   6    2.46    0.19 
  -1 -10   6    2.82    0.20 
   0  10  -6   25.02    0.59 
   0 -10   6   27.68    0.62 
   0 -10   6   27.05    0.65 
  -1  10  -6    3.24    0.21 
   1 -10   6    3.80    0.23 
   1 -10   6    3.61    0.20 
  -2  10  -6   11.29    0.38 
   2 -10   6   11.24    0.40 
   2 -10   6   11.07    0.37 
  -3  10  -6    5.29    0.27 
   3 -10   6    4.72    0.26 
  -4  10  -6    2.49    0.20 
   4 -10   6    2.39    0.20 
  -5  10  -6    3.22    0.23 
   5 -10   6    3.38    0.24 
  -6  10  -6    0.84    0.16 
   6 -10   6    1.03    0.17 
   6   9  -6   19.74    0.55 
  -6  -9   6   21.96    0.62 
   5   9  -6    2.98    0.21 
  -5  -9   6    2.91    0.21 
  -5  -9   6    2.93    0.22 
   4   9  -6    2.02    0.17 
  -4  -9   6    1.95    0.17 
  -4  -9   6    1.92    0.18 
   3   9  -6    2.83    0.19 
  -3  -9   6    3.14    0.20 
  -3  -9   6    2.78    0.20 
   2   9  -6    5.21    0.25 
  -2  -9   6    5.88    0.27 
  -2  -9   6    5.53    0.27 
   1   9  -6    6.54    0.27 
  -1  -9   6    6.52    0.28 
  -1  -9   6    7.07    0.29 
   0   9  -6    4.25    0.22 
   0  -9   6    4.17    0.21 
   0  -9   6    3.96    0.22 
  -1   9  -6    5.36    0.24 
   1  -9   6    5.37    0.23 
   1  -9   6    5.31    0.26 
  -2   9  -6    7.05    0.29 
   2  -9   6    7.08    0.30 
   2  -9   6    7.15    0.25 
  -3   9  -6   39.54    0.78 
   3  -9   6   38.29    0.78 
  -4   9  -6    1.30    0.14 
   4  -9   6    1.35    0.15 
  -5   9  -6    6.64    0.30 
   5  -9   6    5.65    0.29 
   5  -9   6    6.13    0.30 
  -6   9  -6    1.69    0.17 
   6  -9   6    1.60    0.17 
   6  -9   6    1.60    0.17 
  -7   9  -6    5.32    0.30 
   7  -9   6    4.64    0.28 
   7   8  -6    1.64    0.17 
  -7  -8   6    1.90    0.20 
   6   8  -6   19.18    0.52 
  -6  -8   6   19.96    0.56 
   5   8  -6    0.65    0.12 
  -5  -8   6    0.52    0.11 
  -5  -8   6    0.63    0.12 
   4   8  -6    1.72    0.15 
  -4  -8   6    1.58    0.15 
  -4  -8   6    1.69    0.15 
   3   8  -6   17.02    0.44 
  -3  -8   6   17.53    0.47 
  -3  -8   6   16.83    0.47 
   2   8  -6    8.96    0.30 
  -2  -8   6    9.29    0.33 
  -2  -8   6    9.71    0.33 
   1   8  -6    7.63    0.28 
  -1  -8   6    7.51    0.28 
  -1  -8   6    7.26    0.28 
   0   8  -6    4.15    0.20 
  -1   8  -6    0.40    0.08 
   1  -8   6    0.40    0.09 
   1  -8   6    0.35    0.08 
  -2   8  -6   25.30    0.56 
  -2   8  -6   26.19    0.50 
   2  -8   6   24.02    0.56 
   2  -8   6   25.30    0.49 
  -3   8  -6   25.35    0.57 
   3  -8   6   24.69    0.51 
   3  -8   6   24.19    0.56 
  -4   8  -6    3.58    0.21 
   4  -8   6    3.29    0.20 
   4  -8   6    3.97    0.20 
  -5   8  -6    5.19    0.26 
   5  -8   6    5.20    0.26 
   5  -8   6    4.88    0.25 
  -6   8  -6    1.32    0.15 
   6  -8   6    1.67    0.16 
   6  -8   6    1.38    0.16 
  -7   8  -6    9.18    0.38 
   7  -8   6    8.48    0.37 
   8   7  -6    7.82    0.34 
   7   7  -6    0.29    0.09 
  -7  -7   6    0.07    0.08 
   6   7  -6   16.36    0.45 
  -6  -7   6   18.11    0.48 
  -6  -7   6   18.11    0.51 
   5   7  -6    6.30    0.26 
  -5  -7   6    6.47    0.29 
  -5  -7   6    7.28    0.29 
   4   7  -6   37.31    0.69 
  -4  -7   6   40.65    0.76 
  -4  -7   6   39.75    0.78 
  -3  -7   6   80.82    1.23 
  -3  -7   6   81.64    1.25 
   2   7  -6    3.70    0.18 
  -2  -7   6    4.30    0.21 
  -2  -7   6    4.17    0.20 
   1   7  -6    9.23    0.29 
  -1  -7   6    8.94    0.29 
  -1  -7   6    8.98    0.30 
   0   7  -6    9.82    0.29 
   0  -7   6    9.35    0.28 
   0  -7   6    9.22    0.23 
   0  -7   6    9.28    0.30 
  -1   7  -6    0.87    0.10 
   1  -7   6    0.76    0.09 
   1  -7   6    0.85    0.10 
   1  -7   6    0.99    0.08 
  -2   7  -6   16.11    0.40 
  -2   7  -6   15.47    0.35 
   2  -7   6   15.26    0.40 
   2  -7   6   15.37    0.36 
  -3   7  -6    2.56    0.16 
   3  -7   6    2.84    0.16 
   3  -7   6    2.69    0.17 
  -4   7  -6    4.06    0.21 
   4  -7   6    4.34    0.22 
   4  -7   6    4.20    0.21 
  -5   7  -6   11.59    0.38 
   5  -7   6   11.21    0.36 
   5  -7   6   11.02    0.37 
  -6   7  -6    3.10    0.21 
   6  -7   6    2.60    0.20 
  -7   7  -6   14.63    0.47 
   7  -7   6   14.02    0.47 
  -8   7  -6    6.40    0.32 
   8  -7   6    5.95    0.32 
   7   6  -6    1.30    0.14 
  -7  -6   6    2.00    0.17 
   6   6  -6   26.69    0.58 
  -6  -6   6   27.52    0.61 
  -6  -6   6   26.82    0.60 
   5   6  -6    0.03    0.04 
  -5  -6   6    0.26    0.08 
  -5  -6   6    0.21    0.08 
   4   6  -6  108.17    1.47 
  -4  -6   6  113.17    1.57 
  -4  -6   6  109.88    1.57 
   3   6  -6   64.14    0.96 
  -3  -6   6   63.56    0.87 
  -3  -6   6   63.13    1.00 
  -3  -6   6   62.20    1.00 
   2   6  -6    0.85    0.09 
  -2  -6   6    1.26    0.08 
  -2  -6   6    1.08    0.11 
  -2  -6   6    1.12    0.11 
   1   6  -6   36.33    0.62 
  -1  -6   6   36.41    0.56 
  -1  -6   6   35.79    0.66 
  -1  -6   6   35.98    0.63 
   0   6  -6    2.83    0.14 
   0  -6   6    2.95    0.13 
   0  -6   6    3.14    0.15 
   0  -6   6    3.08    0.16 
  -1   6  -6   31.92    0.58 
  -1   6  -6   31.47    0.54 
   1  -6   6   31.54    0.59 
   1  -6   6   30.88    0.53 
  -2   6  -6   64.50    0.91 
  -2   6  -6   64.03    0.98 
   2  -6   6   61.67    0.92 
   2  -6   6   63.00    0.96 
  -3   6  -6   30.95    0.60 
  -3   6  -6   30.93    0.51 
   3  -6   6   29.95    0.58 
   3  -6   6   30.47    0.58 
  -4   6  -6   22.51    0.52 
  -4   6  -6   22.63    0.44 
   4  -6   6   22.15    0.51 
   4  -6   6   22.66    0.49 
  -5   6  -6    4.17    0.19 
  -5   6  -6    4.99    0.24 
   5  -6   6    4.52    0.23 
   5  -6   6    4.64    0.21 
  -6   6  -6   23.52    0.58 
  -6   6  -6   23.76    0.54 
   6  -6   6   21.36    0.56 
  -7   6  -6    3.52    0.21 
  -7   6  -6    3.47    0.23 
   7  -6   6    3.07    0.22 
  -8   6  -6   11.65    0.43 
   8  -6   6   11.73    0.45 
  -7  -5   6    1.04    0.13 
  -7  -5   6    1.09    0.12 
  -7  -5   6    0.95    0.12 
   6   5  -6   30.68    0.60 
  -6  -5   6   31.45    0.64 
  -6  -5   6   31.81    0.60 
  -6  -5   6   32.26    0.65 
   5   5  -6    3.98    0.18 
  -5  -5   6    3.78    0.19 
  -5  -5   6    4.18    0.20 
  -5  -5   6    4.17    0.18 
   4   5  -6   14.92    0.35 
  -4  -5   6   15.43    0.39 
  -4  -5   6   15.42    0.39 
  -4  -5   6   15.51    0.34 
   3   5  -6   71.14    1.01 
  -3  -5   6   69.43    1.04 
  -3  -5   6   69.93    1.03 
  -3  -5   6   68.79    0.95 
   2   5  -6   52.05    0.78 
  -2  -5   6   51.75    0.83 
  -2  -5   6   52.43    0.82 
  -2  -5   6   53.33    0.76 
   1   5  -6  125.42    1.59 
  -1  -5   6  123.84    1.53 
  -1  -5   6  123.11    1.59 
  -1  -5   6  121.23    1.61 
   0   5  -6   49.69    0.74 
   0   5  -6   47.97    0.74 
   0  -5   6   46.54    0.75 
   0  -5   6   46.32    0.69 
  -1   5  -6   15.32    0.35 
  -1   5  -6   15.72    0.33 
   1  -5   6   14.28    0.34 
   1  -5   6   15.10    0.33 
  -2   5  -6   66.11    0.92 
  -2   5  -6   66.42    0.85 
  -2   5  -6   65.92    0.98 
   2  -5   6   62.62    0.92 
   2  -5   6   61.98    0.92 
  -3   5  -6    3.38    0.17 
  -3   5  -6    3.71    0.14 
  -3   5  -6    4.02    0.15 
   3  -5   6    3.70    0.18 
   3  -5   6    3.46    0.16 
  -4   5  -6  107.02    1.52 
  -4   5  -6  110.46    1.43 
   4  -5   6  101.74    1.46 
   4  -5   6  103.45    1.40 
  -5   5  -6    1.44    0.13 
  -5   5  -6    1.39    0.12 
   5  -5   6    1.40    0.12 
   5  -5   6    1.51    0.14 
  -6   5  -6   74.90    1.23 
  -6   5  -6   77.78    1.18 
   6  -5   6   70.56    1.19 
  -7   5  -6    4.77    0.24 
  -7   5  -6    4.91    0.26 
   7  -5   6    4.48    0.27 
  -8   5  -6   29.52    0.69 
  -8   5  -6   28.86    0.71 
   8  -5   6   26.39    0.70 
  -8  -4   6   24.98    0.57 
  -8  -4   6   23.82    0.56 
  -7  -4   6    1.06    0.11 
  -7  -4   6    1.11    0.11 
  -7  -4   6    0.87    0.11 
  -7  -4   6    1.26    0.12 
  -7  -4   6    1.14    0.12 
  -6  -4   6    4.43    0.18 
  -6  -4   6    4.69    0.22 
  -6  -4   6    4.96    0.19 
  -6  -4   6    4.83    0.21 
  -6  -4   6    4.50    0.21 
   5   4  -6   11.01    0.29 
  -5  -4   6   11.40    0.27 
  -5  -4   6   10.75    0.31 
  -5  -4   6   11.39    0.33 
  -5  -4   6   11.27    0.30 
   4   4  -6    3.15    0.14 
  -4  -4   6    3.31    0.12 
  -4  -4   6    2.94    0.15 
  -4  -4   6    3.55    0.15 
  -4  -4   6    3.65    0.17 
   3   4  -6   82.27    1.09 
  -3  -4   6   80.57    1.14 
  -3  -4   6   80.93    1.10 
  -3  -4   6   82.79    1.16 
   2   4  -6    3.70    0.14 
  -2  -4   6    3.90    0.16 
  -2  -4   6    4.24    0.18 
  -2  -4   6    4.12    0.15 
   1   4  -6   70.78    0.99 
   1   4  -6   72.17    0.96 
  -1  -4   6   71.22    1.02 
  -1  -4   6   71.73    0.96 
  -1   4  -6   11.26    0.26 
  -1   4  -6   11.10    0.27 
   1  -4   6   10.40    0.27 
   1  -4   6   10.37    0.26 
  -2   4  -6   13.17    0.28 
  -2   4  -6   12.65    0.31 
  -2   4  -6   12.34    0.24 
   2  -4   6   11.89    0.30 
   2  -4   6   12.23    0.29 
  -3   4  -6   58.71    0.82 
  -3   4  -6   60.17    0.82 
  -3   4  -6   58.41    0.90 
   3  -4   6   55.52    0.82 
   3  -4   6   55.12    0.88 
  -4   4  -6   22.76    0.50 
  -4   4  -6   23.29    0.45 
   4  -4   6   22.53    0.44 
   4  -4   6   22.38    0.51 
  -5   4  -6    5.52    0.24 
  -5   4  -6    6.23    0.23 
   5  -4   6    5.54    0.25 
  -6   4  -6   10.56    0.33 
  -6   4  -6   10.61    0.36 
   6  -4   6   10.32    0.37 
  -7   4  -6   28.13    0.63 
  -7   4  -6   27.68    0.66 
   7  -4   6   25.89    0.66 
  -8   4  -6    6.18    0.31 
  -8   4  -6    5.91    0.30 
   8  -4   6    5.11    0.30 
   9   3  -6    4.36    0.26 
  -9  -3   6    4.59    0.25 
   8   3  -6   16.15    0.44 
  -8  -3   6   16.55    0.46 
  -8  -3   6   16.85    0.45 
   7   3  -6    4.80    0.20 
  -7  -3   6    5.04    0.23 
  -7  -3   6    5.09    0.22 
  -7  -3   6    5.24    0.23 
  -6  -3   6    2.05    0.14 
  -6  -3   6    2.15    0.12 
  -6  -3   6    1.94    0.14 
  -6  -3   6    2.08    0.14 
  -6  -3   6    2.00    0.13 
  -5  -3   6    2.34    0.14 
  -5  -3   6    2.53    0.12 
  -5  -3   6    2.40    0.15 
  -5  -3   6    2.28    0.13 
  -5  -3   6    2.22    0.12 
   4   3  -6    7.04    0.19 
  -4  -3   6    6.76    0.22 
  -4  -3   6    6.79    0.18 
  -4  -3   6    6.90    0.22 
  -4  -3   6    7.01    0.24 
   3   3  -6   11.73    0.25 
   3   3  -6   11.10    0.28 
  -3  -3   6   11.64    0.28 
  -3  -3   6   11.33    0.30 
  -3  -3   6   11.36    0.21 
   2   3  -6    5.97    0.16 
   2   3  -6    5.88    0.19 
  -2  -3   6    6.11    0.19 
  -2  -3   6    6.38    0.21 
   1   3  -6    0.96    0.07 
   1   3  -6    1.17    0.08 
  -1  -3   6    0.87    0.07 
  -1  -3   6    0.98    0.08 
   0   3  -6    6.26    0.19 
   0   3  -6    6.42    0.18 
   0  -3   6    5.96    0.19 
   0  -3   6    6.00    0.18 
  -1   3  -6   23.81    0.43 
  -1   3  -6   24.40    0.42 
   1  -3   6   22.69    0.32 
   1  -3   6   22.60    0.43 
   1  -3   6   22.24    0.41 
  -2   3  -6   15.96    0.28 
  -2   3  -6   15.95    0.32 
  -2   3  -6   15.61    0.34 
   2  -3   6   14.86    0.31 
   2  -3   6   14.92    0.35 
  -3   3  -6   25.29    0.49 
  -3   3  -6   25.65    0.44 
  -3   3  -6   25.79    0.43 
   3  -3   6   24.41    0.50 
   3  -3   6   24.32    0.42 
  -4   3  -6    5.24    0.21 
  -4   3  -6    5.33    0.19 
  -4   3  -6    5.22    0.16 
   4  -3   6    4.99    0.17 
   4  -3   6    5.05    0.22 
  -5   3  -6    1.05    0.11 
  -5   3  -6    1.11    0.11 
   5  -3   6    1.00    0.12 
  -6   3  -6    2.73    0.18 
  -6   3  -6    2.80    0.17 
   6  -3   6    2.68    0.19 
  -7   3  -6    3.95    0.24 
  -7   3  -6    4.67    0.24 
   7  -3   6    4.05    0.25 
  -8   3  -6   21.68    0.57 
  -8   3  -6   20.35    0.58 
   8  -3   6   20.86    0.61 
  10   2  -6    7.14    0.35 
 -10  -2   6    7.37    0.34 
  -9  -2   6    1.89    0.18 
  -9  -2   6    2.45    0.19 
   8   2  -6   16.12    0.44 
  -8  -2   6   16.68    0.46 
  -8  -2   6   15.98    0.44 
   7   2  -6    1.17    0.12 
  -7  -2   6    1.42    0.13 
  -7  -2   6    1.31    0.12 
   6   2  -6   36.06    0.62 
  -6  -2   6   36.34    0.68 
  -6  -2   6   36.44    0.68 
  -6  -2   6   36.70    0.64 
  -6  -2   6   37.68    0.59 
   5   2  -6   15.37    0.34 
  -5  -2   6   14.41    0.37 
  -5  -2   6   15.73    0.34 
  -5  -2   6   15.41    0.30 
  -5  -2   6   15.86    0.38 
   4   2  -6   76.32    0.98 
   4   2  -6   78.46    1.06 
  -4  -2   6   76.70    1.11 
  -4  -2   6   77.81    1.01 
  -4  -2   6   76.78    1.08 
   3   2  -6  110.67    1.32 
   3   2  -6  109.32    1.40 
  -3  -2   6  110.31    1.32 
  -3  -2   6  109.17    1.44 
  -3  -2   6  111.02    1.42 
   2   2  -6   50.97    0.74 
   2   2  -6   50.92    0.66 
  -2  -2   6   51.21    0.76 
  -2  -2   6   50.89    0.74 
  -2  -2   6   50.44    0.62 
   1   2  -6   45.43    0.62 
   1   2  -6   46.97    0.68 
  -1  -2   6   46.51    0.69 
  -1  -2   6   46.26    0.68 
   0   2  -6   21.74    0.36 
   0   2  -6   21.51    0.39 
   0  -2   6   22.63    0.42 
   0  -2   6   22.32    0.39 
   0  -2   6   22.15    0.30 
  -1   2  -6   13.00    0.28 
  -1   2  -6   12.77    0.27 
   1  -2   6   12.41    0.29 
   1  -2   6   11.97    0.25 
   1  -2   6   12.16    0.22 
  -2   2  -6   13.60    0.29 
  -2   2  -6   13.87    0.31 
   2  -2   6   12.40    0.31 
   2  -2   6   13.14    0.26 
  -3   2  -6    4.69    0.16 
  -3   2  -6    5.03    0.16 
  -3   2  -6    4.77    0.18 
   3  -2   6    4.61    0.14 
   3  -2   6    4.52    0.19 
  -4   2  -6    7.54    0.23 
  -4   2  -6    7.10    0.25 
  -4   2  -6    7.06    0.20 
   4  -2   6    7.07    0.26 
  -5   2  -6    0.02    0.05 
  -5   2  -6    0.11    0.05 
   5  -2   6    0.06    0.06 
  -6   2  -6    0.07    0.06 
  -6   2  -6    0.10    0.05 
   6  -2   6    0.10    0.07 
  -7   2  -6   16.56    0.47 
  -7   2  -6   16.61    0.49 
   7  -2   6   15.61    0.49 
  -8   2  -6   10.36    0.39 
  -8   2  -6   10.66    0.41 
   8  -2   6   10.00    0.41 
  10   1  -6    8.18    0.37 
 -10  -1   6    8.25    0.36 
   9   1  -6    8.76    0.35 
  -9  -1   6    9.36    0.36 
  -9  -1   6    9.24    0.36 
   8   1  -6    8.02    0.31 
  -8  -1   6    8.19    0.32 
  -8  -1   6    7.84    0.30 
   7   1  -6    8.81    0.30 
  -7  -1   6    9.83    0.33 
  -7  -1   6    9.67    0.31 
   6   1  -6    5.11    0.18 
   6   1  -6    5.15    0.22 
  -6  -1   6    4.95    0.20 
  -6  -1   6    5.32    0.22 
   5   1  -6   27.60    0.48 
  -5  -1   6   27.83    0.55 
  -5  -1   6   28.75    0.43 
  -5  -1   6   28.60    0.55 
  -5  -1   6   28.64    0.51 
   4   1  -6   12.75    0.22 
   4   1  -6   13.00    0.29 
  -4  -1   6   13.37    0.33 
  -4  -1   6   13.16    0.33 
  -4  -1   6   13.36    0.28 
   3   1  -6  209.26    2.35 
   3   1  -6  208.95    2.47 
  -3  -1   6  204.03    2.48 
  -3  -1   6  202.83    2.46 
  -3  -1   6  207.71    2.37 
   2   1  -6  115.15    1.32 
   2   1  -6  114.19    1.43 
  -2  -1   6  116.35    1.49 
  -2  -1   6  120.92    1.39 
  -2  -1   6  116.03    1.49 
   1   1  -6    0.79    0.07 
   1   1  -6    0.80    0.05 
  -1  -1   6    0.83    0.05 
  -1  -1   6    0.83    0.07 
  -1  -1   6    0.81    0.07 
   0   1  -6  254.80    2.92 
   0   1  -6  256.45    2.97 
   0  -1   6  257.19    2.95 
   0  -1   6  258.20    3.00 
   0  -1   6  253.11    2.95 
  -1   1  -6   33.74    0.53 
  -1   1  -6   33.92    0.52 
   1  -1   6   32.53    0.48 
   1  -1   6   32.68    0.48 
  -2   1  -6  152.97    1.86 
  -2   1  -6  152.17    1.87 
   2  -1   6  145.61    1.71 
   2  -1   6  146.99    1.85 
   2  -1   6  146.81    1.77 
  -3   1  -6    9.44    0.26 
  -3   1  -6    8.98    0.23 
   3  -1   6    8.50    0.27 
   3  -1   6    8.60    0.24 
  -4   1  -6   11.75    0.31 
  -4   1  -6   12.50    0.28 
  -4   1  -6   11.96    0.33 
   4  -1   6   11.75    0.34 
  -5   1  -6    7.72    0.26 
  -5   1  -6    6.93    0.27 
   5  -1   6    7.15    0.28 
  -6   1  -6    5.20    0.24 
  -6   1  -6    5.31    0.25 
   6  -1   6    5.21    0.26 
  -7   1  -6   30.41    0.68 
  -7   1  -6   30.13    0.70 
   7  -1   6   28.26    0.68 
  -8   1  -6    5.09    0.28 
   8  -1   6    4.36    0.28 
  10   0  -6   14.96    0.51 
 -10   0   6   14.35    0.49 
   9   0  -6    0.11    0.08 
  -9   0   6    0.15    0.09 
  -9   0   6    0.12    0.08 
   8   0  -6    7.98    0.31 
  -8   0   6    8.11    0.31 
  -8   0   6    8.64    0.33 
   7   0  -6    1.38    0.13 
  -7   0   6    1.25    0.13 
  -7   0   6    1.51    0.13 
   6   0  -6    7.77    0.21 
   6   0  -6    7.11    0.26 
  -6   0   6    7.71    0.27 
  -6   0   6    7.74    0.26 
   5   0  -6   27.66    0.54 
   5   0  -6   28.09    0.47 
  -5   0   6   27.99    0.55 
  -5   0   6   26.74    0.50 
   4   0  -6   14.86    0.31 
  -4   0   6   15.04    0.32 
  -4   0   6   14.69    0.35 
  -4   0   6   15.54    0.36 
   3   0  -6  102.73    1.30 
  -3   0   6  104.98    1.29 
  -3   0   6  101.81    1.36 
  -3   0   6  104.35    1.36 
   2   0  -6    9.39    0.23 
  -2   0   6    8.99    0.20 
  -2   0   6    9.18    0.23 
  -2   0   6    8.76    0.23 
   1   0  -6    0.43    0.05 
   1   0  -6    0.49    0.04 
  -1   0   6    0.49    0.06 
  -1   0   6    0.62    0.06 
  -1   0   6    0.50    0.05 
   0   0  -6   57.98    0.75 
   0   0  -6   58.88    0.81 
   0   0   6   57.94    0.77 
   0   0   6   56.80    0.77 
   0   0   6   58.80    0.83 
  -1   0  -6    0.91    0.07 
  -1   0  -6    1.05    0.07 
   1   0   6    0.92    0.07 
   1   0   6    1.11    0.09 
   1   0   6    0.89    0.06 
  -2   0  -6   59.55    0.84 
  -2   0  -6   58.62    0.84 
   2   0   6   56.19    0.69 
   2   0   6   55.82    0.81 
   2   0   6   56.46    0.84 
  -3   0  -6   27.88    0.49 
  -3   0  -6   28.73    0.52 
   3   0   6   27.51    0.53 
   3   0   6   27.50    0.51 
  -4   0  -6    2.80    0.14 
  -4   0  -6    2.88    0.16 
   4   0   6    3.08    0.16 
   4   0   6    3.48    0.18 
  -5   0  -6   11.56    0.29 
  -5   0  -6   11.08    0.34 
   5   0   6   11.68    0.35 
   5   0   6   11.49    0.36 
  -6   0  -6    2.71    0.18 
   6   0   6    2.34    0.18 
   6   0   6    2.25    0.17 
  -7   0  -6   16.63    0.49 
   7   0   6   16.37    0.50 
   7   0   6   16.65    0.49 
  -8   0  -6    3.88    0.25 
   8   0   6    4.12    0.27 
   8   0   6    4.22    0.28 
  10  -1  -6    8.12    0.38 
 -10   1   6    8.22    0.37 
   9  -1  -6    4.36    0.25 
  -9   1   6    4.18    0.25 
  -9   1   6    3.90    0.24 
   8  -1  -6    9.40    0.34 
  -8   1   6    9.20    0.35 
  -8   1   6    9.68    0.35 
   7  -1  -6    0.37    0.09 
  -7   1   6    0.23    0.07 
  -7   1   6    0.38    0.10 
   6  -1  -6   21.43    0.49 
  -6   1   6   22.39    0.48 
  -6   1   6   21.41    0.50 
   5  -1  -6   26.74    0.53 
   5  -1  -6   25.97    0.44 
  -5   1   6   26.26    0.53 
  -5   1   6   25.67    0.49 
   4  -1  -6    8.39    0.21 
   4  -1  -6    8.01    0.24 
  -4   1   6    8.74    0.24 
  -4   1   6    8.05    0.25 
   3  -1  -6   15.69    0.31 
   3  -1  -6   15.77    0.34 
  -3   1   6   15.83    0.32 
  -3   1   6   15.57    0.35 
   2  -1  -6   16.13    0.33 
   2  -1  -6   15.65    0.32 
  -2   1   6   18.17    0.36 
  -2   1   6   17.07    0.33 
   1  -1  -6   13.47    0.21 
   1  -1  -6   13.94    0.29 
  -1   1   6   13.13    0.29 
  -1   1   6   13.27    0.27 
   0  -1  -6    1.03    0.06 
   0  -1  -6    1.00    0.08 
   0   1   6    1.15    0.08 
   0   1   6    1.17    0.08 
  -1  -1  -6    7.13    0.15 
  -1  -1  -6    6.80    0.18 
  -1  -1  -6    7.24    0.21 
   1   1   6    6.98    0.20 
   1   1   6    7.76    0.22 
  -2  -1  -6   69.86    0.96 
  -2  -1  -6   66.85    0.95 
   2   1   6   67.71    0.96 
   2   1   6   66.36    0.97 
  -3  -1  -6  125.01    1.64 
  -3  -1  -6  126.85    1.62 
   3   1   6  118.67    1.57 
   3   1   6  117.92    1.57 
  -4  -1  -6    1.95    0.12 
  -4  -1  -6    2.04    0.14 
   4   1   6    1.93    0.14 
   4   1   6    1.75    0.13 
  -5  -1  -6   13.47    0.38 
  -5  -1  -6   13.84    0.34 
   5   1   6   12.95    0.38 
   5   1   6   13.50    0.39 
   6   1   6    1.27    0.14 
  -7  -1  -6   12.10    0.42 
   7   1   6   11.14    0.40 
   7   1   6   11.28    0.41 
  -8  -1  -6    4.57    0.28 
   8   1   6    4.32    0.27 
   8   1   6    3.84    0.26 
  10  -2  -6    7.74    0.37 
  10  -2  -6    6.88    0.33 
 -10   2   6    6.81    0.34 
   9  -2  -6    5.05    0.27 
  -9   2   6    4.90    0.27 
  -9   2   6    4.80    0.27 
   8  -2  -6    5.56    0.27 
  -8   2   6    5.13    0.25 
  -8   2   6    4.90    0.26 
   7  -2  -6    4.15    0.22 
  -7   2   6    4.48    0.23 
  -7   2   6    4.14    0.21 
   6  -2  -6    7.03    0.27 
  -6   2   6    6.74    0.26 
  -6   2   6    6.93    0.25 
   5  -2  -6   21.32    0.47 
   5  -2  -6   21.88    0.39 
  -5   2   6   21.11    0.47 
  -5   2   6   22.50    0.46 
   4  -2  -6   16.28    0.38 
   4  -2  -6   16.84    0.33 
  -4   2   6   16.52    0.38 
  -4   2   6   16.92    0.37 
   3  -2  -6   65.92    0.90 
   3  -2  -6   64.96    0.94 
  -3   2   6   64.38    0.91 
  -3   2   6   64.34    0.93 
   2  -2  -6    0.27    0.05 
   2  -2  -6    0.34    0.06 
  -2   2   6    0.23    0.05 
  -2   2   6    0.46    0.07 
   1  -2  -6    4.60    0.11 
   1  -2  -6    4.27    0.14 
   1  -2  -6    4.38    0.16 
  -1   2   6    4.15    0.16 
  -1   2   6    4.25    0.16 
   0  -2  -6    3.99    0.16 
   0  -2  -6    4.11    0.13 
   0  -2  -6    4.27    0.13 
   0   2   6    4.21    0.16 
   0   2   6    4.06    0.15 
  -1  -2  -6    2.71    0.09 
  -1  -2  -6    2.55    0.13 
  -1  -2  -6    2.56    0.11 
   1   2   6    2.54    0.13 
   1   2   6    2.38    0.12 
  -2  -2  -6  112.00    1.45 
  -2  -2  -6  108.40    1.42 
   2   2   6  108.67    1.45 
   2   2   6  107.33    1.42 
  -3  -2  -6    7.90    0.25 
  -3  -2  -6    7.67    0.25 
   3   2   6    7.38    0.26 
   3   2   6    7.60    0.25 
  -4  -2  -6    1.28    0.11 
  -4  -2  -6    1.23    0.12 
   4   2   6    1.20    0.12 
   4   2   6    1.37    0.12 
  -5  -2  -6    3.01    0.19 
  -5  -2  -6    3.02    0.17 
   5   2   6    2.61    0.17 
   5   2   6    2.89    0.19 
  -6  -2  -6    2.43    0.18 
   6   2   6    2.24    0.18 
   6   2   6    1.89    0.16 
  -7  -2  -6   17.29    0.52 
   7   2   6   14.92    0.49 
   7   2   6   15.98    0.49 
   8   2   6    1.49    0.18 
   8   2   6    1.66    0.19 
  10  -3  -6    9.84    0.40 
  10  -3  -6    9.60    0.41 
 -10   3   6    9.24    0.40 
   9  -3  -6    5.85    0.29 
  -9   3   6    5.27    0.28 
  -9   3   6    5.47    0.29 
   8  -3  -6    5.73    0.28 
  -8   3   6    5.69    0.27 
  -8   3   6    5.59    0.27 
   7  -3  -6    2.27    0.17 
  -7   3   6    2.52    0.17 
  -7   3   6    2.20    0.17 
   6  -3  -6    7.91    0.29 
  -6   3   6    7.50    0.28 
  -6   3   6    7.44    0.27 
   5  -3  -6    8.28    0.28 
   5  -3  -6    8.32    0.22 
  -5   3   6    8.35    0.27 
  -5   3   6    7.84    0.27 
   4  -3  -6   87.51    1.24 
   4  -3  -6   87.43    1.15 
  -4   3   6   85.67    1.22 
  -4   3   6   86.91    1.21 
   3  -3  -6   45.39    0.73 
   3  -3  -6   45.13    0.69 
  -3   3   6   41.23    0.68 
  -3   3   6   42.39    0.68 
   2  -3  -6   18.29    0.37 
   2  -3  -6   18.12    0.37 
  -2   3   6   17.76    0.38 
  -2   3   6   17.36    0.36 
   1  -3  -6    8.36    0.22 
   1  -3  -6    8.46    0.24 
   1  -3  -6    8.22    0.17 
  -1   3   6    7.90    0.22 
  -1   3   6    8.23    0.24 
   0  -3  -6   77.62    1.00 
   0  -3  -6   78.94    1.00 
   0  -3  -6   78.22    1.09 
   0   3   6   74.60    1.06 
   0   3   6   75.13    1.02 
  -1  -3  -6    7.69    0.21 
  -1  -3  -6    7.48    0.16 
  -1  -3  -6    7.82    0.24 
   1   3   6    7.23    0.22 
   1   3   6    7.99    0.25 
  -2  -3  -6   24.61    0.47 
  -2  -3  -6   23.76    0.49 
   2   3   6   24.44    0.47 
   2   3   6   24.74    0.51 
  -3  -3  -6    3.68    0.18 
  -3  -3  -6    3.54    0.17 
   3   3   6    3.48    0.17 
   3   3   6    3.44    0.19 
  -4  -3  -6    1.62    0.13 
  -4  -3  -6    1.56    0.13 
   4   3   6    1.50    0.14 
   4   3   6    1.53    0.13 
  -5  -3  -6   14.76    0.40 
  -5  -3  -6   14.73    0.43 
   5   3   6   13.38    0.42 
   5   3   6   13.82    0.39 
  -6  -3  -6    3.48    0.22 
   6   3   6    3.20    0.20 
   6   3   6    3.41    0.23 
  -7  -3  -6   14.18    0.47 
   7   3   6   13.37    0.47 
  10  -4  -6    5.39    0.31 
  10  -4  -6    5.70    0.31 
 -10   4   6    6.46    0.34 
   9  -4  -6    1.94    0.19 
  -9   4   6    2.33    0.20 
  -9   4   6    2.42    0.20 
   8  -4  -6    7.50    0.32 
  -8   4   6    7.56    0.32 
  -8   4   6    7.38    0.32 
   7  -4  -6    5.22    0.25 
  -7   4   6    5.45    0.26 
  -7   4   6    5.22    0.25 
   6  -4  -6   15.72    0.44 
  -6   4   6   15.91    0.42 
  -6   4   6   14.96    0.42 
   5  -4  -6   15.22    0.41 
   5  -4  -6   16.58    0.39 
  -5   4   6   15.81    0.41 
  -5   4   6   16.40    0.41 
   4  -4  -6  159.12    1.95 
   4  -4  -6  158.65    2.06 
  -4   4   6  151.81    1.99 
  -4   4   6  154.72    1.96 
   3  -4  -6    6.55    0.23 
   3  -4  -6    6.46    0.21 
  -3   4   6    6.23    0.21 
  -3   4   6    6.60    0.23 
   2  -4  -6    6.73    0.22 
   2  -4  -6    6.27    0.21 
  -2   4   6    5.93    0.19 
  -2   4   6    5.64    0.21 
  -2   4   6    6.10    0.14 
   1  -4  -6    0.34    0.04 
   1  -4  -6    0.44    0.07 
   1  -4  -6    0.35    0.07 
  -1   4   6    0.34    0.07 
  -1   4   6    0.42    0.07 
   0  -4  -6    6.58    0.23 
   0  -4  -6    5.98    0.18 
   0  -4  -6    6.32    0.18 
   0   4   6    6.23    0.19 
   0   4   6    5.90    0.22 
  -1  -4  -6    4.16    0.16 
  -1  -4  -6    4.28    0.19 
   1   4   6    4.49    0.20 
   1   4   6    4.42    0.17 
  -2  -4  -6   43.06    0.71 
  -2  -4  -6   43.34    0.75 
   2   4   6   40.41    0.75 
   2   4   6   42.50    0.68 
  -3  -4  -6    0.29    0.08 
  -3  -4  -6    0.44    0.09 
   3   4   6    0.31    0.07 
   3   4   6    0.38    0.09 
  -4  -4  -6    2.06    0.15 
  -4  -4  -6    2.29    0.16 
   4   4   6    2.44    0.18 
   4   4   6    2.32    0.17 
  -5  -4  -6   10.35    0.35 
  -5  -4  -6   11.16    0.37 
   5   4   6    9.39    0.37 
  -6  -4  -6    0.93    0.15 
  -6  -4  -6    1.12    0.14 
   6   4   6    0.82    0.16 
  -7  -4  -6    0.76    0.15 
   7   4   6    0.71    0.16 
   9  -5  -6    1.43    0.17 
  -9   5   6    1.27    0.16 
  -9   5   6    2.00    0.19 
   8  -5  -6   20.53    0.57 
  -8   5   6   19.41    0.54 
  -8   5   6   21.53    0.56 
   7  -5  -6    2.70    0.20 
  -7   5   6    2.85    0.20 
  -7   5   6    2.57    0.18 
   6  -5  -6   10.27    0.36 
  -6   5   6   10.76    0.34 
  -6   5   6   10.82    0.36 
   5  -5  -6   15.61    0.43 
  -5   5   6   15.43    0.40 
  -5   5   6   15.43    0.42 
   4  -5  -6   24.73    0.46 
   4  -5  -6   23.40    0.52 
  -4   5   6   22.91    0.51 
  -4   5   6   22.70    0.48 
   3  -5  -6   29.37    0.53 
   3  -5  -6   28.74    0.57 
  -3   5   6   27.45    0.56 
  -3   5   6   27.62    0.51 
   2  -5  -6   24.84    0.49 
   2  -5  -6   24.78    0.49 
  -2   5   6   27.15    0.56 
  -2   5   6   26.44    0.48 
   1  -5  -6   25.08    0.50 
   1  -5  -6   25.32    0.47 
  -1   5   6   24.23    0.52 
  -1   5   6   23.85    0.44 
   0  -5  -6   15.55    0.33 
   0  -5  -6   15.36    0.32 
   0  -5  -6   15.17    0.38 
   0   5   6   15.20    0.32 
   0   5   6   13.92    0.39 
  -1  -5  -6    0.13    0.06 
  -1  -5  -6    0.10    0.04 
   1   5   6    0.04    0.04 
   1   5   6    0.00    0.05 
  -2  -5  -6    1.45    0.13 
  -2  -5  -6    1.70    0.13 
   2   5   6    1.71    0.14 
  -3  -5  -6    6.36    0.26 
  -3  -5  -6    6.35    0.25 
   3   5   6    6.18    0.28 
  -4  -5  -6    7.97    0.31 
  -4  -5  -6    7.47    0.29 
   4   5   6    7.06    0.31 
  -5  -5  -6    4.66    0.25 
  -5  -5  -6    3.98    0.22 
   5   5   6    3.95    0.25 
  -6  -5  -6    4.67    0.25 
  -6  -5  -6    4.54    0.26 
   6   5   6    4.35    0.28 
   9  -6  -6    0.08    0.07 
   9  -6  -6    0.10    0.09 
  -9   6   6    0.13    0.09 
   8  -6  -6   17.80    0.54 
  -8   6   6   18.32    0.52 
  -8   6   6   16.89    0.52 
   7  -6  -6    3.13    0.21 
  -7   6   6    3.41    0.21 
  -7   6   6    3.37    0.22 
   6  -6  -6    4.45    0.24 
  -6   6   6    4.01    0.21 
  -6   6   6    4.12    0.23 
   5  -6  -6   10.37    0.35 
  -5   6   6   10.08    0.35 
  -5   6   6   10.46    0.32 
   4  -6  -6    1.55    0.11 
   4  -6  -6    1.66    0.14 
  -4   6   6    1.85    0.15 
  -4   6   6    1.79    0.13 
   3  -6  -6   18.75    0.45 
   3  -6  -6   18.38    0.41 
  -3   6   6   17.49    0.45 
  -3   6   6   17.35    0.38 
   2  -6  -6    7.35    0.25 
   2  -6  -6    7.74    0.26 
  -2   6   6    7.22    0.22 
  -2   6   6    7.04    0.27 
   1  -6  -6    1.94    0.12 
   1  -6  -6    1.95    0.14 
  -1   6   6    2.00    0.11 
  -1   6   6    1.89    0.15 
   0  -6  -6   19.70    0.47 
   0  -6  -6   20.19    0.42 
   0  -6  -6   19.68    0.40 
   0   6   6   19.04    0.48 
  -1  -6  -6    5.83    0.22 
  -1  -6  -6    5.80    0.25 
   1   6   6    5.53    0.26 
  -2  -6  -6   14.43    0.42 
  -2  -6  -6   14.36    0.38 
   2   6   6   13.40    0.42 
  -3  -6  -6   23.68    0.55 
  -3  -6  -6   22.97    0.57 
   3   6   6   21.43    0.57 
  -4  -6  -6    0.77    0.13 
  -4  -6  -6    0.71    0.13 
   4   6   6    0.56    0.13 
  -5  -6  -6    6.92    0.31 
  -5  -6  -6    6.51    0.30 
   5   6   6    6.13    0.32 
  -6  -6  -6    0.25    0.10 
  -6  -6  -6    0.36    0.11 
   6   6   6    0.54    0.15 
   9  -7  -6    3.06    0.25 
   9  -7  -6    2.12    0.20 
  -9   7   6    2.52    0.22 
   8  -7  -6    6.10    0.32 
  -8   7   6    6.10    0.31 
  -8   7   6    6.92    0.32 
   7  -7  -6    4.05    0.25 
  -7   7   6    3.56    0.21 
  -7   7   6    3.16    0.22 
   6  -7  -6    8.95    0.36 
  -6   7   6    8.77    0.35 
  -6   7   6    8.56    0.31 
   5  -7  -6   17.79    0.49 
  -5   7   6   17.83    0.43 
  -5   7   6   17.64    0.49 
   4  -7  -6    1.85    0.16 
   4  -7  -6    1.91    0.13 
  -4   7   6    1.76    0.16 
   3  -7  -6    4.85    0.21 
   3  -7  -6    5.04    0.23 
  -3   7   6    5.07    0.25 
   1  -7  -6   10.23    0.33 
   1  -7  -6   10.19    0.30 
  -1   7   6    9.35    0.34 
   0  -7  -6    2.69    0.18 
   0   7   6    2.17    0.17 
   0   7   6    2.44    0.14 
  -1  -7  -6    3.33    0.18 
  -1  -7  -6    3.24    0.20 
   1   7   6    3.16    0.21 
  -2  -7  -6    2.11    0.17 
  -2  -7  -6    1.96    0.15 
   2   7   6    2.27    0.19 
  -3  -7  -6    9.74    0.35 
  -3  -7  -6    9.86    0.37 
   3   7   6    9.31    0.38 
  -4  -7  -6   12.42    0.42 
  -4  -7  -6   12.00    0.42 
   4   7   6   11.52    0.44 
  -5  -7  -6    4.90    0.28 
  -5  -7  -6    5.19    0.29 
   5   7   6    5.34    0.32 
   8  -8  -6    3.42    0.26 
   8  -8  -6    3.86    0.27 
  -8   8   6    3.33    0.25 
   7  -8  -6    4.40    0.27 
  -7   8   6    5.17    0.29 
   6  -8  -6    2.56    0.20 
  -6   8   6    2.81    0.21 
   5  -8  -6    3.67    0.23 
  -5   8   6    3.88    0.24 
   4  -8  -6    2.84    0.20 
  -4   8   6    3.02    0.21 
   3  -8  -6    7.45    0.30 
   3  -8  -6    7.94    0.28 
  -3   8   6    6.86    0.30 
   2  -8  -6   28.61    0.61 
   2  -8  -6   28.60    0.61 
  -2   8   6   28.55    0.67 
   1  -8  -6    7.73    0.30 
   1  -8  -6    6.95    0.27 
  -1   8   6    7.09    0.31 
   0  -8  -6   31.22    0.68 
   0   8   6   29.43    0.69 
   0   8   6   28.98    0.58 
  -1  -8  -6    4.24    0.24 
   1   8   6    4.58    0.26 
  -2  -8  -6   10.04    0.34 
  -2  -8  -6    9.46    0.37 
   2   8   6    9.40    0.38 
  -3  -8  -6   20.69    0.54 
  -3  -8  -6   19.94    0.57 
   3   8   6   19.48    0.59 
  -4  -8  -6    2.28    0.19 
  -4  -8  -6    2.21    0.20 
   4   8   6    1.71    0.20 
   7  -9  -6    0.80    0.16 
  -7   9   6    0.73    0.15 
   6  -9  -6    3.79    0.25 
  -6   9   6    3.25    0.24 
   5  -9  -6    1.34    0.16 
  -5   9   6    1.26    0.16 
   4  -9  -6    3.06    0.21 
  -4   9   6    3.01    0.22 
   3  -9  -6    7.57    0.32 
   3  -9  -6    7.91    0.30 
  -3   9   6    7.67    0.34 
   2  -9  -6    4.81    0.25 
   2  -9  -6    4.83    0.25 
  -2   9   6    5.09    0.28 
   1  -9  -6    2.32    0.18 
  -1   9   6    2.48    0.20 
   0  -9  -6   10.65    0.39 
   0   9   6    9.36    0.39 
  -1  -9  -6    6.45    0.31 
   1   9   6    5.61    0.31 
   1   9   6    6.32    0.28 
  -2  -9  -6    4.13    0.26 
   2   9   6    4.15    0.24 
   2   9   6    4.12    0.27 
  -3  -9  -6    8.80    0.38 
  -3  -9  -6    7.47    0.33 
   3   9   6    7.71    0.38 
   6 -10  -6    6.06    0.33 
  -6  10   6    5.59    0.33 
   5 -10  -6   19.76    0.59 
  -5  10   6   19.66    0.59 
   4 -10  -6    4.63    0.27 
  -4  10   6    3.98    0.27 
   3 -10  -6   56.19    1.05 
   3 -10  -6   55.75    0.99 
  -3  10   6   55.78    1.09 
   2 -10  -6    4.11    0.24 
  -2  10   6    3.76    0.26 
   1 -10  -6   29.55    0.69 
  -1  10   6   28.73    0.73 
   0 -10  -6    5.50    0.30 
   0  10   6    5.34    0.31 
  -1 -10  -6    2.12    0.20 
   1  10   6    2.37    0.22 
  -2 -10  -6    4.22    0.28 
   2  10   6    5.14    0.32 
   2  10   6    5.01    0.28 
   4 -11  -6    1.01    0.17 
  -4  11   6    0.88    0.16 
   3 -11  -6    5.15    0.29 
  -3  11   6    4.98    0.31 
   2 -11  -6    4.60    0.27 
  -2  11   6    4.09    0.28 
   1 -11  -6    0.07    0.09 
  -1  11   6    0.00    0.08 
   0 -11  -6    0.46    0.12 
   0  11   6    0.23    0.11 
   3  12  -7    3.57    0.25 
  -3 -12   7    3.97    0.27 
  -3 -12   7    3.48    0.26 
   2  12  -7    0.34    0.11 
  -2 -12   7    0.30    0.11 
  -2 -12   7    0.50    0.14 
   1  12  -7    2.06    0.19 
  -1 -12   7    1.97    0.20 
  -1 -12   7    1.88    0.20 
   0  12  -7    2.11    0.20 
   0 -12   7    2.20    0.20 
   0 -12   7    2.09    0.20 
  -1  12  -7    8.77    0.38 
   1 -12   7    8.21    0.39 
   1 -12   7    8.28    0.35 
  -2  12  -7   13.51    0.48 
   2 -12   7   12.45    0.48 
  -3  12  -7    0.58    0.15 
   3 -12   7    0.64    0.15 
  -4  12  -7    1.60    0.20 
   4 -12   7    1.85    0.21 
   4  11  -7    5.91    0.31 
  -4 -11   7    5.87    0.31 
  -4 -11   7    6.11    0.33 
   3  11  -7    3.20    0.23 
  -3 -11   7    3.12    0.23 
  -3 -11   7    3.13    0.24 
   2  11  -7    0.40    0.11 
  -2 -11   7    0.30    0.11 
  -2 -11   7    0.36    0.11 
   1  11  -7    5.78    0.29 
  -1 -11   7    5.14    0.28 
  -1 -11   7    5.19    0.29 
   0  11  -7    1.49    0.16 
   0 -11   7    1.64    0.16 
   0 -11   7    1.08    0.15 
  -1  11  -7   25.61    0.65 
   1 -11   7   24.83    0.66 
   1 -11   7   26.25    0.61 
  -2  11  -7    4.90    0.27 
   2 -11   7    4.10    0.26 
  -3  11  -7    0.48    0.12 
   3 -11   7    0.55    0.13 
  -4  11  -7    0.40    0.13 
   4 -11   7    0.44    0.13 
  -5  11  -7    2.64    0.22 
   5 -11   7    2.57    0.23 
   5  10  -7    1.51    0.17 
  -5 -10   7    1.58    0.18 
  -5 -10   7    1.69    0.18 
   4  10  -7    4.07    0.24 
  -4 -10   7    3.77    0.24 
  -4 -10   7    3.96    0.26 
   3  10  -7    9.70    0.37 
  -3 -10   7   10.81    0.41 
  -3 -10   7   10.24    0.39 
   2  10  -7    4.95    0.26 
  -2 -10   7    4.81    0.26 
  -2 -10   7    4.49    0.25 
   1  10  -7   11.67    0.40 
  -1 -10   7   10.97    0.38 
  -1 -10   7   11.39    0.41 
   0  10  -7    1.29    0.14 
   0 -10   7    1.46    0.16 
   0 -10   7    1.31    0.14 
  -1  10  -7   16.26    0.48 
   1 -10   7   16.41    0.50 
   1 -10   7   17.35    0.46 
  -2  10  -7    5.96    0.28 
   2 -10   7    5.50    0.29 
  -3  10  -7    0.90    0.13 
   3 -10   7    0.80    0.15 
  -4  10  -7   20.85    0.58 
   4 -10   7   20.28    0.58 
  -5  10  -7    1.48    0.17 
   5 -10   7    1.16    0.16 
  -6  10  -7    3.02    0.24 
   6 -10   7    3.22    0.24 
   6   9  -7    5.52    0.28 
  -6  -9   7    6.14    0.32 
   5   9  -7    3.20    0.22 
  -5  -9   7    2.78    0.22 
  -5  -9   7    3.00    0.22 
   4   9  -7    6.91    0.30 
  -4  -9   7    6.95    0.32 
  -4  -9   7    7.50    0.32 
   3   9  -7   63.92    1.08 
  -3  -9   7   61.11    1.08 
   2   9  -7    8.71    0.32 
  -2  -9   7    8.48    0.33 
  -2  -9   7    9.33    0.34 
   1   9  -7   22.78    0.55 
  -1  -9   7   22.17    0.54 
  -1  -9   7   22.73    0.57 
   0   9  -7    5.82    0.26 
   0  -9   7    5.97    0.28 
   0  -9   7    5.09    0.24 
  -1   9  -7   20.25    0.51 
   1  -9   7   21.14    0.55 
   1  -9   7   21.89    0.50 
  -2   9  -7   37.49    0.68 
  -2   9  -7   36.93    0.75 
   2  -9   7   36.04    0.76 
  -3   9  -7   34.57    0.73 
   3  -9   7   32.76    0.72 
  -4   9  -7   90.88    1.44 
   4  -9   7   88.64    1.42 
  -5   9  -7    2.53    0.20 
   5  -9   7    2.55    0.20 
   5  -9   7    2.55    0.19 
  -6   9  -7   11.36    0.43 
   6  -9   7   11.43    0.42 
   6  -9   7   11.41    0.42 
   7   8  -7    0.41    0.11 
  -7  -8   7    0.37    0.11 
   6   8  -7    5.67    0.27 
  -6  -8   7    6.15    0.30 
  -6  -8   7    5.94    0.29 
   5   8  -7    5.96    0.27 
  -5  -8   7    6.71    0.30 
  -5  -8   7    6.26    0.30 
   4   8  -7   28.67    0.61 
  -4  -8   7   29.73    0.67 
  -4  -8   7   30.32    0.68 
   3   8  -7   49.01    0.86 
  -3  -8   7   48.13    0.90 
  -3  -8   7   48.47    0.89 
   2   8  -7    1.04    0.11 
  -2  -8   7    0.96    0.12 
  -2  -8   7    1.13    0.13 
   1   8  -7   19.83    0.48 
  -1  -8   7   19.55    0.50 
  -1  -8   7   19.51    0.48 
   0   8  -7    7.60    0.28 
   0  -8   7    6.91    0.28 
   0  -8   7    7.71    0.28 
  -1   8  -7   31.19    0.60 
  -1   8  -7   30.43    0.63 
   1  -8   7   28.67    0.63 
  -2   8  -7    7.71    0.25 
  -2   8  -7    7.66    0.29 
   2  -8   7    7.62    0.30 
   2  -8   7    7.17    0.25 
  -3   8  -7   33.12    0.69 
   3  -8   7   31.96    0.68 
   3  -8   7   32.33    0.63 
  -4   8  -7   27.04    0.63 
   4  -8   7   25.81    0.60 
   4  -8   7   25.56    0.58 
  -5   8  -7    5.99    0.29 
   5  -8   7    5.58    0.27 
   5  -8   7    5.28    0.26 
  -6   8  -7   11.31    0.41 
   6  -8   7   10.86    0.41 
  -7   8  -7   16.98    0.54 
   7  -8   7   17.97    0.56 
  -8  -7   7    4.38    0.30 
   7   7  -7    0.31    0.10 
  -7  -7   7    0.52    0.12 
   6   7  -7    9.99    0.34 
  -6  -7   7   10.73    0.38 
  -6  -7   7   10.97    0.38 
   5   7  -7    3.77    0.20 
  -5  -7   7    3.83    0.22 
  -5  -7   7    3.58    0.21 
   4   7  -7    7.87    0.28 
  -4  -7   7    7.24    0.29 
  -4  -7   7    7.58    0.30 
   3   7  -7    7.96    0.28 
  -3  -7   7    7.54    0.29 
  -3  -7   7    9.42    0.32 
   2   7  -7   34.91    0.65 
  -2  -7   7   35.62    0.69 
  -2  -7   7   35.63    0.70 
   1   7  -7    2.34    0.15 
  -1  -7   7    2.22    0.16 
  -1  -7   7    2.40    0.12 
  -1  -7   7    2.25    0.15 
   0   7  -7   45.55    0.78 
   0  -7   7   45.04    0.70 
   0  -7   7   44.61    0.75 
   0  -7   7   42.80    0.79 
  -1   7  -7    0.78    0.10 
  -1   7  -7    1.02    0.10 
   1  -7   7    0.83    0.11 
   1  -7   7    0.95    0.09 
  -2   7  -7   28.80    0.59 
  -2   7  -7   29.31    0.54 
   2  -7   7   28.79    0.60 
   2  -7   7   28.23    0.55 
  -3   7  -7   10.28    0.34 
   3  -7   7   10.08    0.32 
   3  -7   7   10.66    0.34 
  -4   7  -7   23.20    0.56 
   4  -7   7   22.52    0.53 
   4  -7   7   22.78    0.53 
  -5   7  -7   13.97    0.44 
   5  -7   7   13.21    0.42 
   5  -7   7   13.84    0.40 
  -6   7  -7   18.67    0.53 
   6  -7   7   18.93    0.54 
  -7   7  -7   19.70    0.57 
   7  -7   7   18.61    0.57 
   7   6  -7    3.44    0.20 
  -7  -6   7    4.18    0.24 
  -7  -6   7    4.02    0.23 
   6   6  -7   47.93    0.83 
  -6  -6   7   50.00    0.90 
  -6  -6   7   49.70    0.91 
   5   6  -7    1.22    0.11 
  -5  -6   7    1.50    0.14 
  -5  -6   7    1.58    0.15 
   4   6  -7   11.43    0.32 
  -4  -6   7   11.97    0.37 
  -4  -6   7   13.03    0.39 
   3   6  -7    2.85    0.15 
  -3  -6   7    2.69    0.17 
  -3  -6   7    3.06    0.14 
  -3  -6   7    2.91    0.17 
   2   6  -7   62.57    0.94 
  -2  -6   7   63.78    1.01 
  -2  -6   7   61.72    0.98 
  -2  -6   7   63.07    0.90 
   1   6  -7   76.68    1.09 
  -1  -6   7   79.17    1.07 
  -1  -6   7   78.09    1.17 
  -1  -6   7   78.29    1.14 
   0   6  -7   91.54    1.26 
   0   6  -7   92.16    1.27 
   0  -6   7   89.94    1.29 
   0  -6   7   88.82    1.20 
  -1   6  -7   31.93    0.60 
  -1   6  -7   32.50    0.57 
   1  -6   7   31.48    0.61 
   1  -6   7   30.93    0.56 
  -2   6  -7   21.92    0.48 
  -2   6  -7   22.21    0.44 
   2  -6   7   21.21    0.46 
   2  -6   7   21.22    0.47 
  -3   6  -7    1.73    0.11 
  -3   6  -7    1.66    0.13 
   3  -6   7    1.78    0.14 
   3  -6   7    1.68    0.13 
  -4   6  -7   26.85    0.59 
   4  -6   7   25.72    0.54 
   4  -6   7   25.80    0.58 
  -5   6  -7   16.45    0.46 
   5  -6   7   16.60    0.62 
   5  -6   7   16.15    0.46 
  -6   6  -7   14.53    0.45 
   6  -6   7   14.71    0.47 
  -7   6  -7    0.77    0.15 
   7  -6   7    0.64    0.14 
  -8   6  -7    3.79    0.26 
   8  -6   7    3.79    0.27 
  -7  -5   7    0.58    0.12 
  -7  -5   7    0.74    0.13 
   6   5  -7    8.04    0.27 
  -6  -5   7    8.43    0.28 
  -6  -5   7    8.37    0.30 
  -6  -5   7    8.41    0.31 
   5   5  -7   38.63    0.66 
  -5  -5   7   38.58    0.73 
  -5  -5   7   39.29    0.67 
  -5  -5   7   39.10    0.73 
   4   5  -7   31.72    0.57 
  -4  -5   7   31.19    0.56 
  -4  -5   7   31.57    0.63 
  -4  -5   7   31.59    0.62 
   3   5  -7  112.24    1.46 
  -3  -5   7  111.72    1.45 
  -3  -5   7  111.30    1.52 
  -3  -5   7  110.30    1.54 
   2   5  -7   23.00    0.44 
  -2  -5   7   22.56    0.43 
  -2  -5   7   22.75    0.49 
  -2  -5   7   22.56    0.47 
   1   5  -7  127.19    1.62 
  -1  -5   7  127.60    1.69 
  -1  -5   7  127.99    1.62 
   0   5  -7   50.13    0.77 
   0   5  -7   50.07    0.77 
   0  -5   7   48.40    0.75 
   0  -5   7   49.60    0.80 
  -1   5  -7   66.84    0.98 
  -1   5  -7   67.80    0.96 
   1  -5   7   64.19    0.94 
   1  -5   7   62.62    0.95 
  -2   5  -7  166.25    2.03 
  -2   5  -7  164.12    2.10 
   2  -5   7  156.96    1.99 
   2  -5   7  156.46    2.00 
  -3   5  -7   18.02    0.37 
  -3   5  -7   17.18    0.42 
   3  -5   7   16.05    0.38 
   3  -5   7   16.43    0.41 
  -4   5  -7   82.64    1.25 
   4  -5   7   79.30    1.13 
   4  -5   7   77.88    1.22 
  -5   5  -7    8.76    0.28 
  -5   5  -7    7.98    0.31 
   5  -5   7    7.91    0.31 
  -6   5  -7   49.10    0.92 
  -6   5  -7   47.39    0.86 
   6  -5   7   45.51    0.91 
  -7   5  -7    4.38    0.35 
  -7   5  -7    4.03    0.25 
   7  -5   7    4.45    0.28 
  -8   5  -7    8.93    0.39 
   8  -5   7    8.62    0.40 
  -8  -4   7    0.40    0.10 
   7   4  -7    1.97    0.15 
  -7  -4   7    2.20    0.16 
  -7  -4   7    2.30    0.17 
   6   4  -7    2.54    0.14 
  -6  -4   7    2.11    0.16 
  -6  -4   7    2.32    0.15 
  -6  -4   7    2.17    0.15 
   5   4  -7    6.66    0.22 
  -5  -4   7    7.61    0.25 
  -5  -4   7    7.47    0.28 
  -5  -4   7    7.06    0.26 
   4   4  -7    1.87    0.11 
  -4  -4   7    2.11    0.14 
  -4  -4   7    2.22    0.14 
  -4  -4   7    1.96    0.12 
   3   4  -7   27.76    0.47 
   3   4  -7   28.11    0.53 
  -3  -4   7   27.87    0.55 
  -3  -4   7   27.73    0.50 
   2   4  -7   10.48    0.25 
   2   4  -7   10.40    0.28 
  -2  -4   7   10.45    0.29 
  -2  -4   7   10.22    0.27 
   1   4  -7    5.29    0.19 
   1   4  -7    5.36    0.17 
  -1  -4   7    5.23    0.20 
  -1  -4   7    5.28    0.18 
   0   4  -7    3.86    0.15 
  -1   4  -7    8.94    0.25 
  -1   4  -7    9.30    0.25 
   1  -4   7    8.82    0.26 
   1  -4   7    8.64    0.25 
  -2   4  -7    9.18    0.24 
  -2   4  -7    8.87    0.27 
  -2   4  -7    8.89    0.19 
   2  -4   7    8.01    0.24 
   2  -4   7    7.95    0.26 
  -3   4  -7   15.00    0.32 
  -3   4  -7   15.11    0.31 
  -3   4  -7   15.02    0.38 
   3  -4   7   13.68    0.37 
   3  -4   7   13.90    0.32 
  -4   4  -7   19.90    0.47 
  -4   4  -7   19.38    0.40 
   4  -4   7   19.07    0.40 
   4  -4   7   19.22    0.48 
  -5   4  -7   22.72    0.48 
  -5   4  -7   22.19    0.53 
   5  -4   7   20.81    0.53 
  -6   4  -7    5.48    0.27 
  -6   4  -7    6.25    0.26 
   6  -4   7    5.85    0.29 
  -7   4  -7   26.60    0.61 
  -7   4  -7   26.73    0.66 
   7  -4   7   24.86    0.66 
  -8   4  -7    8.64    0.35 
  -8   4  -7    7.28    0.35 
   8  -4   7    8.34    0.39 
  -9  -3   7    2.12    0.18 
   8   3  -7   14.38    0.43 
  -8  -3   7   14.46    0.43 
  -8  -3   7   14.60    0.41 
   7   3  -7   14.88    0.38 
  -7  -3   7   14.93    0.39 
  -7  -3   7   15.47    0.43 
  -7  -3   7   14.89    0.42 
   6   3  -7    4.10    0.19 
  -6  -3   7    3.98    0.21 
  -6  -3   7    4.06    0.17 
  -6  -3   7    4.14    0.20 
   5   3  -7    3.33    0.17 
   5   3  -7    3.59    0.14 
  -5  -3   7    3.61    0.18 
  -5  -3   7    3.58    0.14 
  -5  -3   7    3.63    0.19 
   4   3  -7    7.47    0.24 
   4   3  -7    7.13    0.19 
  -4  -3   7    7.85    0.19 
  -4  -3   7    7.48    0.26 
  -4  -3   7    7.13    0.24 
   3   3  -7   26.09    0.48 
   3   3  -7   25.55    0.42 
  -3  -3   7   27.14    0.50 
  -3  -3   7   27.14    0.39 
  -3  -3   7   26.77    0.52 
   2   3  -7   61.51    0.81 
   2   3  -7   60.06    0.89 
  -2  -3   7   64.34    0.96 
  -2  -3   7   66.60    0.94 
   1   3  -7    7.03    0.18 
   1   3  -7    6.57    0.21 
  -1  -3   7    6.63    0.21 
  -1  -3   7    6.69    0.21 
   0   3  -7    2.18    0.12 
   0   3  -7    2.22    0.11 
   0  -3   7    2.02    0.11 
   0  -3   7    1.97    0.11 
  -1   3  -7    3.02    0.13 
  -1   3  -7    3.33    0.14 
   1  -3   7    2.85    0.09 
   1  -3   7    2.83    0.14 
   1  -3   7    2.62    0.12 
  -2   3  -7   47.46    0.71 
  -2   3  -7   47.31    0.75 
   2  -3   7   45.24    0.68 
   2  -3   7   45.30    0.63 
   2  -3   7   45.88    0.75 
  -3   3  -7    1.49    0.12 
  -3   3  -7    1.53    0.10 
  -3   3  -7    1.62    0.09 
   3  -3   7    1.49    0.12 
   3  -3   7    1.31    0.09 
  -4   3  -7   19.75    0.39 
  -4   3  -7   19.34    0.41 
  -4   3  -7   18.99    0.45 
   4  -3   7   18.80    0.47 
  -5   3  -7    6.21    0.26 
  -5   3  -7    5.91    0.23 
   5  -3   7    5.23    0.25 
  -6   3  -7    1.24    0.13 
  -6   3  -7    1.37    0.15 
   6  -3   7    0.87    0.14 
  -7   3  -7   19.88    0.52 
  -7   3  -7   20.01    0.56 
   7  -3   7   19.01    0.57 
  -8   3  -7    4.32    0.27 
  -8   3  -7    3.86    0.24 
   8  -3   7    3.88    0.27 
  10   2  -7    2.35    0.23 
 -10  -2   7    3.22    0.23 
   9   2  -7    3.77    0.23 
  -9  -2   7    4.26    0.25 
  -9  -2   7    4.47    0.25 
   8   2  -7   11.89    0.38 
  -8  -2   7   13.09    0.41 
  -8  -2   7   12.61    0.38 
   7   2  -7    4.41    0.22 
  -7  -2   7    4.58    0.21 
  -7  -2   7    4.06    0.22 
   6   2  -7   43.05    0.71 
  -6  -2   7   45.34    0.81 
  -6  -2   7   45.05    0.81 
  -6  -2   7   46.43    0.74 
   5   2  -7   21.18    0.43 
  -5  -2   7   21.27    0.47 
  -5  -2   7   21.14    0.48 
  -5  -2   7   22.01    0.41 
   4   2  -7   31.68    0.47 
   4   2  -7   32.22    0.56 
  -4  -2   7   32.43    0.59 
  -4  -2   7   32.71    0.50 
  -4  -2   7   32.63    0.61 
   3   2  -7  131.08    1.54 
   3   2  -7  130.49    1.66 
  -3  -2   7  126.80    1.50 
  -3  -2   7  126.74    1.66 
  -3  -2   7  127.69    1.64 
   2   2  -7   12.95    0.24 
   2   2  -7   13.09    0.30 
  -2  -2   7   12.54    0.30 
  -2  -2   7   12.53    0.30 
   1   2  -7   14.63    0.32 
   1   2  -7   14.49    0.27 
  -1  -2   7   13.38    0.31 
  -1  -2   7   14.30    0.31 
   0   2  -7    6.52    0.18 
   0   2  -7    6.79    0.20 
   0  -2   7    6.45    0.19 
   0  -2   7    6.14    0.13 
   0  -2   7    6.03    0.20 
  -1   2  -7   67.74    0.93 
  -1   2  -7   67.64    0.94 
   1  -2   7   63.90    0.88 
   1  -2   7   64.96    0.83 
   1  -2   7   63.75    0.95 
  -2   2  -7   54.20    0.79 
  -2   2  -7   54.57    0.81 
   2  -2   7   53.55    0.84 
   2  -2   7   52.31    0.73 
   2  -2   7   52.61    0.74 
  -3   2  -7    1.62    0.12 
  -3   2  -7    1.41    0.10 
   3  -2   7    1.48    0.12 
   3  -2   7    1.19    0.11 
   3  -2   7    1.44    0.10 
  -4   2  -7    7.73    0.27 
  -4   2  -7    7.47    0.22 
  -4   2  -7    7.24    0.23 
   4  -2   7    6.65    0.27 
  -5   2  -7    1.30    0.13 
  -5   2  -7    0.87    0.10 
   5  -2   7    0.96    0.12 
  -6   2  -7    3.29    0.19 
  -6   2  -7    3.09    0.20 
   6  -2   7    3.10    0.21 
  -7   2  -7   12.82    0.41 
  -7   2  -7   13.01    0.44 
   7  -2   7   12.24    0.44 
  -8   2  -7    0.70    0.15 
   8  -2   7    0.72    0.16 
 -10  -1   7    2.73    0.21 
 -10  -1   7    2.50    0.21 
   9   1  -7    6.99    0.31 
  -9  -1   7    6.86    0.31 
  -9  -1   7    6.58    0.31 
   8   1  -7   15.50    0.45 
  -8  -1   7   16.33    0.45 
  -8  -1   7   15.76    0.47 
   7   1  -7    1.19    0.12 
  -7  -1   7    0.96    0.11 
  -7  -1   7    1.21    0.13 
   6   1  -7   35.55    0.68 
   6   1  -7   35.78    0.61 
  -6  -1   7   36.88    0.70 
  -6  -1   7   37.49    0.66 
   5   1  -7   31.57    0.55 
  -5  -1   7   33.27    0.56 
  -5  -1   7   32.88    0.63 
  -5  -1   7   32.72    0.62 
   4   1  -7   19.76    0.40 
  -4  -1   7   19.05    0.43 
  -4  -1   7   19.59    0.36 
  -4  -1   7   19.63    0.43 
   3   1  -7   66.06    0.93 
  -3  -1   7   66.16    0.86 
  -3  -1   7   65.19    0.96 
  -3  -1   7   65.00    0.95 
   2   1  -7    4.76    0.11 
   2   1  -7    4.77    0.17 
  -2  -1   7    5.05    0.18 
  -2  -1   7    5.11    0.13 
  -2  -1   7    5.43    0.19 
   1   1  -7   12.67    0.29 
   1   1  -7   13.14    0.23 
  -1  -1   7   12.80    0.23 
  -1  -1   7   12.98    0.29 
  -1  -1   7   12.71    0.30 
   0   1  -7   10.93    0.23 
   0   1  -7   11.07    0.27 
   0  -1   7   10.99    0.22 
   0  -1   7   11.15    0.28 
   0  -1   7   11.47    0.25 
  -1   1  -7   92.58    1.19 
  -1   1  -7   91.25    1.21 
   1  -1   7   88.06    1.12 
   1  -1   7   88.15    1.21 
   1  -1   7   87.82    1.11 
  -2   1  -7   36.90    0.61 
  -2   1  -7   37.57    0.61 
   2  -1   7   36.03    0.57 
   2  -1   7   35.57    0.51 
   2  -1   7   36.14    0.64 
  -3   1  -7    2.80    0.14 
  -3   1  -7    2.56    0.14 
   3  -1   7    2.48    0.15 
   3  -1   7    2.58    0.13 
  -4   1  -7    7.62    0.23 
  -4   1  -7    7.74    0.27 
   4  -1   7    7.32    0.28 
   4  -1   7    7.38    0.25 
  -5   1  -7    1.31    0.13 
   5  -1   7    1.15    0.13 
   5  -1   7    1.20    0.12 
  -6   1  -7    4.85    0.25 
   6  -1   7    4.37    0.25 
   6  -1   7    4.62    0.24 
  -7   1  -7    5.01    0.27 
   7  -1   7    4.73    0.26 
   7  -1   7    4.66    0.27 
  -8   1  -7    0.76    0.15 
   8  -1   7    0.58    0.13 
   8  -1   7    0.72    0.16 
 -10   0   7    0.89    0.15 
 -10   0   7    0.84    0.15 
   9   0  -7   13.26    0.43 
  -9   0   7   13.67    0.46 
  -9   0   7   14.08    0.45 
   8   0  -7   12.60    0.40 
  -8   0   7   13.47    0.41 
  -8   0   7   13.77    0.44 
   7   0  -7    1.67    0.15 
  -7   0   7    2.06    0.15 
  -7   0   7    1.65    0.15 
   6   0  -7   19.31    0.39 
   6   0  -7   19.07    0.46 
  -6   0   7   19.53    0.47 
  -6   0   7   19.89    0.44 
   5   0  -7   22.32    0.42 
   5   0  -7   22.21    0.48 
  -5   0   7   22.11    0.44 
  -5   0   7   23.10    0.50 
   4   0  -7   25.81    0.46 
  -4   0   7   25.23    0.51 
  -4   0   7   26.18    0.46 
  -4   0   7   25.62    0.52 
   3   0  -7  125.91    1.59 
  -3   0   7  126.10    1.64 
  -3   0   7  127.84    1.55 
  -3   0   7  125.04    1.64 
   2   0  -7    0.33    0.06 
  -2   0   7    0.32    0.04 
  -2   0   7    0.47    0.07 
  -2   0   7    0.36    0.07 
   1   0  -7   27.61    0.39 
   1   0  -7   27.93    0.48 
  -1   0   7   26.76    0.43 
  -1   0   7   28.16    0.47 
  -1   0   7   27.41    0.50 
   0   0  -7    5.77    0.19 
   0   0  -7    5.64    0.15 
   0   0   7    5.92    0.17 
   0   0   7    5.86    0.20 
   0   0   7    5.86    0.17 
  -1   0  -7   47.00    0.68 
  -1   0  -7   47.69    0.73 
   1   0   7   45.86    0.67 
   1   0   7   45.33    0.62 
   1   0   7   42.92    0.72 
  -2   0  -7   74.17    1.04 
  -2   0  -7   75.46    1.05 
   2   0   7   70.44    1.05 
   2   0   7   72.33    1.00 
  -3   0  -7    4.52    0.18 
  -3   0  -7    4.33    0.18 
   3   0   7    4.59    0.20 
   3   0   7    4.20    0.18 
  -4   0  -7   51.06    0.79 
  -4   0  -7   48.49    0.83 
   4   0   7   47.04    0.83 
   4   0   7   47.65    0.80 
  -5   0  -7    0.38    0.09 
   5   0   7    0.13    0.07 
   5   0   7    0.26    0.08 
  -6   0  -7    3.29    0.21 
   6   0   7    3.20    0.21 
   6   0   7    3.02    0.21 
  -7   0  -7    5.07    0.28 
   7   0   7    4.44    0.27 
   7   0   7    4.84    0.27 
  -8   0  -7    1.12    0.16 
   8   0   7    1.19    0.16 
   8   0   7    1.33    0.17 
  10  -1  -7    1.47    0.17 
 -10   1   7    1.38    0.17 
 -10   1   7    1.49    0.17 
   9  -1  -7   10.66    0.39 
  -9   1   7   11.01    0.41 
  -9   1   7   10.91    0.39 
   8  -1  -7    6.52    0.29 
  -8   1   7    6.34    0.30 
  -8   1   7    6.50    0.28 
   7  -1  -7    2.91    0.19 
  -7   1   7    2.84    0.19 
  -7   1   7    2.74    0.17 
   6  -1  -7    4.88    0.20 
   6  -1  -7    4.79    0.22 
  -6   1   7    4.88    0.23 
  -6   1   7    5.11    0.21 
   5  -1  -7    7.60    0.26 
   5  -1  -7    7.38    0.21 
  -5   1   7    7.33    0.26 
  -5   1   7    7.46    0.24 
   4  -1  -7   91.11    1.20 
   4  -1  -7   90.49    1.27 
  -4   1   7   91.94    1.30 
  -4   1   7   92.88    1.24 
   3  -1  -7  141.44    1.79 
   3  -1  -7  139.67    1.75 
  -3   1   7  138.29    1.79 
  -3   1   7  141.80    1.73 
   2  -1  -7    8.12    0.23 
  -2   1   7    9.54    0.26 
  -2   1   7    8.33    0.22 
   1  -1  -7    2.36    0.12 
   1  -1  -7    2.15    0.07 
  -1   1   7    2.06    0.10 
  -1   1   7    2.05    0.12 
   0  -1  -7    8.40    0.24 
   0  -1  -7    8.87    0.20 
   0  -1  -7    8.65    0.20 
   0   1   7    8.05    0.22 
   0   1   7    8.30    0.24 
  -1  -1  -7   36.26    0.50 
  -1  -1  -7   35.75    0.56 
  -1  -1  -7   35.19    0.61 
   1   1   7   36.06    0.59 
   1   1   7   35.07    0.62 
  -2  -1  -7   57.72    0.85 
  -2  -1  -7   57.71    0.87 
   2   1   7   56.45    0.86 
   2   1   7   57.05    0.88 
  -3  -1  -7  109.71    1.46 
  -3  -1  -7  108.28    1.47 
   3   1   7  104.87    1.47 
   3   1   7  107.58    1.46 
  -4  -1  -7   48.04    0.82 
  -4  -1  -7   48.40    0.78 
   4   1   7   46.13    0.82 
   4   1   7   47.87    0.83 
  -5  -1  -7    4.78    0.23 
  -5  -1  -7    4.98    0.21 
   5   1   7    4.38    0.23 
   5   1   7    4.43    0.23 
  -6  -1  -7    5.53    0.27 
   6   1   7    5.71    0.28 
   6   1   7    5.24    0.27 
  -7  -1  -7   19.23    0.55 
   7   1   7   16.85    0.53 
   7   1   7   18.36    0.54 
  10  -2  -7    3.39    0.25 
 -10   2   7    3.68    0.26 
 -10   2   7    3.74    0.25 
   9  -2  -7    8.09    0.35 
  -9   2   7    7.83    0.35 
  -9   2   7    8.10    0.34 
   8  -2  -7    8.72    0.34 
  -8   2   7    9.15    0.34 
  -8   2   7    8.69    0.35 
   7  -2  -7    8.54    0.32 
  -7   2   7    8.22    0.30 
  -7   2   7    8.05    0.31 
   6  -2  -7   20.65    0.50 
  -6   2   7   21.97    0.49 
  -6   2   7   22.39    0.53 
   5  -2  -7   13.84    0.38 
   5  -2  -7   14.59    0.32 
  -5   2   7   13.45    0.35 
  -5   2   7   14.29    0.38 
   4  -2  -7  199.65    2.49 
   4  -2  -7  201.69    2.41 
  -4   2   7  197.30    2.46 
  -4   2   7  198.67    2.42 
   3  -2  -7   87.74    1.17 
   3  -2  -7   86.98    1.21 
  -3   2   7   84.26    1.14 
  -3   2   7   82.57    1.17 
   2  -2  -7    0.74    0.07 
   2  -2  -7    0.79    0.08 
  -2   2   7    0.67    0.08 
  -2   2   7    0.69    0.07 
   1  -2  -7    6.78    0.15 
   1  -2  -7    6.93    0.22 
   1  -2  -7    6.75    0.20 
  -1   2   7    6.15    0.21 
  -1   2   7    6.27    0.20 
   0  -2  -7   44.88    0.72 
   0  -2  -7   45.24    0.63 
   0  -2  -7   45.25    0.64 
   0   2   7   43.11    0.70 
   0   2   7   44.27    0.70 
  -1  -2  -7   35.75    0.63 
  -1  -2  -7   36.72    0.57 
  -1  -2  -7   36.22    0.51 
   1   2   7   35.34    0.61 
   1   2   7   34.58    0.61 
  -2  -2  -7    7.69    0.25 
  -2  -2  -7    7.44    0.23 
   2   2   7    7.34    0.25 
   2   2   7    7.57    0.25 
  -3  -2  -7   28.61    0.56 
  -3  -2  -7   29.35    0.56 
   3   2   7   28.46    0.57 
   3   2   7   27.54    0.57 
  -4  -2  -7   22.89    0.51 
  -4  -2  -7   23.43    0.50 
   4   2   7   21.68    0.50 
   4   2   7   21.34    0.51 
  -5  -2  -7   26.16    0.59 
  -5  -2  -7   26.13    0.55 
   5   2   7   25.35    0.58 
   5   2   7   25.33    0.60 
  -6  -2  -7   11.50    0.40 
   6   2   7   11.44    0.41 
   6   2   7   11.43    0.39 
  -7  -2  -7   24.60    0.65 
   7   2   7   22.65    0.63 
   7   2   7   23.68    0.62 
  10  -3  -7    2.38    0.21 
 -10   3   7    2.48    0.23 
 -10   3   7    2.71    0.23 
   9  -3  -7    3.44    0.24 
  -9   3   7    3.61    0.24 
  -9   3   7    3.90    0.24 
   8  -3  -7    3.39    0.22 
  -8   3   7    3.25    0.21 
  -8   3   7    3.67    0.23 
   7  -3  -7    5.83    0.27 
  -7   3   7    5.86    0.26 
  -7   3   7    5.71    0.27 
   6  -3  -7   14.74    0.42 
  -6   3   7   15.47    0.41 
  -6   3   7   15.48    0.42 
   5  -3  -7    1.31    0.10 
   5  -3  -7    1.23    0.12 
  -5   3   7    1.13    0.11 
  -5   3   7    1.12    0.11 
   4  -3  -7   20.10    0.46 
   4  -3  -7   19.67    0.40 
  -4   3   7   20.36    0.45 
  -4   3   7   20.04    0.44 
   3  -3  -7    6.96    0.24 
   3  -3  -7    6.82    0.22 
  -3   3   7    6.58    0.23 
  -3   3   7    7.08    0.23 
   2  -3  -7   19.67    0.41 
   2  -3  -7   18.95    0.40 
  -2   3   7   18.28    0.39 
  -2   3   7   18.81    0.41 
   1  -3  -7   15.52    0.27 
   1  -3  -7   16.10    0.37 
   1  -3  -7   16.40    0.34 
  -1   3   7   15.61    0.35 
  -1   3   7   14.72    0.36 
   0  -3  -7    4.60    0.19 
   0  -3  -7    4.91    0.16 
   0  -3  -7    4.85    0.15 
   0   3   7    4.52    0.19 
   0   3   7    4.72    0.18 
  -1  -3  -7   24.11    0.44 
  -1  -3  -7   21.95    0.47 
   1   3   7   23.94    0.47 
   1   3   7   22.42    0.49 
  -2  -3  -7    9.36    0.29 
   2   3   7   11.50    0.32 
  -3  -3  -7    3.93    0.20 
  -3  -3  -7    3.88    0.19 
   3   3   7    3.78    0.20 
   3   3   7    3.90    0.19 
  -4  -3  -7    1.44    0.13 
  -4  -3  -7    1.33    0.13 
   4   3   7    1.46    0.13 
   4   3   7    1.07    0.13 
  -5  -3  -7    8.27    0.30 
  -5  -3  -7    7.61    0.31 
   5   3   7    7.79    0.30 
   5   3   7    8.11    0.34 
  -6  -3  -7    8.31    0.35 
   6   3   7    7.96    0.35 
  -7  -3  -7   12.71    0.46 
   7   3   7   12.31    0.47 
   9  -4  -7    3.65    0.25 
  -9   4   7    3.95    0.25 
  -9   4   7    4.07    0.26 
   8  -4  -7   15.20    0.48 
  -8   4   7   14.28    0.45 
  -8   4   7   14.76    0.46 
   7  -4  -7    5.72    0.28 
  -7   4   7    5.39    0.26 
  -7   4   7    5.88    0.27 
   6  -4  -7   24.19    0.58 
  -6   4   7   23.50    0.54 
  -6   4   7   23.49    0.55 
   5  -4  -7    5.01    0.18 
   5  -4  -7    5.21    0.24 
  -5   4   7    4.98    0.22 
  -5   4   7    4.87    0.22 
   4  -4  -7    1.65    0.11 
   4  -4  -7    1.95    0.14 
  -4   4   7    2.09    0.14 
  -4   4   7    2.19    0.14 
   3  -4  -7    2.80    0.16 
   3  -4  -7    2.98    0.15 
  -3   4   7    2.60    0.15 
  -3   4   7    2.68    0.14 
   2  -4  -7    0.45    0.08 
   2  -4  -7    0.36    0.07 
  -2   4   7    0.31    0.07 
  -2   4   7    0.46    0.09 
   1  -4  -7   10.96    0.31 
   1  -4  -7   11.20    0.28 
   1  -4  -7   10.82    0.23 
  -1   4   7   10.67    0.32 
  -1   4   7   10.25    0.27 
   0   4   7    1.00    0.09 
   0   4   7    1.10    0.11 
  -1  -4  -7   14.19    0.33 
  -1  -4  -7   14.06    0.37 
   1   4   7   13.61    0.34 
   1   4   7   13.97    0.39 
  -2  -4  -7   20.62    0.45 
  -2  -4  -7   20.87    0.49 
   2   4   7   19.86    0.49 
   2   4   7   19.49    0.43 
  -3  -4  -7    0.22    0.07 
  -3  -4  -7    0.08    0.05 
   3   4   7    0.21    0.07 
   3   4   7    0.10    0.06 
  -4  -4  -7    5.77    0.26 
  -4  -4  -7    6.18    0.26 
   4   4   7    5.49    0.27 
  -5  -4  -7    5.81    0.27 
  -5  -4  -7    5.73    0.28 
   5   4   7    4.71    0.27 
  -6  -4  -7    8.99    0.37 
   6   4   7    8.51    0.38 
   9  -5  -7    1.47    0.18 
  -9   5   7    1.58    0.18 
  -9   5   7    1.67    0.18 
   8  -5  -7    9.19    0.38 
  -8   5   7   10.00    0.39 
  -8   5   7    9.67    0.37 
   7  -5  -7    4.27    0.25 
  -7   5   7    4.32    0.24 
  -7   5   7    4.24    0.23 
   6  -5  -7   17.14    0.48 
  -6   5   7   17.72    0.48 
  -6   5   7   17.66    0.46 
   5  -5  -7   89.32    1.36 
  -5   5   7   88.70    1.35 
  -5   5   7   89.64    1.32 
   4  -5  -7    0.13    0.05 
   4  -5  -7    0.17    0.07 
  -4   5   7    0.23    0.07 
  -4   5   7    0.17    0.07 
   3  -5  -7   61.31    0.97 
   3  -5  -7   60.72    0.93 
  -3   5   7   58.38    0.96 
  -3   5   7   58.94    0.90 
   2  -5  -7    4.02    0.19 
   2  -5  -7    3.74    0.18 
  -2   5   7    4.40    0.18 
  -2   5   7    4.46    0.21 
   1  -5  -7   56.62    0.91 
   1  -5  -7   55.40    0.84 
  -1   5   7   53.19    0.81 
  -1   5   7   53.97    0.91 
   0  -5  -7   12.93    0.30 
   0  -5  -7   13.58    0.37 
   0   5   7   12.32    0.37 
   0   5   7   12.85    0.32 
  -1  -5  -7   68.11    0.99 
  -1  -5  -7   66.71    1.07 
   1   5   7   63.35    1.05 
  -2  -5  -7   33.36    0.63 
  -2  -5  -7   32.96    0.67 
   2   5   7   32.07    0.69 
  -3  -5  -7    8.67    0.32 
  -3  -5  -7    8.90    0.31 
   3   5   7    8.25    0.33 
  -4  -5  -7    3.40    0.21 
  -4  -5  -7    3.41    0.21 
   4   5   7    3.13    0.22 
  -5  -5  -7    4.88    0.26 
  -5  -5  -7    5.00    0.26 
   5   5   7    5.26    0.29 
  -6  -5  -7    6.11    0.31 
  -6  -5  -7    6.64    0.31 
   6   5   7    6.12    0.33 
   9  -6  -7    1.93    0.20 
  -9   6   7    1.74    0.19 
  -9   6   7    2.10    0.20 
   8  -6  -7    2.62    0.21 
  -8   6   7    2.92    0.22 
  -8   6   7    2.96    0.21 
   7  -6  -7    1.73    0.17 
  -7   6   7    1.80    0.16 
  -7   6   7    1.38    0.15 
   6  -6  -7    8.54    0.34 
  -6   6   7    8.74    0.32 
  -6   6   7    8.89    0.34 
   5  -6  -7    2.40    0.18 
  -5   6   7    2.38    0.16 
  -5   6   7    2.61    0.18 
   4  -6  -7    2.38    0.17 
   4  -6  -7    2.58    0.15 
  -4   6   7    2.40    0.15 
  -4   6   7    2.37    0.17 
   3  -6  -7    1.22    0.11 
   3  -6  -7    1.28    0.12 
  -3   6   7    1.09    0.10 
  -3   6   7    1.05    0.12 
   2  -6  -7   28.82    0.57 
   2  -6  -7   28.40    0.58 
  -2   6   7   26.55    0.60 
  -2   6   7   27.79    0.52 
   1  -6  -7    0.70    0.12 
   1  -6  -7    0.76    0.09 
  -1   6   7    0.58    0.11 
   0  -6  -7   16.79    0.37 
   0  -6  -7   16.43    0.44 
   0   6   7   15.46    0.45 
  -1  -6  -7    4.48    0.20 
  -1  -6  -7    4.41    0.23 
   1   6   7    4.25    0.23 
  -2  -6  -7    6.54    0.28 
  -2  -6  -7    6.13    0.25 
   2   6   7    6.66    0.31 
  -3  -6  -7   15.81    0.47 
  -3  -6  -7   17.32    0.46 
   3   6   7   14.64    0.48 
  -4  -6  -7    4.57    0.25 
  -4  -6  -7    4.22    0.25 
   4   6   7    3.57    0.25 
  -5  -6  -7   19.44    0.55 
  -5  -6  -7   18.68    0.54 
   5   6   7   18.25    0.58 
   8  -7  -7    4.65    0.29 
  -8   7   7    4.16    0.27 
  -8   7   7    4.95    0.27 
   7  -7  -7    1.07    0.18 
  -7   7   7    0.94    0.13 
  -7   7   7    0.97    0.16 
   6  -7  -7   18.45    0.54 
  -6   7   7   17.63    0.53 
  -6   7   7   18.34    0.48 
   5  -7  -7    1.01    0.17 
  -5   7   7    0.90    0.11 
  -5   7   7    1.06    0.14 
   4  -7  -7   11.85    0.34 
   4  -7  -7   12.37    0.39 
  -4   7   7   11.28    0.39 
   3  -7  -7   39.62    0.73 
   3  -7  -7   39.52    0.76 
  -3   7   7   39.26    0.80 
   2  -7  -7   10.43    0.33 
   2  -7  -7   10.73    0.34 
  -2   7   7   11.58    0.39 
   1  -7  -7   16.04    0.48 
   1  -7  -7   15.65    0.43 
  -1   7   7   14.63    0.45 
   0  -7  -7    1.00    0.13 
   0   7   7    1.07    0.13 
  -1  -7  -7    5.62    0.27 
  -1  -7  -7    5.61    0.23 
   1   7   7    5.10    0.27 
  -2  -7  -7    5.31    0.27 
  -2  -7  -7    5.03    0.24 
   2   7   7    4.91    0.27 
  -3  -7  -7    3.45    0.21 
  -3  -7  -7    3.17    0.22 
   3   7   7    3.15    0.23 
  -4  -7  -7    7.05    0.33 
  -4  -7  -7    6.44    0.31 
   4   7   7    6.09    0.33 
  -5  -7  -7    5.41    0.30 
  -5  -7  -7    4.67    0.28 
   8  -8  -7    3.39    0.26 
  -8   8   7    3.74    0.27 
   7  -8  -7    1.27    0.17 
  -7   8   7    1.55    0.18 
   6  -8  -7    5.60    0.30 
  -6   8   7    6.09    0.31 
   5  -8  -7    7.71    0.33 
  -5   8   7    7.98    0.35 
   4  -8  -7    0.94    0.13 
  -4   8   7    0.94    0.14 
   3  -8  -7   41.33    0.78 
   3  -8  -7   42.26    0.81 
  -3   8   7   41.75    0.86 
   2  -8  -7   11.51    0.37 
   2  -8  -7   11.02    0.36 
  -2   8   7   10.68    0.40 
   1  -8  -7   14.25    0.43 
  -1   8   7   13.40    0.45 
   0  -8  -7    1.44    0.15 
   0   8   7    1.78    0.18 
  -1  -8  -7   13.82    0.45 
   1   8   7   13.22    0.47 
  -2  -8  -7    6.89    0.33 
  -2  -8  -7    7.43    0.30 
   2   8   7    7.34    0.35 
  -3  -8  -7    0.49    0.12 
  -3  -8  -7    0.44    0.12 
   3   8   7    0.38    0.11 
  -4  -8  -7    4.46    0.27 
  -4  -8  -7    4.14    0.27 
   4   8   7    3.80    0.28 
   7  -9  -7    9.32    0.41 
  -7   9   7    9.26    0.41 
   6  -9  -7   22.06    0.63 
  -6   9   7   21.34    0.62 
   5  -9  -7    0.01    0.06 
  -5   9   7    0.06    0.07 
   4  -9  -7    7.21    0.33 
  -4   9   7    6.70    0.33 
   3  -9  -7    9.58    0.35 
   3  -9  -7    9.45    0.36 
  -3   9   7    9.69    0.39 
   2  -9  -7    0.12    0.08 
  -2   9   7    0.03    0.07 
   1  -9  -7    6.63    0.31 
  -1   9   7    6.29    0.32 
   0  -9  -7    4.12    0.25 
   0   9   7    4.05    0.27 
  -1  -9  -7    9.91    0.40 
   1   9   7    8.71    0.39 
  -2  -9  -7    4.21    0.27 
   2   9   7    3.92    0.28 
   5 -10  -7    2.31    0.21 
  -5  10   7    2.58    0.23 
   4 -10  -7    3.69    0.25 
  -4  10   7    4.45    0.29 
   3 -10  -7   16.48    0.48 
   3 -10  -7   16.83    0.51 
  -3  10   7   16.23    0.54 
   2 -10  -7    0.36    0.11 
  -2  10   7    0.38    0.12 
   1 -10  -7    1.28    0.16 
  -1  10   7    1.34    0.18 
   0 -10  -7    2.57    0.22 
   0  10   7    2.89    0.24 
  -1 -10  -7    0.10    0.09 
   1  10   7    0.14    0.10 
   2  12  -8    0.00    0.08 
  -2 -12   8    0.08    0.09 
  -2 -12   8   -0.01    0.08 
   1  12  -8    0.58    0.14 
  -1 -12   8    0.42    0.12 
  -1 -12   8    0.32    0.10 
   0  12  -8    1.41    0.17 
   0 -12   8    0.92    0.17 
   0 -12   8    1.68    0.18 
  -1  12  -8    5.17    0.29 
   1 -12   8    4.71    0.30 
  -2  12  -8    2.53    0.22 
   2 -12   8    2.98    0.25 
  -3  12  -8    1.27    0.17 
   3 -12   8    1.19    0.19 
   4  11  -8    3.71    0.25 
  -4 -11   8    4.18    0.28 
  -4 -11   8    4.26    0.28 
   3  11  -8    1.47    0.17 
  -3 -11   8    1.92    0.20 
  -3 -11   8    1.79    0.19 
   2  11  -8    0.15    0.08 
  -2 -11   8    0.27    0.11 
  -2 -11   8    0.24    0.10 
   1  11  -8    2.33    0.20 
  -1 -11   8    2.56    0.21 
  -1 -11   8    2.52    0.21 
   0  11  -8    1.07    0.15 
   0 -11   8    1.45    0.17 
   0 -11   8    1.13    0.15 
  -1  11  -8    2.24    0.18 
  -1  11  -8    2.41    0.19 
   1 -11   8    2.15    0.20 
  -2  11  -8    5.69    0.30 
   2 -11   8    5.62    0.31 
  -3  11  -8    0.83    0.15 
   3 -11   8    1.01    0.18 
  -4  11  -8   39.10    0.87 
   4 -11   8   36.87    0.86 
   5  10  -8    3.53    0.24 
  -5 -10   8    3.78    0.26 
  -5 -10   8    3.54    0.25 
   4  10  -8   15.34    0.48 
  -4 -10   8   17.17    0.53 
  -4 -10   8   16.48    0.53 
   3  10  -8    1.67    0.17 
  -3 -10   8    1.13    0.16 
  -3 -10   8    1.18    0.16 
   2  10  -8   25.81    0.62 
  -2 -10   8   25.32    0.65 
  -2 -10   8   25.82    0.64 
   1  10  -8    1.31    0.15 
  -1 -10   8    1.39    0.15 
  -1 -10   8    1.34    0.15 
   0  10  -8   10.27    0.37 
   0 -10   8   10.57    0.36 
   0 -10   8    9.12    0.37 
  -1  10  -8    3.62    0.22 
  -1  10  -8    3.73    0.21 
   1 -10   8    3.71    0.24 
  -2  10  -8    0.33    0.10 
   2 -10   8    0.31    0.11 
  -3  10  -8    9.12    0.36 
   3 -10   8    8.57    0.37 
  -4  10  -8    1.73    0.18 
   4 -10   8    1.41    0.17 
  -5  10  -8    0.51    0.14 
   5 -10   8    0.51    0.13 
   6   9  -8    7.73    0.33 
  -6  -9   8    7.78    0.36 
  -6  -9   8    7.82    0.35 
   5   9  -8    1.41    0.15 
  -5  -9   8    1.31    0.16 
  -5  -9   8    1.03    0.15 
   4   9  -8   15.93    0.46 
  -4  -9   8   16.22    0.50 
  -4  -9   8   15.83    0.50 
   3   9  -8    7.47    0.31 
  -3  -9   8    7.52    0.33 
  -3  -9   8    7.32    0.32 
   2   9  -8   20.87    0.52 
  -2  -9   8   19.22    0.53 
  -2  -9   8   19.39    0.52 
   1   9  -8   16.79    0.46 
  -1  -9   8   16.38    0.46 
  -1  -9   8   17.45    0.49 
   0   9  -8    2.73    0.18 
   0  -9   8    2.78    0.18 
   0  -9   8    2.54    0.19 
  -1   9  -8   44.66    0.81 
  -1   9  -8   45.08    0.85 
   1  -9   8   41.98    0.85 
  -2   9  -8   12.55    0.40 
  -2   9  -8   12.76    0.36 
   2  -9   8   11.91    0.41 
  -3   9  -8   11.70    0.40 
   3  -9   8   10.84    0.39 
  -4   9  -8    2.34    0.19 
   4  -9   8    1.99    0.19 
  -5   9  -8    7.53    0.34 
   5  -9   8    6.98    0.32 
   5  -9   8    6.80    0.31 
  -6   9  -8   18.49    0.57 
   6  -9   8   18.44    0.56 
  -7  -8   8    1.81    0.19 
   6   8  -8   14.58    0.44 
  -6  -8   8   15.65    0.49 
  -6  -8   8   14.80    0.49 
   5   8  -8    2.41    0.18 
  -5  -8   8    2.50    0.20 
  -5  -8   8    2.33    0.19 
   4   8  -8    0.89    0.12 
  -4  -8   8    0.52    0.11 
  -4  -8   8    0.98    0.14 
   3   8  -8   10.11    0.34 
  -3  -8   8    9.44    0.35 
  -3  -8   8    9.89    0.35 
   2   8  -8    9.45    0.32 
  -2  -8   8    9.82    0.34 
  -2  -8   8    9.52    0.35 
   1   8  -8   32.06    0.64 
  -1  -8   8   32.20    0.69 
  -1  -8   8   33.78    0.67 
   0   8  -8    2.48    0.16 
   0   8  -8    2.11    0.15 
   0  -8   8    2.71    0.19 
  -1   8  -8   22.65    0.53 
  -1   8  -8   21.77    0.49 
   1  -8   8   22.36    0.55 
   1  -8   8   22.88    0.67 
  -2   8  -8    3.11    0.17 
  -2   8  -8    2.79    0.18 
   2  -8   8    2.67    0.19 
   2  -8   8    2.70    0.16 
  -3   8  -8   10.74    0.37 
   3  -8   8    9.97    0.36 
   3  -8   8   10.29    0.34 
  -4   8  -8    4.08    0.24 
   4  -8   8    3.86    0.22 
   4  -8   8    4.34    0.24 
  -5   8  -8    0.83    0.15 
   5  -8   8    0.58    0.13 
   5  -8   8    0.67    0.13 
  -6   8  -8   16.69    0.52 
   6  -8   8   17.16    0.53 
  -7   8  -8    9.75    0.50 
  -8  -7   8   15.14    0.49 
  -7  -7   8   19.58    0.55 
  -7  -7   8   20.36    0.57 
   6   7  -8   15.98    0.44 
  -6  -7   8   16.81    0.50 
  -6  -7   8   17.30    0.50 
   5   7  -8   28.58    0.60 
  -5  -7   8   29.35    0.66 
  -5  -7   8   29.50    0.67 
   4   7  -8   68.34    1.07 
  -4  -7   8   67.83    1.13 
  -4  -7   8   66.71    1.13 
   3   7  -8   18.98    0.45 
  -3  -7   8   18.73    0.49 
  -3  -7   8   18.04    0.47 
   2   7  -8   19.56    0.45 
  -2  -7   8   18.51    0.48 
  -2  -7   8   19.21    0.47 
   1   7  -8    2.23    0.15 
   1   7  -8    2.27    0.15 
  -1  -7   8    2.35    0.16 
  -1  -7   8    2.39    0.13 
   0   7  -8    0.83    0.10 
   0   7  -8    0.91    0.10 
   0  -7   8    0.78    0.11 
   0  -7   8    0.86    0.09 
  -1   7  -8    0.10    0.05 
  -1   7  -8    0.30    0.08 
   1  -7   8    0.15    0.05 
   1  -7   8    0.32    0.08 
  -2   7  -8   35.36    0.69 
  -2   7  -8   35.34    0.63 
   2  -7   8   31.80    0.63 
   2  -7   8   33.60    0.67 
  -3   7  -8    8.05    0.30 
   3  -7   8    7.78    0.29 
   3  -7   8    7.65    0.29 
  -4   7  -8    8.01    0.32 
   4  -7   8    7.58    0.31 
   4  -7   8    8.47    0.31 
  -5   7  -8    0.08    0.07 
   5  -7   8    0.06    0.07 
  -6   7  -8    1.68    0.17 
   6  -7   8    1.83    0.19 
  -7   7  -8    1.46    0.17 
   7  -7   8    1.92    0.19 
  -7  -6   8   49.70    0.93 
  -7  -6   8   49.48    0.95 
   6   6  -8   47.77    0.82 
  -6  -6   8   49.17    0.91 
  -6  -6   8   50.77    0.94 
   5   6  -8   21.58    0.48 
  -5  -6   8   21.56    0.54 
  -5  -6   8   21.73    0.53 
   4   6  -8   95.87    1.34 
  -4  -6   8   97.94    1.32 
  -4  -6   8   93.16    1.41 
  -4  -6   8   95.11    1.43 
   3   6  -8    0.51    0.09 
  -3  -6   8    0.41    0.10 
  -3  -6   8    0.48    0.10 
  -3  -6   8    0.54    0.08 
   2   6  -8  135.70    1.76 
   2   6  -8  135.40    1.81 
  -2  -6   8  129.15    1.66 
  -2  -6   8  129.08    1.78 
   1   6  -8    3.85    0.18 
   1   6  -8    4.40    0.20 
  -1  -6   8    4.80    0.19 
  -1  -6   8    4.32    0.21 
   0   6  -8  180.33    2.26 
   0   6  -8  179.19    2.26 
   0  -6   8  172.85    2.17 
   0  -6   8  173.47    2.24 
  -1   6  -8   14.68    0.36 
  -1   6  -8   14.79    0.37 
   1  -6   8   13.74    0.36 
   1  -6   8   13.46    0.37 
  -2   6  -8   16.57    0.38 
  -2   6  -8   15.62    0.41 
   2  -6   8   14.92    0.40 
   2  -6   8   15.22    0.39 
  -3   6  -8    3.01    0.15 
  -3   6  -8    2.87    0.18 
   3  -6   8    2.93    0.17 
   3  -6   8    2.84    0.18 
  -4   6  -8   10.23    0.35 
   4  -6   8    9.26    0.31 
   4  -6   8   10.09    0.35 
  -5   6  -8    0.29    0.09 
   5  -6   8    0.24    0.09 
  -6   6  -8    7.32    0.33 
   6  -6   8    7.22    0.34 
  -7   6  -8    0.46    0.12 
   7  -6   8    0.54    0.13 
  -8  -5   8    8.04    0.34 
   7   5  -8    3.32    0.20 
  -7  -5   8    3.65    0.23 
   6   5  -8    8.61    0.31 
  -6  -5   8    7.76    0.32 
  -6  -5   8    8.80    0.29 
   5   5  -8    4.12    0.18 
   5   5  -8    3.95    0.20 
  -5  -5   8    4.21    0.19 
  -5  -5   8    4.12    0.22 
   4   5  -8    9.44    0.31 
   4   5  -8    9.72    0.27 
  -4  -5   8   10.12    0.29 
  -4  -5   8    9.32    0.32 
   3   5  -8   30.52    0.54 
   3   5  -8   29.32    0.58 
  -3  -5   8   30.57    0.56 
  -3  -5   8   29.76    0.61 
   2   5  -8    5.39    0.22 
   2   5  -8    5.73    0.20 
  -2  -5   8    6.19    0.21 
  -2  -5   8    5.87    0.24 
   1   5  -8   16.92    0.37 
   1   5  -8   16.92    0.39 
  -1  -5   8   16.36    0.37 
  -1  -5   8   16.96    0.41 
   0   5  -8    0.59    0.08 
   0   5  -8    0.48    0.08 
   0  -5   8    0.73    0.11 
   0  -5   8    0.59    0.08 
  -1   5  -8   48.86    0.78 
  -1   5  -8   48.33    0.78 
   1  -5   8   46.21    0.77 
   1  -5   8   46.39    0.78 
  -2   5  -8   46.11    0.78 
  -2   5  -8   46.53    0.74 
   2  -5   8   40.69    0.70 
   2  -5   8   41.55    0.74 
  -3   5  -8    0.66    0.10 
  -3   5  -8    0.68    0.08 
   3  -5   8    0.59    0.11 
   3  -5   8    0.69    0.09 
  -4   5  -8   21.12    0.51 
   4  -5   8   19.84    0.51 
  -5   5  -8    1.71    0.16 
   5  -5   8    1.63    0.16 
  -6   5  -8    2.53    0.20 
   6  -5   8    2.87    0.22 
  -7   5  -8    3.24    0.23 
   7  -5   8    3.26    0.25 
  -8  -4   8    1.71    0.16 
  -8  -4   8    1.93    0.18 
   7   4  -8    2.00    0.15 
  -7  -4   8    1.98    0.17 
  -7  -4   8    1.89    0.15 
   6   4  -8    4.98    0.23 
  -6  -4   8    5.39    0.25 
  -6  -4   8    5.16    0.23 
   5   4  -8    0.72    0.10 
   5   4  -8    0.68    0.08 
  -5  -4   8    0.65    0.12 
  -5  -4   8    0.94    0.10 
   4   4  -8    1.77    0.13 
   4   4  -8    1.97    0.11 
  -4  -4   8    1.59    0.14 
  -4  -4   8    1.86    0.13 
   3   4  -8   13.07    0.29 
   3   4  -8   12.53    0.33 
  -3  -4   8   12.61    0.35 
  -3  -4   8   12.82    0.33 
   2   4  -8    4.07    0.18 
   2   4  -8    4.10    0.15 
  -2  -4   8    4.69    0.20 
  -2  -4   8    4.41    0.18 
   1   4  -8   16.26    0.37 
   1   4  -8   16.06    0.34 
  -1  -4   8   15.74    0.38 
  -1  -4   8   16.02    0.36 
   0   4  -8    5.21    0.20 
   0   4  -8    5.03    0.18 
   0  -4   8    4.62    0.19 
   0  -4   8    4.92    0.19 
  -1   4  -8   47.43    0.75 
  -1   4  -8   46.62    0.74 
   1  -4   8   43.88    0.72 
   1  -4   8   46.02    0.76 
  -2   4  -8   79.41    1.15 
  -2   4  -8   80.96    1.12 
   2  -4   8   75.36    1.13 
   2  -4   8   74.90    1.06 
  -3   4  -8    0.61    0.09 
  -3   4  -8    0.65    0.08 
   3  -4   8    0.60    0.08 
   3  -4   8    0.54    0.10 
  -4   4  -8   20.96    0.50 
   4  -4   8   19.68    0.50 
  -5   4  -8    0.64    0.11 
   5  -4   8    0.43    0.10 
  -6   4  -8    8.43    0.34 
   6  -4   8    7.49    0.34 
  -7   4  -8    4.14    0.26 
   7  -4   8    3.32    0.25 
   9   3  -8   13.16    0.44 
  -9  -3   8   13.71    0.45 
   8   3  -8   12.10    0.40 
  -8  -3   8   12.79    0.42 
   7   3  -8    4.71    0.21 
  -7  -3   8    4.87    0.25 
  -7  -3   8    5.32    0.25 
   6   3  -8    4.16    0.19 
  -6  -3   8    4.47    0.22 
  -6  -3   8    4.42    0.23 
   5   3  -8    0.45    0.09 
  -5  -3   8    0.50    0.10 
  -5  -3   8    0.54    0.09 
   4   3  -8    7.33    0.19 
   4   3  -8    6.87    0.24 
  -4  -3   8    6.98    0.26 
  -4  -3   8    6.99    0.25 
   3   3  -8   14.55    0.29 
   3   3  -8   14.51    0.35 
  -3  -3   8   14.12    0.37 
  -3  -3   8   14.56    0.35 
   2   3  -8   31.14    0.49 
   2   3  -8   31.73    0.57 
  -2  -3   8   32.47    0.59 
  -2  -3   8   32.93    0.60 
   1   3  -8   22.16    0.45 
   1   3  -8   22.25    0.39 
  -1  -3   8   21.14    0.44 
  -1  -3   8   21.70    0.45 
   0   3  -8    2.30    0.13 
   0   3  -8    2.28    0.11 
   0  -3   8    2.20    0.12 
   0  -3   8    2.26    0.13 
  -1   3  -8   89.54    1.23 
  -1   3  -8   89.99    1.21 
   1  -3   8   84.68    1.15 
   1  -3   8   85.71    1.22 
  -2   3  -8   59.34    0.88 
  -2   3  -8   61.32    0.92 
   2  -3   8   56.42    0.91 
   2  -3   8   57.62    0.78 
   2  -3   8   55.44    0.82 
  -3   3  -8    1.76    0.13 
  -3   3  -8    1.66    0.11 
   3  -3   8    1.47    0.10 
   3  -3   8    1.56    0.13 
   3  -3   8    1.73    0.16 
  -4   3  -8   18.32    0.46 
   4  -3   8   16.59    0.45 
  -5   3  -8    1.96    0.14 
  -5   3  -8    1.94    0.16 
   5  -3   8    1.81    0.16 
  -6   3  -8   17.16    0.50 
  -6   3  -8   16.88    0.45 
   6  -3   8   15.36    0.49 
  -7   3  -8    2.71    0.21 
   7  -3   8    2.71    0.22 
  -8   3  -8    9.19    0.49 
   8  -3   8    8.69    0.37 
   8  -3   8    7.42    0.43 
   9   2  -8   26.32    0.65 
  -9  -2   8   27.90    0.68 
   8   2  -8   10.05    0.36 
  -8  -2   8   10.29    0.37 
  -8  -2   8   10.65    0.38 
   7   2  -8    8.62    0.29 
   7   2  -8    8.51    0.32 
  -7  -2   8    8.86    0.32 
  -7  -2   8    8.40    0.28 
   6   2  -8    5.62    0.22 
  -6  -2   8    5.96    0.25 
  -6  -2   8    5.75    0.26 
  -6  -2   8    6.11    0.21 
   5   2  -8    1.58    0.12 
  -5  -2   8    1.93    0.11 
  -5  -2   8    1.87    0.14 
  -5  -2   8    1.86    0.14 
   4   2  -8   24.34    0.48 
  -4  -2   8   24.20    0.41 
  -4  -2   8   25.15    0.53 
  -4  -2   8   24.97    0.51 
   3   2  -8   16.60    0.28 
   3   2  -8   17.28    0.38 
  -3  -2   8   16.14    0.28 
  -3  -2   8   16.59    0.39 
  -3  -2   8   16.43    0.39 
   2   2  -8    6.08    0.21 
   2   2  -8    5.70    0.15 
  -2  -2   8    5.73    0.21 
  -2  -2   8    5.60    0.21 
  -2  -2   8    5.96    0.13 
   1   2  -8   12.17    0.25 
   1   2  -8   11.45    0.30 
  -1  -2   8   10.64    0.29 
  -1  -2   8   11.15    0.28 
   0   2  -8    2.65    0.14 
   0   2  -8    2.55    0.11 
   0  -2   8    3.26    0.14 
   0  -2   8    2.82    0.09 
  -1   2  -8   29.18    0.52 
  -1   2  -8   29.25    0.51 
   1  -2   8   27.82    0.43 
   1  -2   8   27.16    0.47 
   1  -2   8   27.22    0.54 
  -2   2  -8   40.61    0.67 
  -2   2  -8   41.72    0.68 
   2  -2   8   36.35    0.68 
   2  -2   8   38.85    0.59 
   2  -2   8   37.80    0.58 
  -3   2  -8    0.69    0.08 
  -3   2  -8    1.00    0.10 
   3  -2   8    0.88    0.08 
   3  -2   8    0.77    0.10 
  -4   2  -8   64.53    1.03 
  -4   2  -8   65.06    0.95 
   4  -2   8   59.50    1.01 
   4  -2   8   59.60    0.92 
  -5   2  -8   11.07    0.37 
   5  -2   8   10.46    0.33 
   5  -2   8   10.78    0.38 
  -6   2  -8   16.21    0.48 
   6  -2   8   15.20    0.44 
   6  -2   8   14.59    0.48 
  -7   2  -8    3.53    0.24 
   7  -2   8    3.26    0.24 
   7  -2   8    3.55    0.23 
 -10  -1   8    0.23    0.11 
 -10  -1   8    0.05    0.10 
   9   1  -8   19.86    0.55 
  -9  -1   8   19.73    0.53 
  -9  -1   8   18.56    0.55 
   8   1  -8    3.26    0.21 
  -8  -1   8    3.31    0.21 
  -8  -1   8    3.30    0.20 
   7   1  -8    8.33    0.31 
  -7  -1   8    8.62    0.29 
  -7  -1   8    8.62    0.32 
   6   1  -8    1.14    0.10 
  -6  -1   8    0.89    0.09 
  -6  -1   8    0.89    0.11 
   5   1  -8    5.73    0.21 
  -5  -1   8    5.25    0.23 
  -5  -1   8    5.41    0.23 
  -5  -1   8    5.71    0.19 
   4   1  -8   42.13    0.69 
  -4  -1   8   42.37    0.74 
  -4  -1   8   42.81    0.64 
  -4  -1   8   41.21    0.73 
   3   1  -8   38.33    0.64 
  -3  -1   8   37.69    0.67 
  -3  -1   8   37.86    0.67 
  -3  -1   8   38.96    0.56 
   2   1  -8   18.65    0.39 
   2   1  -8   18.38    0.29 
  -2  -1   8   18.56    0.41 
  -2  -1   8   19.27    0.41 
  -2  -1   8   18.24    0.31 
   1   1  -8    1.16    0.09 
   1   1  -8    1.10    0.06 
  -1  -1   8    1.10    0.06 
  -1  -1   8    1.15    0.10 
  -1  -1   8    1.08    0.09 
   0   1  -8    5.11    0.19 
   0   1  -8    4.84    0.15 
   0  -1   8    4.53    0.19 
   0  -1   8    4.62    0.14 
   0  -1   8    4.81    0.17 
  -1   1  -8    1.59    0.11 
  -1   1  -8    1.49    0.10 
   1  -1   8    1.57    0.12 
   1  -1   8    1.61    0.09 
   1  -1   8    1.68    0.09 
  -2   1  -8   34.38    0.60 
  -2   1  -8   35.60    0.61 
   2  -1   8   33.89    0.56 
   2  -1   8   33.18    0.63 
  -3   1  -8   22.05    0.45 
  -3   1  -8   21.87    0.47 
   3  -1   8   19.97    0.48 
   3  -1   8   20.29    0.43 
  -4   1  -8   68.51    1.08 
  -4   1  -8   67.52    1.00 
   4  -1   8   63.58    0.99 
   4  -1   8   62.74    1.05 
  -5   1  -8    2.69    0.18 
   5  -1   8    2.40    0.17 
   5  -1   8    2.57    0.19 
  -6   1  -8    3.48    0.22 
   6  -1   8    3.64    0.22 
   6  -1   8    3.46    0.23 
  -7   1  -8    8.19    0.36 
   7  -1   8    8.20    0.35 
   7  -1   8    8.11    0.37 
  10   0  -8    1.28    0.17 
 -10   0   8    0.84    0.16 
 -10   0   8    1.24    0.19 
   9   0  -8   19.88    0.55 
  -9   0   8   21.38    0.59 
  -9   0   8   21.53    0.57 
   8   0  -8    0.35    0.10 
  -8   0   8    0.24    0.09 
  -8   0   8    0.12    0.07 
   7   0  -8    1.14    0.13 
  -7   0   8    0.92    0.12 
  -7   0   8    0.71    0.10 
   6   0  -8    0.57    0.09 
   6   0  -8    0.79    0.13 
  -6   0   8    0.61    0.10 
  -6   0   8    0.63    0.09 
   5   0  -8    0.16    0.05 
   5   0  -8    0.22    0.07 
  -5   0   8    0.18    0.06 
  -5   0   8    0.09    0.05 
   4   0  -8   64.94    0.95 
  -4   0   8   65.08    0.91 
  -4   0   8   64.83    1.00 
  -4   0   8   64.01    1.01 
   3   0  -8   12.09    0.30 
  -3   0   8   12.52    0.33 
  -3   0   8   12.10    0.27 
  -3   0   8   12.12    0.33 
   2   0  -8   35.48    0.60 
  -2   0   8   35.86    0.61 
  -2   0   8   35.71    0.54 
   1   0  -8    2.87    0.10 
   1   0  -8    2.87    0.14 
  -1   0   8    3.04    0.14 
  -1   0   8    2.73    0.15 
  -1   0   8    2.84    0.12 
   0   0  -8    3.24    0.12 
   0   0  -8    3.04    0.15 
   0   0   8    3.13    0.16 
   0   0   8    3.27    0.13 
   0   0   8    3.10    0.13 
  -1   0  -8   13.31    0.32 
  -1   0  -8   12.50    0.29 
   1   0   8   12.90    0.30 
   1   0   8   12.66    0.26 
   1   0   8   12.83    0.34 
  -2   0  -8   15.46    0.37 
  -2   0  -8   16.01    0.36 
   2   0   8   15.46    0.39 
   2   0   8   15.40    0.35 
  -3   0  -8   44.51    0.74 
  -3   0  -8   45.03    0.75 
   3   0   8   42.12    0.77 
   3   0   8   42.49    0.72 
  -4   0  -8    4.85    0.20 
  -4   0  -8    4.77    0.22 
   4   0   8    4.69    0.23 
   4   0   8    4.40    0.21 
  -5   0  -8    5.79    0.26 
   5   0   8    5.12    0.26 
   5   0   8    4.85    0.24 
  -6   0  -8    0.73    0.14 
   6   0   8    0.33    0.09 
   6   0   8    0.71    0.14 
  -7   0  -8    4.10    0.26 
   7   0   8    3.98    0.25 
   7   0   8    4.22    0.27 
  10  -1  -8    8.67    0.38 
 -10   1   8    8.73    0.38 
 -10   1   8    8.85    0.39 
   9  -1  -8   28.58    0.70 
  -9   1   8   27.77    0.67 
  -9   1   8   29.33    0.71 
   8  -1  -8    0.12    0.07 
  -8   1   8    0.16    0.07 
  -8   1   8    0.09    0.07 
   7  -1  -8    0.08    0.07 
  -7   1   8   -0.01    0.04 
  -7   1   8    0.00    0.05 
   6  -1  -8    9.86    0.33 
   6  -1  -8    9.67    0.27 
  -6   1   8   10.22    0.34 
  -6   1   8   10.39    0.31 
   5  -1  -8    3.34    0.18 
   5  -1  -8    3.17    0.15 
  -5   1   8    3.06    0.15 
  -5   1   8    2.97    0.17 
   4  -1  -8   50.20    0.77 
   4  -1  -8   49.69    0.82 
  -4   1   8   51.88    0.79 
  -4   1   8   50.07    0.84 
   3  -1  -8    0.68    0.08 
   3  -1  -8    0.97    0.09 
  -3   1   8    0.94    0.09 
  -3   1   8    0.75    0.07 
   2  -1  -8   33.46    0.59 
   2  -1  -8   34.81    0.59 
  -2   1   8   32.99    0.54 
  -2   1   8   33.67    0.60 
   1  -1  -8   51.77    0.77 
   1  -1  -8   54.08    0.68 
  -1   1   8   50.24    0.76 
  -1   1   8   52.42    0.82 
   0  -1  -8    1.21    0.08 
   0  -1  -8    1.07    0.09 
   0  -1  -8    1.15    0.08 
   0   1   8    1.05    0.10 
   0   1   8    1.14    0.09 
  -1  -1  -8  208.89    2.42 
  -1  -1  -8  201.08    2.46 
  -1  -1  -8  207.47    2.54 
   1   1   8  198.40    2.47 
   1   1   8  196.07    2.41 
  -2  -1  -8    8.29    0.25 
  -2  -1  -8    8.38    0.27 
   2   1   8    8.08    0.26 
   2   1   8    8.46    0.28 
  -3  -1  -8   40.07    0.70 
  -3  -1  -8   39.37    0.70 
   3   1   8   37.66    0.71 
   3   1   8   38.56    0.70 
  -4  -1  -8    0.72    0.11 
  -4  -1  -8    0.67    0.11 
   4   1   8    0.49    0.10 
   4   1   8    0.59    0.11 
  -5  -1  -8   14.15    0.42 
  -5  -1  -8   15.06    0.39 
   5   1   8   13.13    0.41 
   5   1   8   14.13    0.43 
  -6  -1  -8   30.29    0.70 
   6   1   8   26.74    0.66 
   6   1   8   29.44    0.69 
  -7  -1  -8   13.42    0.46 
   7   1   8   11.93    0.45 
   7   1   8   13.10    0.47 
  10  -2  -8   18.82    0.58 
 -10   2   8   19.53    0.61 
 -10   2   8   18.56    0.57 
   9  -2  -8   11.49    0.43 
  -9   2   8   10.45    0.39 
  -9   2   8   10.87    0.42 
   8  -2  -8    0.64    0.13 
  -8   2   8    0.71    0.13 
  -8   2   8    0.50    0.11 
   7  -2  -8    1.92    0.16 
  -7   2   8    1.89    0.16 
  -7   2   8    1.87    0.15 
   6  -2  -8    1.89    0.16 
  -6   2   8    1.53    0.14 
  -6   2   8    1.68    0.13 
   5  -2  -8    2.97    0.14 
   5  -2  -8    3.25    0.18 
  -5   2   8    3.13    0.18 
  -5   2   8    2.95    0.16 
   4  -2  -8   29.69    0.59 
   4  -2  -8   29.79    0.54 
  -4   2   8   29.47    0.58 
  -4   2   8   29.76    0.55 
   3  -2  -8   55.09    0.86 
   3  -2  -8   55.01    0.84 
  -3   2   8   52.11    0.84 
  -3   2   8   52.84    0.81 
   2  -2  -8   20.08    0.42 
   2  -2  -8   20.39    0.42 
  -2   2   8   19.42    0.42 
  -2   2   8   19.34    0.41 
   1  -2  -8    2.04    0.13 
   1  -2  -8    2.29    0.09 
   1  -2  -8    2.01    0.11 
  -1   2   8    2.07    0.12 
  -1   2   8    2.41    0.14 
   0  -2  -8   49.63    0.71 
   0  -2  -8   49.82    0.81 
   0  -2  -8   49.40    0.70 
   0   2   8   47.21    0.76 
   0   2   8   46.73    0.77 
  -1  -2  -8    8.19    0.27 
  -1  -2  -8    8.85    0.24 
   1   2   8    8.31    0.27 
   1   2   8    8.16    0.27 
  -2  -2  -8  138.85    1.78 
  -2  -2  -8  138.37    1.83 
   2   2   8  131.74    1.76 
   2   2   8  130.21    1.76 
  -3  -2  -8  110.31    1.53 
  -3  -2  -8  109.77    1.51 
   3   2   8  105.54    1.51 
   3   2   8  106.13    1.51 
  -4  -2  -8   39.26    0.73 
  -4  -2  -8   38.99    0.74 
   4   2   8   37.85    0.74 
   4   2   8   37.82    0.75 
  -5  -2  -8   30.90    0.64 
  -5  -2  -8   32.07    0.68 
   5   2   8   29.35    0.66 
   5   2   8   29.56    0.68 
  -6  -2  -8   31.18    0.72 
   6   2   8   28.51    0.67 
   6   2   8   27.61    0.69 
  -7  -2  -8   22.68    0.63 
   7   2   8   21.36    0.60 
   7   2   8   20.54    0.61 
   9  -3  -8   10.23    0.41 
  -9   3   8   11.10    0.41 
  -9   3   8   10.89    0.42 
   8  -3  -8    0.11    0.08 
  -8   3   8    0.13    0.07 
  -8   3   8    0.23    0.09 
   7  -3  -8    5.28    0.27 
  -7   3   8    4.91    0.24 
  -7   3   8    5.52    0.27 
   6  -3  -8    0.91    0.12 
  -6   3   8    0.87    0.11 
  -6   3   8    0.81    0.11 
   5  -3  -8    1.96    0.12 
   5  -3  -8    1.96    0.15 
  -5   3   8    1.90    0.14 
  -5   3   8    1.99    0.15 
   4  -3  -8    1.38    0.11 
   4  -3  -8    1.35    0.12 
  -4   3   8    1.39    0.12 
  -4   3   8    1.48    0.12 
   3  -3  -8    4.08    0.19 
   3  -3  -8    4.13    0.18 
  -3   3   8    4.05    0.18 
  -3   3   8    3.60    0.18 
   2  -3  -8   13.15    0.33 
   2  -3  -8   13.02    0.34 
  -2   3   8   13.69    0.35 
  -2   3   8   14.07    0.36 
   1  -3  -8    3.63    0.15 
   1  -3  -8    2.89    0.16 
  -1   3   8    2.45    0.15 
  -1   3   8    2.67    0.15 
   0  -3  -8   13.90    0.30 
   0  -3  -8   13.87    0.36 
   0  -3  -8   13.74    0.29 
   0   3   8   12.86    0.35 
   0   3   8   13.02    0.34 
  -1  -3  -8   22.04    0.43 
  -1  -3  -8   21.84    0.49 
   1   3   8   21.42    0.50 
   1   3   8   22.28    0.48 
  -2  -3  -8    6.79    0.24 
  -2  -3  -8    7.05    0.27 
   2   3   8    7.30    0.26 
   2   3   8    6.72    0.27 
  -3  -3  -8    0.83    0.11 
  -3  -3  -8    0.76    0.11 
   3   3   8    0.64    0.11 
   3   3   8    0.92    0.12 
  -4  -3  -8    9.23    0.32 
  -4  -3  -8    8.82    0.32 
   4   3   8    9.10    0.35 
   4   3   8    9.19    0.33 
  -5  -3  -8    2.89    0.20 
  -5  -3  -8    2.84    0.19 
   5   3   8    2.64    0.21 
   5   3   8    2.53    0.19 
  -6  -3  -8   12.58    0.44 
   6   3   8   12.17    0.45 
   9  -4  -8   20.70    0.60 
  -9   4   8   20.77    0.59 
  -9   4   8   20.19    0.58 
   8  -4  -8    1.13    0.15 
  -8   4   8    0.96    0.14 
  -8   4   8    1.05    0.14 
   7  -4  -8   21.61    0.58 
  -7   4   8   21.36    0.55 
  -7   4   8   21.36    0.55 
   6  -4  -8   12.01    0.40 
  -6   4   8   11.10    0.37 
  -6   4   8   11.52    0.37 
   5  -4  -8    6.52    0.23 
   5  -4  -8    6.11    0.27 
  -5   4   8    6.47    0.26 
  -5   4   8    6.61    0.26 
   4  -4  -8   52.17    0.90 
   4  -4  -8   53.06    0.84 
  -4   4   8   51.75    0.87 
  -4   4   8   50.81    0.86 
   3  -4  -8    0.61    0.10 
   3  -4  -8    0.70    0.10 
  -3   4   8    0.53    0.10 
  -3   4   8    0.70    0.09 
   2  -4  -8    3.72    0.18 
   2  -4  -8    3.68    0.18 
  -2   4   8    3.88    0.18 
  -2   4   8    3.92    0.19 
   1  -4  -8    0.59    0.08 
   1  -4  -8    0.65    0.09 
  -1   4   8    0.76    0.09 
  -1   4   8    0.71    0.09 
   0  -4  -8    3.06    0.13 
   0  -4  -8    2.82    0.17 
   0   4   8    3.43    0.17 
  -1  -4  -8   32.88    0.57 
  -1  -4  -8   32.25    0.65 
   1   4   8   31.72    0.60 
   1   4   8   31.26    0.65 
  -2  -4  -8    4.49    0.22 
  -2  -4  -8    4.74    0.20 
   2   4   8    4.45    0.23 
   2   4   8    4.38    0.20 
  -3  -4  -8    3.64    0.21 
  -3  -4  -8    4.11    0.21 
   3   4   8    3.63    0.22 
   3   4   8    3.99    0.21 
  -4  -4  -8    3.36    0.21 
  -4  -4  -8    3.23    0.20 
   4   4   8    3.54    0.23 
  -5  -4  -8    2.88    0.20 
  -5  -4  -8    2.67    0.20 
   5   4   8    2.51    0.21 
  -6  -4  -8    1.24    0.16 
   6   4   8    0.84    0.17 
   9  -5  -8    4.36    0.28 
  -9   5   8    4.41    0.28 
  -9   5   8    4.12    0.26 
   8  -5  -8    1.30    0.16 
  -8   5   8    1.52    0.17 
  -8   5   8    1.11    0.15 
   7  -5  -8    3.34    0.23 
  -7   5   8    3.21    0.21 
  -7   5   8    2.96    0.21 
   6  -5  -8   18.07    0.51 
  -6   5   8   19.12    0.51 
  -6   5   8   19.53    0.50 
   5  -5  -8    3.63    0.21 
  -5   5   8    3.58    0.20 
  -5   5   8    3.41    0.20 
   4  -5  -8   29.92    0.57 
   4  -5  -8   29.80    0.63 
  -4   5   8   28.71    0.59 
  -4   5   8   29.39    0.62 
   3  -5  -8   28.36    0.56 
   3  -5  -8   28.22    0.58 
  -3   5   8   27.92    0.56 
  -3   5   8   27.79    0.60 
   2  -5  -8    6.85    0.25 
   2  -5  -8    7.28    0.26 
  -2   5   8    6.58    0.23 
  -2   5   8    6.78    0.27 
   1  -5  -8   25.10    0.49 
   1  -5  -8   24.20    0.54 
  -1   5   8   24.91    0.57 
  -1   5   8   24.15    0.49 
   0  -5  -8    0.50    0.10 
   0   5   8    0.34    0.09 
   0   5   8    0.44    0.08 
  -1  -5  -8   56.40    0.87 
  -1  -5  -8   55.72    0.97 
   1   5   8   53.34    0.96 
  -2  -5  -8   12.38    0.39 
  -2  -5  -8   12.94    0.36 
   2   5   8   12.02    0.41 
  -3  -5  -8    2.42    0.18 
  -3  -5  -8    2.65    0.18 
   3   5   8    2.49    0.19 
  -4  -5  -8   18.92    0.52 
  -4  -5  -8   19.87    0.52 
   4   5   8   17.73    0.54 
  -5  -5  -8    5.67    0.29 
  -5  -5  -8    6.08    0.30 
   5   5   8    5.39    0.31 
   9  -6  -8    4.37    0.33 
  -9   6   8    4.89    0.30 
  -9   6   8    5.08    0.30 
   8  -6  -8    3.23    0.24 
  -8   6   8    3.38    0.24 
  -8   6   8    3.87    0.25 
   7  -6  -8    4.07    0.25 
  -7   6   8    4.16    0.24 
  -7   6   8    4.07    0.25 
   6  -6  -8    5.77    0.29 
  -6   6   8    5.53    0.26 
  -6   6   8    5.52    0.28 
   5  -6  -8    5.57    0.27 
  -5   6   8    5.81    0.25 
  -5   6   8    5.73    0.27 
   4  -6  -8    0.98    0.11 
   4  -6  -8    0.94    0.12 
  -4   6   8    1.01    0.11 
  -4   6   8    0.95    0.12 
   3  -6  -8    2.98    0.17 
   3  -6  -8    2.57    0.17 
  -3   6   8    2.82    0.19 
  -3   6   8    2.71    0.16 
   2  -6  -8    4.46    0.21 
   2  -6  -8    4.31    0.20 
  -2   6   8    3.73    0.21 
   1  -6  -8    7.40    0.29 
  -1   6   8    7.44    0.31 
  -1  -6  -8   30.01    0.59 
   1   6   8   28.30    0.67 
  -2  -6  -8   22.91    0.52 
  -2  -6  -8   21.95    0.56 
   2   6   8   21.27    0.58 
  -3  -6  -8    0.18    0.09 
  -3  -6  -8    0.43    0.10 
   3   6   8    0.18    0.09 
  -4  -6  -8   14.83    0.46 
  -4  -6  -8   14.67    0.48 
   4   6   8   12.45    0.47 
  -5  -6  -8    1.98    0.19 
  -5  -6  -8    1.60    0.18 
   5   6   8    1.33    0.18 
   8  -7  -8   18.40    0.59 
  -8   7   8   17.76    0.53 
  -8   7   8   17.92    0.57 
   7  -7  -8    2.24    0.21 
  -7   7   8    2.71    0.21 
  -7   7   8    2.70    0.20 
   6  -7  -8   20.86    0.58 
  -6   7   8   20.87    0.53 
  -6   7   8   21.36    0.59 
   5  -7  -8    1.34    0.15 
  -5   7   8    1.72    0.17 
   4  -7  -8   10.35    0.37 
   4  -7  -8    9.80    0.32 
  -4   7   8   10.10    0.38 
   3  -7  -8    6.34    0.27 
   3  -7  -8    6.58    0.27 
  -3   7   8    6.76    0.31 
   2  -7  -8    4.02    0.22 
   2  -7  -8    4.34    0.21 
  -2   7   8    4.31    0.25 
   1  -7  -8   21.51    0.54 
  -1   7   8   23.17    0.60 
   0  -7  -8    4.88    0.25 
   0   7   8    4.05    0.25 
  -1  -7  -8   42.97    0.86 
   1   7   8   42.75    0.90 
  -2  -7  -8    6.83    0.32 
  -2  -7  -8    7.38    0.29 
   2   7   8    7.19    0.34 
  -3  -7  -8    0.11    0.09 
  -3  -7  -8    0.22    0.08 
   3   7   8    0.13    0.09 
  -4  -7  -8    7.70    0.35 
  -4  -7  -8    7.58    0.34 
   4   7   8    7.93    0.39 
   7  -8  -8    2.53    0.22 
  -7   8   8    2.19    0.21 
   6  -8  -8    7.01    0.34 
  -6   8   8    6.15    0.32 
   5  -8  -8    2.43    0.20 
  -5   8   8    2.26    0.20 
   4  -8  -8    9.90    0.37 
  -4   8   8    9.77    0.39 
   3  -8  -8    2.18    0.17 
   3  -8  -8    2.13    0.17 
  -3   8   8    2.23    0.20 
   2  -8  -8    7.33    0.31 
  -2   8   8    6.66    0.32 
   1  -8  -8    9.29    0.36 
  -1   8   8    9.09    0.38 
   0  -8  -8   13.79    0.45 
   0   8   8   12.50    0.46 
  -1  -8  -8    7.69    0.34 
   1   8   8    7.57    0.36 
  -2  -8  -8    1.06    0.16 
   2   8   8    0.81    0.16 
  -3  -8  -8    0.10    0.09 
  -3  -8  -8    0.18    0.09 
   3   8   8    0.14    0.10 
   6  -9  -8    0.49    0.13 
  -6   9   8    1.17    0.16 
   5  -9  -8    1.32    0.17 
  -5   9   8    0.81    0.16 
   4  -9  -8    2.61    0.21 
  -4   9   8    2.59    0.22 
   3  -9  -8   16.59    0.49 
   3  -9  -8   16.39    0.48 
  -3   9   8   14.94    0.51 
   2  -9  -8    0.26    0.10 
  -2   9   8    0.06    0.07 
   1  -9  -8    7.24    0.33 
  -1   9   8    7.46    0.36 
   0  -9  -8    0.36    0.12 
   0   9   8    0.36    0.11 
  -1  -9  -8    0.91    0.17 
   1   9   8    0.68    0.16 
  -2  -9  -8    6.73    0.42 
   2   9   8    6.52    0.43 
   4 -10  -8   10.91    0.42 
  -4  10   8    9.69    0.42 
   3 -10  -8    2.63    0.21 
  -3  10   8    1.67    0.19 
   2 -10  -8    2.85    0.23 
  -2  10   8    2.61    0.23 
   1 -10  -8    1.49    0.18 
  -1  10   8    1.45    0.18 
   0 -10  -8    0.01    0.08 
   0  10   8    0.00    0.08 
   2  12  -9   15.10    0.51 
  -2 -12   9   14.97    0.54 
  -2 -12   9   15.37    0.52 
   1  12  -9    9.90    0.41 
  -1 -12   9    9.08    0.41 
  -1 -12   9    9.87    0.41 
   0  12  -9    5.59    0.31 
   0  12  -9    5.23    0.29 
   0 -12   9    4.61    0.30 
  -1  12  -9    3.79    0.26 
   1 -12   9    3.37    0.26 
  -2  12  -9    0.62    0.14 
   2 -12   9    0.62    0.16 
   4  11  -9    4.20    0.27 
  -4 -11   9    4.14    0.28 
  -4 -11   9    3.93    0.28 
   3  11  -9    5.95    0.31 
  -3 -11   9    6.35    0.33 
  -3 -11   9    6.06    0.33 
   2  11  -9   21.32    0.58 
  -2 -11   9   21.90    0.61 
  -2 -11   9   20.40    0.61 
   1  11  -9    3.27    0.23 
  -1 -11   9    3.18    0.23 
  -1 -11   9    2.65    0.22 
   0  11  -9    1.48    0.16 
   0  11  -9    1.43    0.16 
   0 -11   9    1.55    0.18 
  -1  11  -9    4.48    0.25 
  -1  11  -9    4.56    0.27 
   1 -11   9    4.13    0.27 
  -2  11  -9    4.41    0.27 
   2 -11   9    3.82    0.27 
  -3  11  -9    4.03    0.27 
   3 -11   9    3.54    0.27 
  -4  11  -9    1.08    0.19 
   4 -11   9    1.29    0.20 
   5  10  -9   14.61    0.48 
  -5 -10   9   14.60    0.51 
  -5 -10   9   14.55    0.51 
   4  10  -9   26.35    0.65 
  -4 -10   9   26.93    0.70 
  -4 -10   9   27.69    0.71 
   3  10  -9   46.32    0.91 
  -3 -10   9   45.61    0.93 
  -3 -10   9   44.62    0.94 
   2  10  -9   55.55    1.01 
  -2 -10   9   53.12    1.05 
  -2 -10   9   55.88    1.04 
   1  10  -9    0.23    0.09 
  -1 -10   9    0.28    0.10 
  -1 -10   9    0.33    0.11 
   0  10  -9   26.52    0.64 
   0  10  -9   25.77    0.61 
   0 -10   9   26.54    0.67 
  -1  10  -9    6.12    0.29 
  -1  10  -9    5.23    0.25 
   1 -10   9    5.29    0.29 
  -2  10  -9   20.23    0.56 
   2 -10   9   19.70    0.58 
  -4  10  -9   31.61    0.76 
   4 -10   9   28.31    0.71 
  -5  10  -9    6.40    0.33 
   5 -10   9    6.38    0.33 
   6   9  -9   14.15    0.45 
  -6  -9   9   14.50    0.50 
  -6  -9   9   14.59    0.50 
   5   9  -9   10.77    0.38 
  -5  -9   9   10.86    0.42 
  -5  -9   9   10.03    0.40 
   4   9  -9    8.29    0.33 
  -4  -9   9    8.02    0.35 
  -4  -9   9    8.43    0.36 
   3   9  -9    0.08    0.07 
  -3  -9   9    0.15    0.08 
  -3  -9   9    0.07    0.08 
   2   9  -9    2.44    0.18 
  -2  -9   9    2.87    0.21 
  -2  -9   9    2.86    0.20 
   1   9  -9   28.93    0.64 
   1   9  -9   28.29    0.64 
  -1  -9   9   26.88    0.65 
   0   9  -9    8.78    0.32 
   0   9  -9    8.57    0.33 
   0  -9   9    9.12    0.36 
  -1   9  -9   54.05    0.98 
  -1   9  -9   52.39    0.92 
   1  -9   9   51.67    0.99 
  -2   9  -9    3.16    0.21 
   2  -9   9    2.88    0.21 
  -3   9  -9   12.15    0.42 
   3  -9   9   12.49    0.43 
  -4   9  -9    2.09    0.19 
   4  -9   9    1.73    0.18 
   4  -9   9    1.87    0.21 
  -5   9  -9   19.18    0.57 
   5  -9   9   17.52    0.53 
  -7  -8   9    1.06    0.18 
  -7  -8   9    0.93    0.17 
  -6  -8   9   11.84    0.43 
  -6  -8   9   12.17    0.44 
   5   8  -9    1.93    0.16 
  -5  -8   9    1.96    0.19 
  -5  -8   9    1.98    0.18 
   4   8  -9   12.10    0.38 
  -4  -8   9   12.52    0.43 
  -4  -8   9   12.22    0.42 
   3   8  -9   19.57    0.49 
  -3  -8   9   18.98    0.51 
  -3  -8   9   19.03    0.53 
   2   8  -9    6.75    0.29 
   2   8  -9    7.15    0.27 
  -2  -8   9    7.40    0.31 
   1   8  -9    6.16    0.26 
   1   8  -9    6.59    0.27 
  -1  -8   9    6.01    0.28 
   0   8  -9   28.81    0.60 
   0   8  -9   28.70    0.61 
   0  -8   9   28.56    0.65 
  -1   8  -9    9.42    0.33 
  -1   8  -9    9.61    0.31 
   1  -8   9    9.65    0.36 
   1  -8   9    9.18    0.30 
  -2   8  -9    0.72    0.10 
  -2   8  -9    0.72    0.12 
   2  -8   9    0.58    0.11 
   2  -8   9    0.60    0.12 
  -3   8  -9    1.48    0.15 
   3  -8   9    2.08    0.16 
   3  -8   9    1.35    0.15 
  -4   8  -9    1.94    0.18 
   4  -8   9    1.62    0.16 
   4  -8   9    1.70    0.16 
  -5   8  -9    1.27    0.16 
   5  -8   9    0.96    0.16 
  -6   8  -9    2.39    0.21 
   6  -8   9    2.54    0.22 
   7   7  -9    7.32    0.33 
  -7  -7   9    7.69    0.35 
  -6  -7   9   14.19    0.47 
   5   7  -9   12.97    0.38 
  -5  -7   9   13.79    0.44 
  -5  -7   9   13.53    0.44 
   4   7  -9   10.88    0.34 
  -4  -7   9   11.29    0.38 
  -4  -7   9   11.35    0.39 
   3   7  -9    0.11    0.07 
   3   7  -9    0.23    0.07 
  -3  -7   9    0.18    0.08 
   2   7  -9    0.84    0.11 
   2   7  -9    0.98    0.11 
  -2  -7   9    1.08    0.13 
  -2  -7   9    1.00    0.10 
   1   7  -9    1.62    0.14 
   1   7  -9    1.97    0.14 
  -1  -7   9    1.71    0.12 
  -1  -7   9    1.68    0.15 
   0   7  -9    3.91    0.20 
   0   7  -9    4.13    0.20 
   0  -7   9    3.91    0.19 
   0  -7   9    3.97    0.21 
  -1   7  -9    9.33    0.30 
  -1   7  -9    9.06    0.31 
   1  -7   9    8.89    0.29 
   1  -7   9    8.36    0.31 
  -2   7  -9    1.54    0.12 
  -2   7  -9    1.60    0.14 
   2  -7   9    1.57    0.14 
   2  -7   9    1.64    0.14 
  -3   7  -9    1.24    0.14 
   3  -7   9    1.24    0.13 
   3  -7   9    1.06    0.13 
  -4   7  -9    1.86    0.17 
   4  -7   9    1.87    0.17 
   4  -7   9    2.02    0.17 
  -5   7  -9    2.60    0.20 
   5  -7   9    2.64    0.21 
  -6   7  -9    1.60    0.17 
   6  -7   9    1.50    0.18 
   8   6  -9    2.71    0.24 
  -8  -6   9    3.29    0.24 
   7   6  -9    7.09    0.31 
  -7  -6   9    7.88    0.35 
   6   6  -9    9.74    0.35 
  -6  -6   9    9.38    0.37 
   5   6  -9   20.79    0.47 
   5   6  -9   18.88    0.49 
  -5  -6   9   21.44    0.56 
   4   6  -9   23.70    0.54 
   4   6  -9   23.10    0.49 
  -4  -6   9   24.52    0.52 
  -4  -6   9   24.77    0.59 
   3   6  -9    1.40    0.12 
   3   6  -9    1.46    0.13 
  -3  -6   9    1.13    0.11 
  -3  -6   9    1.31    0.14 
   2   6  -9   24.07    0.53 
   2   6  -9   23.94    0.49 
  -2  -6   9   24.07    0.49 
  -2  -6   9   23.69    0.55 
   1   6  -9   15.91    0.41 
   1   6  -9   15.46    0.38 
  -1  -6   9   16.08    0.39 
  -1  -6   9   15.53    0.42 
   0   6  -9    5.43    0.22 
   0   6  -9    5.33    0.22 
   0  -6   9    4.76    0.22 
   0  -6   9    5.35    0.22 
  -1   6  -9   16.18    0.41 
  -1   6  -9   15.95    0.40 
   1  -6   9   14.40    0.39 
   1  -6   9   14.67    0.40 
  -2   6  -9   12.47    0.33 
  -2   6  -9   11.97    0.36 
   2  -6   9   12.10    0.36 
   2  -6   9   11.84    0.36 
  -3   6  -9    0.43    0.09 
   3  -6   9    0.32    0.09 
   3  -6   9    0.45    0.10 
  -4   6  -9    6.09    0.27 
   4  -6   9    5.98    0.28 
  -5   6  -9    3.70    0.23 
   5  -6   9    3.71    0.24 
  -6   6  -9   11.86    0.43 
   6  -6   9   10.11    0.41 
  -7   6  -9    1.21    0.19 
   7  -6   9    1.22    0.17 
  -8  -5   9    9.29    0.38 
   7   5  -9    0.76    0.13 
  -7  -5   9    0.84    0.15 
  -7  -5   9    1.02    0.14 
   6   5  -9    0.68    0.12 
  -6  -5   9    0.80    0.14 
  -6  -5   9    0.80    0.11 
   5   5  -9    7.14    0.28 
  -5  -5   9    7.63    0.28 
  -5  -5   9    7.21    0.30 
   4   5  -9   12.17    0.31 
   4   5  -9   11.50    0.35 
  -4  -5   9   11.47    0.37 
  -4  -5   9   12.29    0.34 
   3   5  -9    4.59    0.21 
   3   5  -9    4.75    0.18 
  -3  -5   9    4.58    0.20 
  -3  -5   9    4.96    0.23 
   2   5  -9   35.80    0.60 
   2   5  -9   34.75    0.66 
  -2  -5   9   34.79    0.68 
  -2  -5   9   34.47    0.63 
   1   5  -9   27.34    0.51 
   1   5  -9   28.32    0.56 
  -1  -5   9   27.82    0.58 
  -1  -5   9   27.97    0.55 
   0   5  -9   10.29    0.30 
   0   5  -9    9.96    0.28 
   0  -5   9   10.19    0.31 
   0  -5   9    9.59    0.30 
  -1   5  -9   11.97    0.33 
  -1   5  -9   12.03    0.33 
   1  -5   9   11.61    0.34 
   1  -5   9   11.41    0.33 
  -2   5  -9    1.25    0.12 
  -2   5  -9    1.37    0.11 
   2  -5   9    1.42    0.12 
   2  -5   9    1.35    0.13 
  -3   5  -9    2.60    0.15 
  -3   5  -9    2.41    0.17 
   3  -5   9    2.06    0.14 
   3  -5   9    2.18    0.16 
  -4   5  -9    5.41    0.26 
   4  -5   9    4.99    0.26 
  -5   5  -9    2.13    0.18 
   5  -5   9    1.87    0.18 
  -6   5  -9    5.48    0.29 
   6  -5   9    4.43    0.27 
  -7   5  -9    2.31    0.21 
   7  -5   9    1.87    0.19 
   9   4  -9    3.47    0.24 
  -8  -4   9    3.25    0.22 
  -8  -4   9    3.08    0.22 
   7   4  -9    6.93    0.28 
  -7  -4   9    7.68    0.31 
  -7  -4   9    7.27    0.32 
   6   4  -9    0.71    0.10 
  -6  -4   9    0.83    0.14 
  -6  -4   9    0.90    0.11 
   5   4  -9   19.16    0.46 
  -5  -4   9   19.27    0.50 
  -5  -4   9   19.74    0.47 
   4   4  -9   39.87    0.73 
  -4  -4   9   38.53    0.70 
  -4  -4   9   37.39    0.73 
   3   4  -9    6.88    0.25 
   3   4  -9    7.09    0.20 
  -3  -4   9    6.61    0.26 
  -3  -4   9    6.87    0.25 
   2   4  -9   44.91    0.77 
   2   4  -9   46.52    0.70 
  -2  -4   9   45.09    0.76 
  -2  -4   9   45.36    0.79 
   1   4  -9   18.05    0.42 
   1   4  -9   18.12    0.37 
  -1  -4   9   16.78    0.40 
  -1  -4   9   17.26    0.41 
   0   4  -9   20.09    0.41 
   0   4  -9   18.60    0.42 
   0  -4   9   18.20    0.42 
   0  -4   9   18.07    0.43 
  -1   4  -9   26.25    0.52 
  -1   4  -9   26.47    0.52 
   1  -4   9   24.61    0.49 
   1  -4   9   25.05    0.54 
  -2   4  -9    3.67    0.18 
  -2   4  -9    3.67    0.17 
   2  -4   9    3.37    0.19 
   2  -4   9    3.14    0.16 
  -3   4  -9   15.41    0.37 
  -3   4  -9   15.09    0.41 
   3  -4   9   14.18    0.41 
  -4   4  -9    3.84    0.21 
   4  -4   9    4.10    0.23 
  -5   4  -9    3.05    0.20 
   5  -4   9    2.43    0.20 
  -6   4  -9    6.37    0.31 
   6  -4   9    6.13    0.32 
  -7   4  -9    0.03    0.08 
   7  -4   9    0.06    0.06 
   9   3  -9    5.83    0.30 
  -9  -3   9    6.88    0.32 
   8   3  -9    0.65    0.13 
  -8  -3   9    0.63    0.13 
   7   3  -9   17.11    0.44 
  -7  -3   9   17.83    0.48 
  -7  -3   9   16.18    0.48 
   6   3  -9    2.79    0.17 
  -6  -3   9    2.40    0.17 
   5   3  -9   32.89    0.63 
  -5  -3   9   33.01    0.65 
  -5  -3   9   32.10    0.68 
   4   3  -9   37.83    0.68 
  -4  -3   9   39.05    0.71 
  -4  -3   9   38.38    0.73 
   3   3  -9    6.70    0.24 
   3   3  -9    6.85    0.18 
  -3  -3   9    6.55    0.24 
  -3  -3   9    6.76    0.25 
   2   3  -9   37.23    0.56 
   2   3  -9   36.67    0.66 
  -2  -3   9   36.67    0.66 
  -2  -3   9   36.06    0.66 
   1   3  -9    8.87    0.27 
   1   3  -9    8.20    0.22 
  -1  -3   9    8.05    0.26 
  -1  -3   9    7.84    0.26 
   0   3  -9   35.60    0.64 
   0   3  -9   36.67    0.60 
   0  -3   9   34.63    0.61 
   0  -3   9   33.74    0.64 
  -1   3  -9    2.69    0.15 
  -1   3  -9    2.56    0.14 
   1  -3   9    2.34    0.13 
   1  -3   9    2.52    0.16 
  -2   3  -9    5.73    0.22 
  -2   3  -9    5.94    0.22 
   2  -3   9    5.87    0.20 
   2  -3   9    5.88    0.25 
  -3   3  -9   13.15    0.34 
  -3   3  -9   13.29    0.37 
   3  -3   9   12.44    0.38 
  -4   3  -9   17.78    0.46 
   4  -3   9   16.48    0.47 
  -5   3  -9   11.71    0.39 
   5  -3   9   11.14    0.40 
  -6   3  -9   12.51    0.44 
   6  -3   9   11.54    0.43 
  -7   3  -9    1.14    0.16 
   7  -3   9    0.82    0.16 
   9   2  -9    9.82    0.39 
  -9  -2   9   10.79    0.41 
   8   2  -9    2.22    0.18 
  -8  -2   9    2.63    0.20 
   7   2  -9   17.01    0.42 
  -7  -2   9   16.82    0.48 
   6   2  -9    7.40    0.26 
  -6  -2   9    7.79    0.30 
  -6  -2   9    7.52    0.30 
   5   2  -9   13.91    0.37 
  -5  -2   9   13.27    0.39 
  -5  -2   9   13.42    0.38 
   4   2  -9   16.34    0.39 
  -4  -2   9   16.09    0.42 
  -4  -2   9   16.08    0.41 
   3   2  -9    2.13    0.13 
  -3  -2   9    2.00    0.13 
  -3  -2   9    1.90    0.14 
   2   2  -9   52.93    0.71 
   2   2  -9   51.76    0.83 
  -2  -2   9   50.09    0.82 
  -2  -2   9   50.04    0.82 
   1   2  -9    0.44    0.06 
   1   2  -9    0.49    0.08 
  -1  -2   9    0.56    0.08 
  -1  -2   9    0.70    0.09 
   0   2  -9    4.98    0.17 
   0   2  -9    4.91    0.20 
   0  -2   9    4.98    0.21 
   0  -2   9    4.81    0.18 
  -1   2  -9    0.05    0.04 
  -1   2  -9    0.04    0.04 
   1  -2   9    0.08    0.04 
   1  -2   9    0.05    0.04 
   1  -2   9    0.07    0.05 
  -2   2  -9   18.99    0.42 
  -2   2  -9   18.90    0.42 
   2  -2   9   18.54    0.46 
   2  -2   9   17.57    0.36 
  -3   2  -9   16.70    0.40 
  -3   2  -9   17.43    0.43 
   3  -2   9   16.37    0.45 
   3  -2   9   16.22    0.37 
  -4   2  -9    5.86    0.22 
  -4   2  -9    5.83    0.25 
   4  -2   9    4.98    0.21 
   4  -2   9    5.45    0.26 
  -5   2  -9   21.07    0.54 
   5  -2   9   19.37    0.54 
   5  -2   9   18.74    0.47 
  -6   2  -9   10.16    0.38 
   6  -2   9    9.44    0.35 
   6  -2   9    9.26    0.39 
  -7   2  -9    4.34    0.27 
   7  -2   9    4.04    0.28 
   7  -2   9    3.95    0.25 
   9   1  -9   22.11    0.60 
  -9  -1   9   23.21    0.63 
   8   1  -9    2.72    0.20 
  -8  -1   9    2.98    0.21 
   7   1  -9   11.32    0.38 
  -7  -1   9   11.86    0.40 
  -7  -1   9   12.12    0.35 
   6   1  -9    3.08    0.16 
  -6  -1   9    2.69    0.15 
  -6  -1   9    3.12    0.19 
   5   1  -9    6.47    0.23 
  -5  -1   9    6.83    0.27 
  -5  -1   9    6.59    0.26 
  -5  -1   9    6.58    0.21 
   4   1  -9   34.44    0.62 
  -4  -1   9   34.19    0.66 
  -4  -1   9   35.45    0.55 
  -4  -1   9   33.12    0.65 
   3   1  -9   27.76    0.53 
  -3  -1   9   26.62    0.54 
  -3  -1   9   26.98    0.44 
  -3  -1   9   26.43    0.54 
   2   1  -9  145.31    1.87 
  -2  -1   9  150.26    1.77 
  -2  -1   9  148.83    1.94 
  -2  -1   9  146.09    1.91 
   1   1  -9    1.39    0.08 
   1   1  -9    1.56    0.11 
  -1  -1   9    1.41    0.12 
  -1  -1   9    1.46    0.08 
  -1  -1   9    1.25    0.10 
   0   1  -9    8.71    0.22 
   0   1  -9    8.11    0.26 
   0  -1   9    8.02    0.20 
   0  -1   9    8.31    0.28 
   0  -1   9    8.08    0.23 
  -1   1  -9   17.81    0.41 
  -1   1  -9   17.52    0.37 
   1  -1   9   17.26    0.35 
   1  -1   9   17.49    0.35 
   1  -1   9   17.28    0.43 
  -2   1  -9    3.94    0.18 
  -2   1  -9    4.04    0.18 
   2  -1   9    4.50    0.21 
   2  -1   9    4.49    0.18 
  -3   1  -9    6.41    0.25 
  -3   1  -9    6.88    0.25 
   3  -1   9    5.90    0.22 
   3  -1   9    5.40    0.25 
  -4   1  -9   53.93    0.93 
  -4   1  -9   54.10    0.87 
   4  -1   9   48.88    0.91 
   4  -1   9   50.06    0.85 
  -5   1  -9    7.11    0.30 
   5  -1   9    6.60    0.27 
   5  -1   9    6.31    0.30 
  -6   1  -9    5.32    0.28 
   6  -1   9    5.20    0.29 
   6  -1   9    5.66    0.28 
  -7   1  -9    5.11    0.29 
   7  -1   9    5.48    0.29 
   7  -1   9    5.24    0.31 
   9   0  -9   29.97    0.72 
  -9   0   9   31.82    0.77 
  -9   0   9   32.78    0.72 
   8   0  -9    1.06    0.15 
  -8   0   9    1.09    0.14 
  -8   0   9    1.05    0.13 
   7   0  -9   36.89    0.77 
  -7   0   9   37.83    0.71 
  -7   0   9   36.99    0.78 
   6   0  -9    8.52    0.32 
   6   0  -9    8.37    0.27 
  -6   0   9    8.36    0.32 
  -6   0   9    8.61    0.27 
   5   0  -9   81.20    1.23 
   5   0  -9   80.59    1.16 
  -5   0   9   82.21    1.14 
  -5   0   9   81.00    1.24 
   4   0  -9   41.03    0.69 
  -4   0   9   42.30    0.65 
  -4   0   9   39.79    0.74 
  -4   0   9   39.49    0.74 
   3   0  -9  231.51    2.81 
  -3   0   9  232.82    2.73 
  -3   0   9  235.46    2.85 
  -3   0   9  226.84    2.86 
   2   0  -9   88.10    1.23 
  -2   0   9   87.55    1.14 
  -2   0   9   86.04    1.26 
  -2   0   9   88.82    1.23 
   1   0  -9   37.95    0.66 
   1   0  -9   37.40    0.53 
  -1   0   9   35.85    0.66 
  -1   0   9   36.02    0.61 
  -1   0   9   35.60    0.57 
   0   0  -9   33.95    0.53 
   0   0   9   32.43    0.54 
   0   0   9   33.18    0.55 
   0   0   9   32.80    0.63 
  -1   0  -9    7.00    0.24 
  -1   0  -9    6.94    0.21 
   1   0   9    6.96    0.22 
   1   0   9    6.65    0.25 
  -2   0  -9    7.72    0.25 
  -2   0  -9    8.19    0.27 
   2   0   9    7.86    0.25 
   2   0   9    8.00    0.29 
  -3   0  -9   38.14    0.69 
  -3   0  -9   36.37    0.67 
   3   0   9   36.60    0.67 
   3   0   9   35.29    0.71 
  -4   0  -9   40.03    0.72 
  -4   0  -9   39.33    0.75 
   4   0   9   39.63    0.74 
   4   0   9   37.40    0.77 
  -5   0  -9    5.27    0.26 
   5   0   9    5.15    0.27 
   5   0   9    4.77    0.24 
  -6   0  -9    1.58    0.17 
   6   0   9    1.70    0.17 
   6   0   9    1.63    0.18 
  -7   0  -9    1.16    0.17 
   7   0   9    0.59    0.14 
   7   0   9    0.98    0.17 
   9  -1  -9    8.85    0.38 
  -9   1   9    9.30    0.39 
  -9   1   9    8.07    0.34 
   8  -1  -9   10.28    0.39 
  -8   1   9   10.09    0.39 
  -8   1   9   10.26    0.36 
   7  -1  -9    3.41    0.22 
  -7   1   9    3.73    0.20 
  -7   1   9    3.55    0.22 
   6  -1  -9   40.77    0.69 
   6  -1  -9   40.35    0.79 
  -6   1   9   41.04    0.80 
  -6   1   9   42.37    0.74 
   5  -1  -9    9.55    0.32 
   5  -1  -9    9.82    0.29 
  -5   1   9    9.50    0.28 
  -5   1   9    8.84    0.31 
   4  -1  -9   78.57    1.19 
   4  -1  -9   80.51    1.14 
  -4   1   9   78.87    1.20 
  -4   1   9   79.81    1.11 
   3  -1  -9   58.01    0.89 
   3  -1  -9   57.93    0.91 
  -3   1   9   57.60    0.93 
  -3   1   9   56.85    0.84 
   2  -1  -9   74.50    1.07 
   2  -1  -9   74.55    1.09 
  -2   1   9   72.66    1.01 
  -2   1   9   73.29    1.10 
   1  -1  -9  131.87    1.67 
   1  -1  -9  131.52    1.73 
  -1   1   9  127.92    1.64 
  -1   1   9  129.08    1.72 
   0  -1  -9   53.64    0.87 
   0  -1  -9   54.09    0.78 
   0  -1  -9   55.10    0.76 
   0   1   9   53.23    0.82 
   0   1   9   53.10    0.88 
  -1  -1  -9  184.53    2.25 
  -1  -1  -9  185.21    2.35 
   1   1   9  179.98    2.24 
   1   1   9  175.35    2.29 
  -2  -1  -9    3.92    0.18 
  -2  -1  -9    3.43    0.18 
   2   1   9    3.87    0.21 
   2   1   9    3.77    0.19 
  -3  -1  -9   42.93    0.75 
  -3  -1  -9   43.39    0.77 
   3   1   9   40.76    0.78 
   3   1   9   41.69    0.76 
  -4  -1  -9    2.09    0.15 
  -4  -1  -9    2.26    0.16 
   4   1   9    2.27    0.18 
   4   1   9    2.03    0.17 
  -5  -1  -9   40.00    0.80 
   5   1   9   35.72    0.76 
   5   1   9   37.48    0.79 
  -6  -1  -9    7.84    0.34 
   6   1   9    7.78    0.35 
   6   1   9    7.75    0.35 
   9  -2  -9    1.18    0.19 
  -9   2   9    1.07    0.14 
  -9   2   9    1.15    0.16 
   8  -2  -9    3.17    0.23 
  -8   2   9    3.49    0.23 
  -8   2   9    3.40    0.21 
   7  -2  -9    7.85    0.33 
  -7   2   9    7.58    0.32 
  -7   2   9    7.63    0.30 
   6  -2  -9   10.52    0.36 
  -6   2   9   10.02    0.35 
  -6   2   9   10.92    0.34 
   5  -2  -9    9.59    0.28 
   5  -2  -9    8.85    0.32 
  -5   2   9    9.56    0.30 
  -5   2   9    9.01    0.32 
   4  -2  -9   19.80    0.43 
   4  -2  -9   18.49    0.46 
  -4   2   9   18.76    0.46 
  -4   2   9   19.77    0.43 
   3  -2  -9    3.29    0.17 
   3  -2  -9    3.56    0.18 
  -3   2   9    3.31    0.16 
  -3   2   9    2.93    0.17 
   2  -2  -9   13.28    0.34 
   2  -2  -9   13.36    0.35 
  -2   2   9   12.96    0.33 
  -2   2   9   13.05    0.35 
   1  -2  -9   11.84    0.29 
   1  -2  -9   10.83    0.32 
  -1   2   9   10.77    0.32 
  -1   2   9   11.41    0.31 
   0  -2  -9   16.03    0.40 
   0  -2  -9   15.49    0.33 
   0  -2  -9   16.10    0.32 
   0   2   9   14.64    0.37 
   0   2   9   14.72    0.38 
  -1  -2  -9    7.24    0.27 
  -1  -2  -9    7.32    0.22 
   1   2   9    6.94    0.26 
   1   2   9    6.78    0.26 
  -2  -2  -9   38.06    0.72 
  -2  -2  -9   39.41    0.67 
   2   2   9   37.17    0.73 
   2   2   9   39.99    0.73 
  -3  -2  -9    5.90    0.25 
  -3  -2  -9    6.00    0.24 
   3   2   9    5.33    0.25 
   3   2   9    5.53    0.25 
  -4  -2  -9   13.27    0.40 
  -4  -2  -9   13.26    0.39 
   4   2   9   11.96    0.40 
   4   2   9   12.69    0.41 
  -5  -2  -9    6.86    0.28 
  -5  -2  -9    6.65    0.30 
   5   2   9    6.00    0.30 
   5   2   9    6.04    0.29 
  -6  -2  -9    1.10    0.18 
   6   2   9    1.17    0.19 
   6   2   9    0.98    0.17 
   9  -3  -9    5.01    0.30 
  -9   3   9    5.14    0.28 
  -9   3   9    5.17    0.30 
   8  -3  -9    1.60    0.18 
  -8   3   9    2.11    0.18 
  -8   3   9    1.92    0.18 
   7  -3  -9    3.99    0.24 
  -7   3   9    3.91    0.23 
  -7   3   9    4.24    0.23 
   6  -3  -9    5.01    0.25 
  -6   3   9    4.94    0.23 
  -6   3   9    5.19    0.25 
   5  -3  -9   21.96    0.47 
   5  -3  -9   21.84    0.53 
  -5   3   9   21.46    0.50 
  -5   3   9   21.70    0.52 
   4  -3  -9  126.20    1.74 
   4  -3  -9  126.34    1.68 
  -4   3   9  124.93    1.72 
  -4   3   9  124.03    1.68 
   3  -3  -9    0.02    0.05 
   3  -3  -9    0.08    0.05 
  -3   3   9    0.08    0.05 
  -3   3   9    0.05    0.04 
   2  -3  -9   17.61    0.41 
   2  -3  -9   18.14    0.43 
  -2   3   9   16.39    0.41 
  -2   3   9   16.87    0.41 
   1  -3  -9    0.09    0.05 
   1  -3  -9    0.08    0.04 
  -1   3   9    0.10    0.05 
  -1   3   9    0.26    0.07 
   0  -3  -9   19.14    0.46 
   0   3   9   19.38    0.46 
   0   3   9   19.30    0.46 
  -1  -3  -9   26.57    0.50 
  -1  -3  -9   26.87    0.57 
   1   3   9   27.02    0.57 
   1   3   9   27.59    0.59 
  -2  -3  -9    6.36    0.27 
  -2  -3  -9    6.57    0.24 
   2   3   9    6.64    0.27 
   2   3   9    6.54    0.27 
  -3  -3  -9    1.83    0.14 
  -3  -3  -9    2.03    0.16 
   3   3   9    1.60    0.16 
   3   3   9    1.80    0.15 
  -4  -3  -9    1.57    0.15 
  -4  -3  -9    1.55    0.15 
   4   3   9    1.42    0.15 
   4   3   9    1.51    0.16 
  -5  -3  -9    1.53    0.16 
  -5  -3  -9    1.74    0.17 
   5   3   9    1.29    0.17 
  -6  -3  -9    5.38    0.29 
   6   3   9    4.60    0.29 
   9  -4  -9   11.55    0.45 
  -9   4   9   11.44    0.44 
  -9   4   9   12.22    0.44 
   8  -4  -9    3.70    0.25 
  -8   4   9    3.85    0.24 
  -8   4   9    3.52    0.23 
   7  -4  -9    7.53    0.34 
  -7   4   9    6.90    0.31 
  -7   4   9    6.53    0.29 
   6  -4  -9   14.44    0.45 
  -6   4   9   15.07    0.44 
  -6   4   9   15.14    0.44 
   5  -4  -9   36.06    0.74 
   5  -4  -9   36.33    0.66 
  -5   4   9   35.49    0.70 
  -5   4   9   34.68    0.71 
   4  -4  -9   41.38    0.73 
   4  -4  -9   41.55    0.78 
  -4   4   9   38.64    0.73 
  -4   4   9   39.58    0.74 
   3  -4  -9    4.62    0.21 
   3  -4  -9    4.32    0.20 
  -3   4   9    4.36    0.21 
  -3   4   9    4.08    0.21 
   2  -4  -9    6.10    0.23 
   2  -4  -9    6.13    0.24 
  -2   4   9    5.97    0.25 
  -2   4   9    6.03    0.24 
   1  -4  -9   11.13    0.30 
   1  -4  -9   10.58    0.34 
  -1   4   9   10.47    0.34 
  -1   4   9   10.17    0.31 
   0  -4  -9    2.99    0.18 
   0   4   9    3.25    0.19 
   0   4   9    3.30    0.18 
  -1  -4  -9   35.05    0.61 
  -1  -4  -9   34.26    0.70 
   1   4   9   31.92    0.69 
   1   4   9   34.85    0.66 
  -2  -4  -9    2.88    0.19 
  -2  -4  -9    2.99    0.17 
   2   4   9    2.81    0.20 
   2   4   9    2.86    0.18 
  -3  -4  -9    1.82    0.16 
  -3  -4  -9    1.83    0.15 
   3   4   9    1.44    0.16 
  -4  -4  -9    1.97    0.17 
  -4  -4  -9    2.03    0.17 
   4   4   9    2.01    0.19 
  -5  -4  -9    0.32    0.10 
  -5  -4  -9    0.39    0.11 
   5   4   9    0.15    0.10 
   9  -5  -9    3.82    0.28 
  -9   5   9    3.70    0.26 
  -9   5   9    3.86    0.26 
   8  -5  -9   14.57    0.50 
  -8   5   9   14.77    0.48 
  -8   5   9   14.21    0.47 
   7  -5  -9    1.28    0.16 
  -7   5   9    1.32    0.15 
  -7   5   9    1.03    0.14 
   6  -5  -9   12.02    0.41 
  -6   5   9   12.02    0.40 
  -6   5   9   12.54    0.41 
   5  -5  -9    6.07    0.28 
   5  -5  -9    6.05    0.25 
  -5   5   9    6.29    0.27 
  -5   5   9    6.05    0.27 
   4  -5  -9   18.19    0.44 
   4  -5  -9   17.35    0.47 
  -4   5   9   16.89    0.46 
  -4   5   9   17.36    0.45 
   3  -5  -9    4.67    0.22 
   3  -5  -9    4.98    0.23 
  -3   5   9    4.00    0.20 
  -3   5   9    4.83    0.24 
   2  -5  -9   20.71    0.47 
   2  -5  -9   19.05    0.48 
  -2   5   9   18.46    0.44 
  -2   5   9   19.06    0.49 
   1  -5  -9   48.31    0.87 
  -1   5   9   46.90    0.80 
  -1   5   9   46.76    0.88 
   0  -5  -9    4.78    0.24 
   0   5   9    4.09    0.23 
   0   5   9    4.28    0.21 
  -1  -5  -9   48.81    0.90 
   1   5   9   47.20    0.90 
  -2  -5  -9    1.60    0.14 
  -2  -5  -9    1.61    0.16 
   2   5   9    1.65    0.17 
  -3  -5  -9    5.13    0.27 
  -3  -5  -9    4.93    0.24 
   3   5   9    4.28    0.26 
  -4  -5  -9    0.51    0.12 
  -4  -5  -9    0.52    0.12 
   4   5   9    0.29    0.10 
  -5  -5  -9    1.66    0.18 
  -5  -5  -9    1.49    0.17 
   5   5   9    1.72    0.20 
   8  -6  -9    4.03    0.27 
  -8   6   9    4.40    0.27 
  -8   6   9    4.16    0.27 
   7  -6  -9    3.55    0.25 
  -7   6   9    3.65    0.24 
  -7   6   9    3.39    0.23 
   6  -6  -9    1.28    0.15 
  -6   6   9    0.83    0.15 
  -6   6   9    1.01    0.13 
   5  -6  -9   23.33    0.59 
  -5   6   9   22.00    0.58 
  -5   6   9   22.99    0.55 
   4  -6  -9   25.82    0.56 
   4  -6  -9   25.18    0.60 
  -4   6   9   24.88    0.56 
  -4   6   9   24.81    0.61 
   3  -6  -9    0.16    0.07 
   3  -6  -9    0.05    0.06 
  -3   6   9    0.08    0.05 
  -3   6   9   -0.01    0.05 
   2  -6  -9   19.48    0.50 
   2  -6  -9   20.10    0.48 
  -2   6   9   20.07    0.54 
   1  -6  -9   16.68    0.46 
  -1   6   9   16.65    0.49 
   0  -6  -9   15.27    0.45 
   0   6   9   14.72    0.47 
  -1  -6  -9   15.58    0.47 
   1   6   9   16.74    0.51 
  -2  -6  -9    4.56    0.26 
   2   6   9    4.49    0.27 
  -3  -6  -9    1.76    0.18 
  -3  -6  -9    1.96    0.17 
   3   6   9    1.87    0.19 
  -4  -6  -9    2.27    0.19 
  -4  -6  -9    2.51    0.21 
   4   6   9    2.06    0.21 
   7  -7  -9    5.32    0.30 
  -7   7   9    5.04    0.29 
  -7   7   9    5.69    0.29 
   6  -7  -9    3.51    0.24 
  -6   7   9    3.64    0.24 
  -6   7   9    3.34    0.22 
   5  -7  -9   33.57    0.75 
  -5   7   9   33.37    0.77 
   4  -7  -9    5.24    0.25 
   4  -7  -9    5.02    0.26 
  -4   7   9    4.41    0.26 
   3  -7  -9    0.22    0.09 
   3  -7  -9    0.05    0.07 
  -3   7   9    0.31    0.10 
   2  -7  -9    1.87    0.16 
  -2   7   9    1.62    0.17 
   1  -7  -9    4.59    0.25 
  -1   7   9    4.19    0.25 
   0  -7  -9    3.85    0.24 
   0   7   9    4.23    0.26 
  -1  -7  -9    1.43    0.16 
   1   7   9    1.64    0.18 
  -2  -7  -9    0.24    0.09 
   2   7   9    0.29    0.11 
  -3  -7  -9    1.49    0.18 
   3   7   9    1.15    0.17 
   7  -8  -9    3.61    0.27 
  -7   8   9    3.19    0.25 
   6  -8  -9    0.96    0.17 
  -6   8   9    0.82    0.15 
   5  -8  -9   10.16    0.40 
  -5   8   9   10.27    0.42 
   4  -8  -9    8.54    0.35 
  -4   8   9    7.93    0.36 
   3  -8  -9    2.30    0.19 
   3  -8  -9    2.21    0.18 
  -3   8   9    1.86    0.19 
   2  -8  -9   10.59    0.39 
  -2   8   9   10.42    0.42 
   1  -8  -9    5.95    0.30 
  -1   8   9    5.70    0.31 
   0  -8  -9    0.62    0.13 
   0   8   9    0.65    0.14 
  -1  -8  -9    2.26    0.21 
   1   8   9    2.32    0.21 
  -2  -8  -9    4.53    0.28 
   2   8   9    4.11    0.29 
   5  -9  -9    3.05    0.24 
  -5   9   9    2.93    0.24 
   4  -9  -9    2.13    0.19 
  -4   9   9    2.12    0.21 
   3  -9  -9   10.12    0.38 
  -3   9   9   10.06    0.42 
   2  -9  -9   10.19    0.40 
  -2   9   9    9.36    0.41 
   1  -9  -9    1.32    0.17 
  -1   9   9    1.29    0.18 
   0  -9  -9    1.51    0.18 
   0   9   9    1.29    0.18 
   0  12 -10    5.85    0.32 
   0  12 -10    6.22    0.32 
   0 -12  10    7.20    0.58 
   3  11 -10    3.54    0.24 
  -3 -11  10    3.95    0.28 
  -3 -11  10    4.14    0.28 
   2  11 -10   18.86    0.55 
   2  11 -10   18.97    0.57 
  -2 -11  10   18.79    0.59 
   1  11 -10    4.17    0.26 
   1  11 -10    3.56    0.24 
  -1 -11  10    3.92    0.27 
   0  11 -10    0.47    0.12 
   0  11 -10    0.46    0.12 
   0 -11  10    0.37    0.11 
  -1  11 -10    5.44    0.28 
  -1  11 -10    5.19    0.29 
   1 -11  10    4.72    0.29 
  -2  11 -10    2.53    0.22 
   2 -11  10    2.34    0.22 
  -3  11 -10    1.92    0.20 
   3 -11  10    2.09    0.22 
   5  10 -10   20.91    0.58 
  -5 -10  10   20.07    0.63 
  -5 -10  10   21.15    0.63 
   4  10 -10    1.38    0.16 
  -4 -10  10    1.27    0.18 
  -4 -10  10    1.40    0.18 
   3  10 -10    4.54    0.26 
   3  10 -10    4.20    0.26 
  -3 -10  10    3.98    0.27 
   2  10 -10    0.74    0.14 
   2  10 -10    0.74    0.15 
  -2 -10  10    0.90    0.16 
   1  10 -10    6.13    0.30 
   1  10 -10    6.11    0.30 
  -1 -10  10    5.83    0.31 
   0  10 -10   23.50    0.59 
   0  10 -10   23.31    0.60 
   0 -10  10   22.65    0.62 
  -1  10 -10    0.18    0.08 
  -1  10 -10    0.18    0.09 
   1 -10  10    0.08    0.08 
  -2  10 -10    7.90    0.34 
   2 -10  10    7.14    0.35 
  -3  10 -10    2.40    0.21 
   3 -10  10    2.12    0.20 
  -4  10 -10    1.14    0.16 
   4 -10  10    0.74    0.15 
   6   9 -10    0.18    0.10 
  -6  -9  10    0.26    0.11 
   5   9 -10    4.20    0.24 
   5   9 -10    4.22    0.27 
  -5  -9  10    4.55    0.28 
   4   9 -10    1.88    0.17 
   4   9 -10    1.98    0.19 
  -4  -9  10    2.19    0.20 
   3   9 -10    4.84    0.26 
   3   9 -10    4.98    0.25 
  -3  -9  10    4.80    0.28 
   2   9 -10    0.13    0.07 
   2   9 -10    0.23    0.08 
  -2  -9  10    0.12    0.08 
   1   9 -10    3.02    0.20 
   1   9 -10    2.66    0.19 
  -1  -9  10    3.16    0.23 
   0   9 -10    3.87    0.22 
   0   9 -10    4.07    0.23 
   0  -9  10    3.56    0.23 
  -1   9 -10    2.58    0.18 
  -1   9 -10    2.38    0.18 
   1  -9  10    2.19    0.19 
  -2   9 -10    2.62    0.20 
   2  -9  10    2.45    0.20 
  -3   9 -10    8.20    0.35 
   3  -9  10    6.95    0.32 
  -4   9 -10    0.12    0.09 
   4  -9  10    0.05    0.08 
   4  -9  10    0.11    0.09 
  -5   9 -10    5.25    0.30 
   5  -9  10    4.91    0.29 
   6   8 -10    4.37    0.26 
  -6  -8  10    4.26    0.28 
   5   8 -10    6.14    0.30 
  -5  -8  10    6.35    0.32 
   4   8 -10    0.96    0.13 
   3   8 -10    4.22    0.22 
   3   8 -10    3.69    0.22 
  -3  -8  10    4.59    0.26 
   2   8 -10    0.36    0.10 
   2   8 -10    0.29    0.09 
  -2  -8  10    0.13    0.07 
   1   8 -10    1.21    0.13 
   1   8 -10    1.02    0.13 
  -1  -8  10    1.22    0.14 
   0   8 -10    1.48    0.14 
   0  -8  10    1.31    0.15 
  -1   8 -10    0.50    0.10 
  -1   8 -10    0.72    0.13 
   1  -8  10    0.70    0.12 
   1  -8  10    0.55    0.10 
  -2   8 -10    1.54    0.15 
  -2   8 -10    1.47    0.13 
   2  -8  10    1.27    0.15 
   2  -8  10    1.60    0.15 
  -3   8 -10    1.34    0.15 
   3  -8  10    1.19    0.14 
   3  -8  10    1.15    0.14 
  -4   8 -10    0.56    0.13 
   4  -8  10    0.45    0.11 
   4  -8  10    0.57    0.12 
  -5   8 -10    5.75    0.31 
   5  -8  10    5.20    0.30 
   6   7 -10    1.32    0.16 
  -6  -7  10    1.76    0.18 
   5   7 -10   12.78    0.42 
  -5  -7  10   13.97    0.46 
   4   7 -10    2.60    0.17 
   4   7 -10    2.26    0.18 
  -4  -7  10    2.15    0.18 
   3   7 -10    0.38    0.10 
   3   7 -10    0.52    0.10 
   2   7 -10    5.74    0.24 
   2   7 -10    5.26    0.25 
  -2  -7  10    6.12    0.28 
  -2  -7  10    5.80    0.23 
   1   7 -10    7.66    0.29 
   1   7 -10    7.40    0.27 
  -1  -7  10    6.75    0.29 
  -1  -7  10    7.60    0.27 
   0   7 -10    8.76    0.30 
   0   7 -10    8.73    0.31 
   0  -7  10    8.33    0.29 
   0  -7  10    8.46    0.32 
  -1   7 -10    3.29    0.19 
  -1   7 -10    3.45    0.19 
   1  -7  10    3.10    0.18 
   1  -7  10    2.94    0.19 
  -2   7 -10    7.03    0.29 
  -2   7 -10    7.00    0.26 
   2  -7  10    6.57    0.28 
   2  -7  10    6.19    0.27 
  -3   7 -10   13.50    0.42 
   3  -7  10   12.77    0.42 
   3  -7  10   13.04    0.40 
  -4   7 -10    0.92    0.13 
   4  -7  10    0.69    0.13 
  -5   7 -10    9.74    0.39 
   5  -7  10    9.92    0.40 
  -6   7 -10    7.53    0.36 
   6  -7  10    7.06    0.35 
   8   6 -10    0.90    0.16 
  -8  -6  10    1.01    0.18 
   7   6 -10   10.03    0.38 
  -7  -6  10   10.50    0.41 
   6   6 -10    0.42    0.11 
  -6  -6  10    0.26    0.10 
   5   6 -10   14.65    0.44 
  -5  -6  10   14.87    0.47 
  -5  -6  10   15.57    0.50 
   4   6 -10    5.01    0.24 
   4   6 -10    4.75    0.32 
  -4  -6  10    4.97    0.25 
  -4  -6  10    4.68    0.22 
   3   6 -10    3.01    0.19 
   3   6 -10    3.21    0.17 
  -3  -6  10    3.14    0.20 
  -3  -6  10    3.26    0.18 
   2   6 -10    1.96    0.14 
   2   6 -10    1.71    0.14 
  -2  -6  10    1.90    0.16 
  -2  -6  10    1.84    0.14 
   1   6 -10    5.12    0.21 
   1   6 -10    4.60    0.22 
  -1  -6  10    4.63    0.21 
  -1  -6  10    4.75    0.23 
   0   6 -10    7.61    0.28 
   0   6 -10    7.08    0.26 
   0  -6  10    7.11    0.28 
   0  -6  10    7.15    0.27 
  -1   6 -10   11.47    0.34 
  -1   6 -10   11.79    0.35 
   1  -6  10   11.00    0.35 
   1  -6  10   10.25    0.34 
  -2   6 -10    6.46    0.27 
  -2   6 -10    5.86    0.24 
   2  -6  10    5.32    0.24 
   2  -6  10    5.86    0.26 
  -3   6 -10   34.79    0.72 
   3  -6  10   33.94    0.67 
   3  -6  10   33.98    0.72 
  -4   6 -10    0.81    0.13 
   4  -6  10    0.71    0.14 
  -5   6 -10    8.34    0.35 
   5  -6  10    7.07    0.34 
  -6   6 -10    5.63    0.31 
   6  -6  10    5.16    0.31 
  -8  -5  10    4.49    0.28 
   7   5 -10   33.71    0.72 
  -7  -5  10   34.16    0.72 
  -7  -5  10   34.40    0.78 
   6   5 -10    1.01    0.13 
  -6  -5  10    1.27    0.14 
  -6  -5  10    0.94    0.14 
   5   5 -10   41.03    0.79 
  -5  -5  10   41.06    0.77 
  -5  -5  10   40.86    0.83 
   4   5 -10   11.90    0.37 
  -4  -5  10   12.33    0.36 
  -4  -5  10   11.89    0.39 
   3   5 -10    4.44    0.22 
   3   5 -10    4.83    0.19 
  -3  -5  10    4.82    0.22 
  -3  -5  10    4.72    0.23 
   2   5 -10   15.81    0.36 
   2   5 -10   16.68    0.43 
  -2  -5  10   17.36    0.43 
  -2  -5  10   16.36    0.44 
   1   5 -10    5.26    0.20 
   1   5 -10    5.16    0.23 
  -1  -5  10    5.63    0.23 
  -1  -5  10    5.23    0.23 
   0   5 -10   43.97    0.74 
   0   5 -10   42.86    0.76 
   0  -5  10   42.00    0.76 
   0  -5  10   42.61    0.77 
  -1   5 -10    0.84    0.10 
  -1   5 -10    0.91    0.11 
   1  -5  10    0.89    0.11 
   1  -5  10    0.81    0.11 
  -2   5 -10   33.06    0.65 
  -2   5 -10   33.11    0.63 
   2  -5  10   30.72    0.66 
   2  -5  10   30.68    0.61 
  -3   5 -10   10.10    0.31 
  -3   5 -10    9.63    0.33 
   3  -5  10    9.28    0.34 
  -4   5 -10    1.22    0.14 
   4  -5  10    0.99    0.14 
  -5   5 -10   13.49    0.44 
   5  -5  10   12.55    0.45 
  -6   5 -10   13.89    0.47 
   6  -5  10   13.35    0.49 
  -8  -4  10    5.93    0.31 
  -8  -4  10    5.89    0.29 
   7   4 -10   26.72    0.61 
  -7  -4  10   28.44    0.66 
  -7  -4  10   27.78    0.68 
   6   4 -10    1.08    0.13 
  -6  -4  10    1.46    0.16 
  -6  -4  10    1.24    0.13 
   5   4 -10   19.67    0.49 
  -5  -4  10   19.93    0.49 
  -5  -4  10   20.07    0.53 
   4   4 -10    4.02    0.20 
  -4  -4  10    4.20    0.21 
  -4  -4  10    4.02    0.22 
   3   4 -10    1.42    0.13 
  -3  -4  10    1.13    0.12 
  -3  -4  10    1.07    0.11 
   2   4 -10   31.87    0.63 
   2   4 -10   31.62    0.54 
  -2  -4  10   30.38    0.61 
  -2  -4  10   29.86    0.62 
   1   4 -10    0.54    0.09 
   1   4 -10    0.53    0.07 
  -1  -4  10    0.75    0.10 
  -1  -4  10    0.70    0.10 
   0   4 -10   41.76    0.69 
   0   4 -10   41.14    0.73 
   0  -4  10   38.94    0.70 
   0  -4  10   38.51    0.72 
  -1   4 -10    1.71    0.13 
  -1   4 -10    1.79    0.13 
   1  -4  10    1.41    0.13 
   1  -4  10    1.84    0.13 
  -2   4 -10    4.72    0.21 
  -2   4 -10    4.79    0.21 
   2  -4  10    4.33    0.23 
   2  -4  10    4.36    0.19 
  -3   4 -10    7.50    0.26 
  -3   4 -10    7.92    0.30 
   3  -4  10    7.20    0.30 
  -4   4 -10    1.05    0.13 
   4  -4  10    0.75    0.13 
  -5   4 -10   45.28    0.89 
   5  -4  10   42.98    0.90 
  -6   4 -10    9.85    0.40 
   6  -4  10    8.69    0.39 
   9   3 -10    2.62    0.22 
  -9  -3  10    2.72    0.22 
   8   3 -10    3.68    0.24 
  -8  -3  10    3.54    0.23 
   7   3 -10    8.89    0.32 
  -7  -3  10    9.05    0.35 
  -7  -3  10    8.31    0.35 
   6   3 -10    2.68    0.17 
  -6  -3  10    2.97    0.21 
  -6  -3  10    2.60    0.18 
   5   3 -10    1.67    0.14 
  -5  -3  10    1.53    0.14 
  -5  -3  10    1.59    0.15 
   4   3 -10   17.45    0.44 
  -4  -3  10   17.47    0.46 
  -4  -3  10   17.48    0.44 
   3   3 -10    0.37    0.08 
  -3  -3  10    0.33    0.08 
  -3  -3  10    0.43    0.10 
   2   3 -10  144.24    1.91 
   2   3 -10  145.89    1.78 
  -2  -3  10  139.58    1.87 
  -2  -3  10  140.38    1.87 
   1   3 -10    6.59    0.20 
   1   3 -10    6.73    0.25 
  -1  -3  10    6.11    0.24 
  -1  -3  10    5.87    0.23 
   0   3 -10   53.01    0.80 
   0   3 -10   51.85    0.86 
   0  -3  10   51.48    0.82 
   0  -3  10   50.09    0.87 
  -1   3 -10   32.75    0.60 
  -1   3 -10   33.40    0.62 
   1  -3  10   32.59    0.59 
   1  -3  10   32.38    0.66 
  -2   3 -10    5.31    0.22 
  -2   3 -10    4.73    0.21 
   2  -3  10    4.55    0.23 
  -3   3 -10   55.72    0.93 
  -3   3 -10   54.91    0.89 
   3  -3  10   48.45    0.90 
  -4   3 -10   33.77    0.70 
   4  -3  10   30.22    0.70 
  -5   3 -10  108.07    1.64 
   5  -3  10   96.63    1.56 
  -6   3 -10    4.16    0.26 
   6  -3  10    3.52    0.26 
   9   2 -10    0.03    0.08 
  -9  -2  10    0.13    0.08 
   8   2 -10    8.02    0.34 
  -8  -2  10    8.91    0.36 
   7   2 -10    0.74    0.12 
  -7  -2  10    0.92    0.13 
   6   2 -10    0.75    0.12 
  -6  -2  10    0.80    0.13 
  -6  -2  10    0.60    0.12 
   5   2 -10    0.15    0.06 
  -5  -2  10    0.08    0.07 
  -5  -2  10    0.14    0.07 
   4   2 -10    9.47    0.30 
  -4  -2  10    9.42    0.33 
  -4  -2  10    9.16    0.31 
   3   2 -10   10.27    0.31 
  -3  -2  10   10.59    0.33 
  -3  -2  10   10.30    0.33 
   2   2 -10   10.56    0.32 
  -2  -2  10   10.81    0.33 
  -2  -2  10   10.16    0.31 
   1   2 -10    7.22    0.20 
   1   2 -10    7.18    0.26 
  -1  -2  10    7.04    0.25 
  -1  -2  10    6.58    0.26 
   0   2 -10    0.48    0.07 
   0   2 -10    0.45    0.09 
   0  -2  10    0.66    0.08 
  -1   2 -10   21.80    0.48 
  -1   2 -10   21.86    0.44 
   1  -2  10   21.10    0.42 
   1  -2  10   20.76    0.50 
  -2   2 -10    4.02    0.19 
  -2   2 -10    3.81    0.18 
   2  -2  10    3.55    0.21 
  -3   2 -10    8.89    0.30 
  -3   2 -10    9.13    0.30 
   3  -2  10    8.30    0.32 
  -4   2 -10    5.50    0.26 
  -4   2 -10    5.55    0.26 
   4  -2  10    4.65    0.26 
  -5   2 -10   10.44    0.38 
   5  -2  10   10.01    0.39 
  -6   2 -10   22.26    0.60 
   6  -2  10   20.21    0.60 
   9   1 -10   15.61    0.51 
  -9  -1  10   15.73    0.52 
   8   1 -10   40.07    0.86 
  -8  -1  10   41.56    0.88 
   7   1 -10    4.00    0.24 
  -7  -1  10    4.11    0.24 
   6   1 -10    7.94    0.28 
   6   1 -10    7.41    0.31 
  -6  -1  10    8.10    0.32 
   5   1 -10    3.38    0.18 
  -5  -1  10    2.72    0.18 
  -5  -1  10    3.17    0.19 
   4   1 -10    2.35    0.15 
  -4  -1  10    2.53    0.17 
  -4  -1  10    2.13    0.16 
   3   1 -10    3.70    0.18 
  -3  -1  10    3.46    0.19 
  -3  -1  10    3.75    0.19 
   2   1 -10   12.34    0.34 
  -2  -1  10   12.51    0.36 
  -2  -1  10   11.17    0.33 
   1   1 -10    2.62    0.16 
  -1  -1  10    2.28    0.15 
  -1  -1  10    2.35    0.14 
   0   1 -10   11.78    0.27 
   0   1 -10   10.99    0.32 
   0  -1  10   10.58    0.34 
   0  -1  10   10.75    0.29 
  -1   1 -10   13.32    0.32 
  -1   1 -10   12.79    0.36 
   1  -1  10   11.97    0.37 
   1  -1  10   12.44    0.31 
  -2   1 -10    4.77    0.20 
  -2   1 -10    4.86    0.21 
   2  -1  10    4.55    0.23 
   2  -1  10    4.44    0.18 
  -3   1 -10    1.54    0.13 
  -3   1 -10    1.44    0.13 
   3  -1  10    1.61    0.13 
   3  -1  10    1.54    0.15 
  -4   1 -10    0.24    0.09 
  -4   1 -10    0.28    0.08 
   4  -1  10    0.59    0.12 
  -5   1 -10    1.47    0.16 
   5  -1  10    1.58    0.17 
   5  -1  10    1.22    0.14 
  -6   1 -10    4.58    0.27 
   6  -1  10    3.90    0.27 
   6  -1  10    4.05    0.25 
   9   0 -10    4.28    0.27 
  -9   0  10    3.70    0.26 
   8   0 -10   16.86    0.52 
  -8   0  10   16.36    0.51 
   7   0 -10   64.02    1.13 
  -7   0  10   60.14    1.08 
   6   0 -10    3.33    0.18 
   6   0 -10    3.39    0.21 
  -6   0  10    3.47    0.18 
  -6   0  10    2.96    0.20 
   5   0 -10   86.78    1.25 
   5   0 -10   85.64    1.32 
  -5   0  10   87.42    1.21 
  -5   0  10   85.38    1.33 
   4   0 -10   26.33    0.54 
  -4   0  10   25.58    0.48 
  -4   0  10   25.60    0.57 
  -4   0  10   25.62    0.57 
   3   0 -10    6.46    0.24 
  -3   0  10    6.64    0.25 
  -3   0  10    5.92    0.19 
  -3   0  10    6.49    0.26 
   2   0 -10    1.56    0.12 
  -2   0  10    2.02    0.15 
  -2   0  10    1.85    0.11 
  -2   0  10    1.80    0.13 
   1   0 -10   46.54    0.79 
  -1   0  10   44.20    0.68 
  -1   0  10   43.72    0.79 
  -1   0  10   46.24    0.74 
   0   0 -10   28.57    0.58 
   0   0  10   28.43    0.51 
   0   0  10   28.43    0.60 
   0   0  10   28.07    0.51 
  -1   0 -10    0.82    0.09 
  -1   0 -10    1.07    0.11 
   1   0  10    0.99    0.10 
   1   0  10    0.95    0.11 
  -2   0 -10    2.24    0.15 
  -2   0 -10    2.12    0.14 
   2   0  10    2.06    0.14 
   2   0  10    2.21    0.17 
  -3   0 -10   20.39    0.48 
  -3   0 -10   20.14    0.48 
   3   0  10   19.18    0.51 
   3   0  10   19.57    0.47 
  -4   0 -10    5.93    0.27 
  -4   0 -10    6.19    0.25 
   4   0  10    5.85    0.28 
   4   0  10    5.81    0.26 
  -5   0 -10   12.92    0.42 
   5   0  10   12.16    0.40 
   5   0  10   11.45    0.42 
  -6   0 -10    0.22    0.10 
   6   0  10    0.13    0.10 
   6   0  10    0.25    0.10 
   9  -1 -10    6.19    0.33 
  -9   1  10    6.05    0.31 
  -9   1  10    5.53    0.30 
   8  -1 -10   13.04    0.46 
  -8   1  10   13.14    0.41 
  -8   1  10   13.50    0.46 
   7  -1 -10    3.95    0.24 
  -7   1  10    3.54    0.23 
  -7   1  10    3.93    0.21 
   6  -1 -10   17.93    0.42 
   6  -1 -10   17.34    0.49 
  -6   1  10   17.77    0.49 
  -6   1  10   17.89    0.43 
   5  -1 -10   16.99    0.41 
   5  -1 -10   17.41    0.46 
  -5   1  10   17.26    0.47 
  -5   1  10   17.37    0.41 
   4  -1 -10  149.83    1.95 
   4  -1 -10  149.96    2.00 
  -4   1  10  148.38    1.88 
  -4   1  10  144.44    1.98 
   3  -1 -10   70.32    1.07 
   3  -1 -10   70.09    1.07 
  -3   1  10   69.43    1.10 
  -3   1  10   69.61    1.00 
   2  -1 -10   40.19    0.73 
   2  -1 -10   42.25    0.71 
  -2   1  10   39.04    0.74 
  -2   1  10   41.03    0.66 
   1  -1 -10   12.15    0.31 
   1  -1 -10   11.69    0.34 
  -1   1  10   11.99    0.36 
  -1   1  10   11.94    0.31 
   0  -1 -10   21.34    0.44 
   0  -1 -10   21.24    0.49 
   0   1  10   20.48    0.49 
   0   1  10   20.81    0.44 
  -1  -1 -10   52.67    0.90 
  -1  -1 -10   52.02    0.80 
   1   1  10   49.38    0.88 
   1   1  10   50.22    0.83 
  -2  -1 -10    4.02    0.21 
  -2  -1 -10    3.58    0.18 
   2   1  10    3.77    0.21 
   2   1  10    3.79    0.20 
  -3  -1 -10   44.74    0.79 
  -3  -1 -10   45.00    0.82 
   3   1  10   43.25    0.85 
   3   1  10   43.67    0.81 
  -4  -1 -10    0.18    0.07 
  -4  -1 -10    0.21    0.08 
   4   1  10    0.18    0.08 
   4   1  10    0.20    0.09 
  -5  -1 -10    6.81    0.31 
   5   1  10    5.52    0.29 
   5   1  10    6.03    0.29 
  -6  -1 -10    3.25    0.23 
   6   1  10    2.98    0.23 
   6   1  10    3.20    0.24 
   9  -2 -10    0.63    0.14 
  -9   2  10    0.79    0.15 
  -9   2  10    0.73    0.14 
   8  -2 -10   15.76    0.51 
  -8   2  10   16.98    0.48 
  -8   2  10   17.00    0.53 
   7  -2 -10    4.02    0.24 
  -7   2  10    4.63    0.23 
  -7   2  10    4.88    0.26 
   6  -2 -10   12.56    0.37 
   6  -2 -10   13.09    0.42 
  -6   2  10   12.40    0.37 
  -6   2  10   12.29    0.41 
   5  -2 -10    7.87    0.27 
   5  -2 -10    7.66    0.30 
  -5   2  10    8.23    0.31 
  -5   2  10    7.85    0.28 
   4  -2 -10    5.32    0.22 
   4  -2 -10    5.50    0.25 
  -4   2  10    5.85    0.25 
  -4   2  10    5.73    0.23 
   3  -2 -10   16.66    0.42 
   3  -2 -10   16.61    0.41 
  -3   2  10   16.97    0.40 
  -3   2  10   16.02    0.43 
   2  -2 -10    3.28    0.17 
   2  -2 -10    3.57    0.19 
  -2   2  10    3.58    0.19 
  -2   2  10    3.23    0.17 
   1  -2 -10    0.18    0.06 
   1  -2 -10    0.21    0.06 
  -1   2  10    0.13    0.06 
  -1   2  10    0.11    0.06 
   0  -2 -10    4.57    0.22 
   0   2  10    4.19    0.20 
   0   2  10    4.72    0.22 
  -1  -2 -10   12.55    0.32 
  -1  -2 -10   12.66    0.38 
   1   2  10   12.21    0.36 
   1   2  10   12.20    0.38 
  -2  -2 -10    1.17    0.11 
  -2  -2 -10    1.12    0.13 
   2   2  10    0.95    0.12 
   2   2  10    0.97    0.12 
  -3  -2 -10    7.69    0.30 
  -3  -2 -10    8.05    0.29 
   3   2  10    7.47    0.31 
   3   2  10    8.06    0.32 
  -4  -2 -10    0.16    0.08 
  -4  -2 -10    0.16    0.08 
   4   2  10    0.12    0.07 
   4   2  10    0.03    0.07 
  -5  -2 -10    6.48    0.42 
  -5  -2 -10    6.37    0.30 
   5   2  10    6.00    0.30 
   5   2  10    5.74    0.30 
  -6  -2 -10   11.32    0.43 
   6   2  10   10.13    0.42 
   6   2  10   10.21    0.42 
   9  -3 -10    2.11    0.21 
  -9   3  10    1.80    0.18 
  -9   3  10    1.56    0.18 
   8  -3 -10    2.78    0.22 
  -8   3  10    2.61    0.20 
  -8   3  10    2.81    0.22 
   7  -3 -10    0.03    0.06 
  -7   3  10    0.05    0.06 
  -7   3  10    0.03    0.06 
   6  -3 -10    0.10    0.07 
  -6   3  10    0.13    0.07 
  -6   3  10    0.26    0.08 
   5  -3 -10   19.81    0.46 
   5  -3 -10   20.42    0.52 
  -5   3  10   18.23    0.46 
  -5   3  10   19.24    0.50 
   4  -3 -10    5.60    0.23 
   4  -3 -10    5.28    0.24 
  -4   3  10    5.41    0.25 
  -4   3  10    5.21    0.23 
   3  -3 -10    3.43    0.19 
   3  -3 -10    3.36    0.18 
  -3   3  10    3.00    0.17 
  -3   3  10    3.26    0.19 
   2  -3 -10    3.33    0.17 
   2  -3 -10    3.16    0.18 
  -2   3  10    3.62    0.20 
  -2   3  10    3.61    0.19 
   1  -3 -10   15.43    0.36 
   1  -3 -10   14.96    0.42 
  -1   3  10   14.69    0.40 
  -1   3  10   13.85    0.40 
   0  -3 -10    2.08    0.16 
   0   3  10    1.67    0.14 
   0   3  10    1.88    0.15 
  -1  -3 -10   22.39    0.54 
   1   3  10   22.09    0.53 
   1   3  10   22.48    0.54 
  -2  -3 -10    1.48    0.13 
  -2  -3 -10    1.63    0.15 
   2   3  10    1.50    0.15 
   2   3  10    1.49    0.15 
  -3  -3 -10   16.22    0.44 
  -3  -3 -10   16.07    0.46 
   3   3  10   15.32    0.47 
   3   3  10   15.64    0.46 
  -4  -3 -10    2.01    0.17 
  -4  -3 -10    2.12    0.18 
   4   3  10    2.03    0.19 
   4   3  10    2.18    0.19 
  -5  -3 -10   12.99    0.44 
  -5  -3 -10   12.70    0.42 
   5   3  10   12.23    0.45 
   9  -4 -10    2.67    0.25 
  -9   4  10    2.65    0.22 
  -9   4  10    2.77    0.23 
   8  -4 -10    0.81    0.15 
  -8   4  10    0.88    0.16 
  -8   4  10    1.06    0.17 
   7  -4 -10   10.58    0.41 
  -7   4  10   10.80    0.40 
  -7   4  10    9.65    0.36 
   6  -4 -10    0.09    0.06 
  -6   4  10    0.12    0.07 
  -6   4  10    0.00    0.05 
   5  -4 -10   40.96    0.75 
   5  -4 -10   40.83    0.82 
  -5   4  10   38.22    0.75 
  -5   4  10   37.65    0.76 
   4  -4 -10   22.78    0.54 
   4  -4 -10   21.79    0.51 
  -4   4  10   20.84    0.51 
  -4   4  10   20.30    0.51 
   3  -4 -10    2.39    0.16 
   3  -4 -10    2.41    0.16 
  -3   4  10    1.94    0.15 
  -3   4  10    2.39    0.17 
   2  -4 -10   11.50    0.36 
   2  -4 -10   11.92    0.34 
  -2   4  10   11.22    0.36 
  -2   4  10   11.52    0.35 
   1  -4 -10    1.06    0.12 
  -1   4  10    1.02    0.11 
  -1   4  10    1.29    0.13 
   0  -4 -10   17.93    0.48 
   0   4  10   18.79    0.47 
  -1  -4 -10    9.32    0.34 
   1   4  10    8.09    0.32 
   1   4  10    8.59    0.31 
  -2  -4 -10   20.30    0.53 
   2   4  10   22.07    0.53 
   2   4  10   20.05    0.56 
  -3  -4 -10   11.70    0.38 
  -3  -4 -10   12.09    0.41 
   3   4  10   11.98    0.43 
  -4  -4 -10    0.40    0.11 
  -4  -4 -10    0.43    0.11 
   4   4  10    0.34    0.12 
  -5  -4 -10    3.77    0.24 
  -5  -4 -10    3.82    0.25 
   5   4  10    3.46    0.26 
   8  -5 -10    6.08    0.33 
  -8   5  10    6.75    0.33 
  -8   5  10    6.07    0.31 
   7  -5 -10   18.31    0.56 
  -7   5  10   18.64    0.54 
  -7   5  10   17.66    0.52 
   6  -5 -10    0.68    0.13 
  -6   5  10    0.77    0.14 
  -6   5  10    0.72    0.13 
   5  -5 -10   55.27    1.01 
   5  -5 -10   54.68    0.92 
  -5   5  10   51.82    0.96 
  -5   5  10   53.48    0.96 
   4  -5 -10   12.71    0.38 
   4  -5 -10   13.00    0.40 
  -4   5  10   11.92    0.38 
  -4   5  10   12.47    0.40 
   3  -5 -10    6.46    0.27 
   3  -5 -10    6.36    0.27 
  -3   5  10    5.78    0.27 
  -3   5  10    6.08    0.26 
   2  -5 -10    1.46    0.13 
   2  -5 -10    1.47    0.14 
  -2   5  10    1.38    0.14 
  -2   5  10    1.78    0.14 
   1  -5 -10    1.98    0.17 
  -1   5  10    1.64    0.16 
  -1   5  10    1.85    0.15 
   0  -5 -10   19.08    0.52 
   0   5  10   16.99    0.49 
  -1  -5 -10    1.98    0.17 
   1   5  10    1.78    0.17 
  -2  -5 -10   23.38    0.60 
   2   5  10   20.86    0.58 
  -3  -5 -10    0.37    0.11 
  -3  -5 -10    0.50    0.12 
   3   5  10    0.39    0.12 
  -4  -5 -10   -0.04    0.06 
  -4  -5 -10    0.01    0.07 
   4   5  10   -0.04    0.07 
   8  -6 -10    4.56    0.31 
  -8   6  10    5.05    0.29 
  -8   6  10    5.09    0.30 
   7  -6 -10    9.93    0.41 
  -7   6  10    9.72    0.39 
  -7   6  10   10.62    0.40 
   6  -6 -10    0.17    0.09 
  -6   6  10    0.24    0.09 
  -6   6  10    0.16    0.08 
   5  -6 -10   17.83    0.52 
  -5   6  10   17.80    0.52 
  -5   6  10   18.12    0.50 
   4  -6 -10    4.01    0.23 
   4  -6 -10    4.47    0.23 
  -4   6  10    3.66    0.21 
  -4   6  10    4.03    0.24 
   3  -6 -10    0.04    0.06 
   3  -6 -10    0.12    0.07 
  -3   6  10    0.12    0.08 
   2  -6 -10    9.79    0.36 
  -2   6  10   10.45    0.39 
   1  -6 -10    1.49    0.15 
  -1   6  10    1.52    0.16 
   0  -6 -10   23.49    0.61 
   0   6  10   21.83    0.60 
  -1  -6 -10    1.13    0.15 
   1   6  10    1.13    0.16 
  -2  -6 -10    5.75    0.30 
   2   6  10    5.35    0.30 
  -3  -6 -10    5.80    0.31 
   3   6  10    5.22    0.30 
   7  -7 -10    5.63    0.32 
  -7   7  10    6.10    0.31 
  -7   7  10    5.72    0.32 
   6  -7 -10    1.01    0.17 
  -6   7  10    1.14    0.16 
   5  -7 -10    2.88    0.22 
  -5   7  10    2.51    0.21 
   4  -7 -10    7.36    0.32 
   4  -7 -10    6.92    0.30 
  -4   7  10    6.65    0.32 
   3  -7 -10    3.25    0.21 
   3  -7 -10    2.77    0.20 
  -3   7  10    2.85    0.22 
   2  -7 -10   36.07    0.77 
  -2   7  10   35.00    0.81 
   1  -7 -10    0.63    0.13 
  -1   7  10    0.90    0.16 
   0  -7 -10   21.58    0.59 
   0   7  10   21.00    0.62 
  -1  -7 -10    7.94    0.36 
   1   7  10    7.25    0.36 
  -2  -7 -10    3.98    0.27 
   2   7  10    3.46    0.26 
   6  -8 -10    0.50    0.13 
  -6   8  10    0.62    0.14 
   5  -8 -10    1.40    0.18 
  -5   8  10    1.36    0.18 
   4  -8 -10    0.04    0.08 
  -4   8  10    0.08    0.09 
   3  -8 -10    1.51    0.17 
  -3   8  10    1.32    0.17 
   2  -8 -10    0.64    0.13 
  -2   8  10    0.77    0.16 
   1  -8 -10   12.43    0.44 
  -1   8  10   12.92    0.49 
   0  -8 -10    1.20    0.17 
   0   8  10    0.82    0.17 
  -1  -8 -10   19.68    0.60 
   1   8  10   18.78    0.62 
  -4   9  10    0.21    0.11 
   3  -9 -10    5.76    0.31 
  -3   9  10    5.40    0.32 
   2  -9 -10    0.75    0.16 
  -2   9  10    0.78    0.16 
   1  -9 -10   13.95    0.50 
  -1   9  10   13.05    0.62 
   2  11 -11    0.13    0.09 
   2  11 -11    0.11    0.09 
  -2 -11  11    0.15    0.09 
   1  11 -11    3.71    0.24 
   1  11 -11    3.62    0.25 
  -1 -11  11    4.26    0.29 
   0  11 -11    8.60    0.37 
   0  11 -11    9.34    0.39 
   0 -11  11    8.32    0.40 
  -1  11 -11    4.27    0.27 
   1 -11  11    3.43    0.26 
  -2  11 -11   11.84    0.45 
   2 -11  11   10.81    0.45 
   4  10 -11    0.12    0.09 
   4  10 -11    0.05    0.08 
  -4 -10  11    0.15    0.10 
   3  10 -11   13.91    0.45 
   3  10 -11   12.91    0.47 
  -3 -10  11   12.48    0.47 
   2  10 -11    5.04    0.27 
   2  10 -11    5.44    0.29 
  -2 -10  11    4.95    0.30 
   1  10 -11    4.85    0.27 
   1  10 -11    4.72    0.26 
  -1 -10  11    4.71    0.29 
   0  10 -11    2.17    0.19 
   0  10 -11    2.08    0.18 
   0 -10  11    1.96    0.20 
  -1  10 -11    1.85    0.17 
  -1  10 -11    2.39    0.20 
   1 -10  11    1.96    0.20 
  -2  10 -11    4.15    0.26 
   2 -10  11    3.59    0.25 
  -3  10 -11    2.28    0.21 
   3 -10  11    1.93    0.20 
   5   9 -11    2.55    0.22 
  -5  -9  11    2.98    0.24 
   4   9 -11    0.30    0.09 
   4   9 -11    0.16    0.09 
  -4  -9  11    0.12    0.09 
   3   9 -11    9.90    0.36 
   3   9 -11    9.09    0.37 
  -3  -9  11    9.85    0.41 
   2   9 -11    0.59    0.12 
   2   9 -11    0.69    0.13 
  -2  -9  11    0.38    0.11 
   1   9 -11    4.36    0.25 
   1   9 -11    4.10    0.23 
  -1  -9  11    4.39    0.27 
   0   9 -11    3.52    0.22 
   0   9 -11    3.93    0.23 
   0  -9  11    3.49    0.24 
  -1   9 -11    0.24    0.09 
  -1   9 -11    0.34    0.10 
   1  -9  11    0.17    0.09 
  -2   9 -11    5.40    0.28 
   2  -9  11    5.75    0.30 
  -3   9 -11    1.06    0.15 
   3  -9  11    0.78    0.14 
  -4   9 -11    0.12    0.08 
   4  -9  11    0.09    0.09 
   6   8 -11    0.24    0.10 
  -6  -8  11    0.22    0.11 
   5   8 -11    6.91    0.33 
  -5  -8  11    7.02    0.34 
   4   8 -11    2.03    0.18 
  -4  -8  11    1.85    0.19 
   3   8 -11    3.93    0.24 
   3   8 -11    3.88    0.21 
  -3  -8  11    3.88    0.25 
   2   8 -11    0.10    0.07 
   2   8 -11    0.15    0.08 
  -2  -8  11    0.20    0.09 
   1   8 -11    3.51    0.21 
   1   8 -11    3.34    0.20 
  -1  -8  11    3.42    0.23 
   0   8 -11   21.63    0.53 
   0   8 -11   20.16    0.52 
   0  -8  11   19.89    0.73 
   0  -8  11   20.86    0.56 
  -1   8 -11    7.76    0.31 
  -1   8 -11    7.23    0.29 
   1  -8  11    7.72    0.33 
   1  -8  11    7.22    0.30 
  -2   8 -11    9.46    0.34 
  -2   8 -11    9.91    0.37 
   2  -8  11    8.66    0.35 
   2  -8  11    8.40    0.33 
  -3   8 -11   24.66    0.63 
   3  -8  11   21.64    0.57 
   3  -8  11   21.68    0.58 
  -4   8 -11    0.23    0.09 
   4  -8  11    0.20    0.09 
  -5   8 -11    9.86    0.41 
   5  -8  11    9.87    0.41 
   7   7 -11   12.10    0.44 
  -7  -7  11   13.81    0.50 
   6   7 -11    2.70    0.21 
  -6  -7  11    3.05    0.23 
   5   7 -11    8.48    0.35 
  -5  -7  11    8.99    0.38 
   4   7 -11    0.07    0.07 
  -4  -7  11    0.37    0.11 
   3   7 -11    7.91    0.28 
   3   7 -11    7.96    0.32 
  -3  -7  11    7.81    0.34 
   2   7 -11    6.20    0.25 
   2   7 -11    6.46    0.28 
  -2  -7  11    6.42    0.29 
  -2  -7  11    6.21    0.26 
   1   7 -11   11.88    0.38 
   1   7 -11   12.83    0.37 
  -1  -7  11   12.46    0.41 
  -1  -7  11   11.72    0.36 
   0   7 -11   29.41    0.64 
   0   7 -11   29.18    0.61 
   0  -7  11   27.88    0.60 
   0  -7  11   27.83    0.64 
  -1   7 -11    1.19    0.13 
  -1   7 -11    1.44    0.14 
   1  -7  11    1.26    0.14 
   1  -7  11    1.69    0.15 
  -2   7 -11    7.38    0.28 
  -2   7 -11    6.96    0.30 
   2  -7  11    6.95    0.30 
   2  -7  11    6.39    0.29 
  -3   7 -11    1.64    0.16 
   3  -7  11    1.92    0.18 
   3  -7  11    1.69    0.16 
  -4   7 -11    0.14    0.09 
   4  -7  11    0.09    0.08 
  -5   7 -11    3.95    0.26 
   5  -7  11    3.52    0.26 
   7   6 -11    6.90    0.32 
  -7  -6  11    7.20    0.35 
   6   6 -11    5.30    0.27 
  -6  -6  11    5.77    0.31 
   5   6 -11    4.77    0.25 
  -5  -6  11    4.71    0.23 
  -5  -6  11    4.21    0.26 
   4   6 -11   13.66    0.42 
  -4  -6  11   14.33    0.46 
  -4  -6  11   14.92    0.42 
   3   6 -11   11.64    0.38 
  -3  -6  11   11.49    0.40 
  -3  -6  11   10.76    0.34 
   2   6 -11    2.01    0.14 
   2   6 -11    2.02    0.16 
  -2  -6  11    1.94    0.15 
  -2  -6  11    1.82    0.16 
   1   6 -11    4.92    0.24 
   1   6 -11    5.00    0.21 
  -1  -6  11    4.55    0.24 
  -1  -6  11    4.82    0.23 
   0   6 -11   26.01    0.58 
   0   6 -11   26.58    0.56 
   0  -6  11   24.64    0.56 
   0  -6  11   24.13    0.57 
  -1   6 -11    1.35    0.13 
  -1   6 -11    1.68    0.14 
   1  -6  11    1.35    0.14 
   1  -6  11    1.37    0.14 
  -2   6 -11   10.70    0.35 
  -2   6 -11   10.80    0.34 
   2  -6  11   10.59    0.35 
   2  -6  11   10.04    0.37 
  -3   6 -11    0.52    0.11 
   3  -6  11    0.34    0.10 
  -4   6 -11    6.95    0.31 
   4  -6  11    6.71    0.32 
  -5   6 -11   10.97    0.42 
   5  -6  11    9.35    0.41 
  -6   6 -11    1.81    0.23 
  -8  -5  11    7.99    0.38 
   7   5 -11    4.19    0.25 
  -7  -5  11    4.20    0.24 
  -7  -5  11    4.21    0.27 
   6   5 -11   17.96    0.50 
  -6  -5  11   19.08    0.56 
  -6  -5  11   18.09    0.50 
   5   5 -11    1.83    0.16 
  -5  -5  11    1.80    0.16 
  -5  -5  11    1.74    0.17 
   4   5 -11   21.62    0.54 
  -4  -5  11   20.60    0.54 
  -4  -5  11   20.86    0.51 
   3   5 -11    5.52    0.25 
  -3  -5  11    5.73    0.25 
  -3  -5  11    5.36    0.26 
   2   5 -11    8.91    0.26 
   2   5 -11    8.62    0.31 
  -2  -5  11    9.41    0.32 
  -2  -5  11    9.27    0.33 
   1   5 -11    3.05    0.18 
   1   5 -11    3.07    0.16 
  -1  -5  11    2.67    0.18 
  -1  -5  11    2.48    0.17 
   0   5 -11   20.47    0.49 
   0   5 -11   20.85    0.46 
   0  -5  11   18.72    0.47 
   0  -5  11   18.88    0.48 
  -1   5 -11    2.97    0.17 
  -1   5 -11    3.40    0.19 
   1  -5  11    2.85    0.18 
   1  -5  11    2.83    0.19 
  -2   5 -11    1.48    0.13 
  -2   5 -11    1.41    0.13 
   2  -5  11    1.54    0.15 
   2  -5  11    1.46    0.13 
  -3   5 -11    3.40    0.23 
  -3   5 -11    3.30    0.20 
   3  -5  11    2.98    0.21 
  -4   5 -11    1.01    0.14 
   4  -5  11    1.21    0.15 
  -5   5 -11   39.00    0.84 
   5  -5  11   33.47    0.81 
  -6   5 -11    5.83    0.32 
   6  -5  11    5.72    0.32 
  -8  -4  11   15.07    0.48 
  -8  -4  11   15.37    0.52 
   7   4 -11   13.14    0.42 
  -7  -4  11   13.51    0.44 
  -7  -4  11   12.58    0.45 
   6   4 -11   23.88    0.58 
  -6  -4  11   24.35    0.63 
  -6  -4  11   24.84    0.60 
   5   4 -11    7.04    0.29 
  -5  -4  11    8.18    0.31 
  -5  -4  11    6.95    0.32 
   4   4 -11    7.08    0.29 
  -4  -4  11    6.49    0.29 
  -4  -4  11    6.85    0.28 
   3   4 -11   30.66    0.64 
  -3  -4  11   31.52    0.65 
  -3  -4  11   30.86    0.66 
   2   4 -11    3.99    0.21 
  -2  -4  11    3.73    0.20 
  -2  -4  11    3.84    0.21 
   1   4 -11  108.68    1.44 
   1   4 -11  107.91    1.54 
  -1  -4  11  103.93    1.51 
  -1  -4  11  103.47    1.49 
   0   4 -11   13.88    0.35 
   0   4 -11   13.76    0.39 
   0  -4  11   13.22    0.37 
   0  -4  11   13.22    0.40 
  -1   4 -11    7.03    0.26 
  -1   4 -11    7.46    0.28 
   1  -4  11    6.51    0.25 
   1  -4  11    6.48    0.28 
  -2   4 -11    0.48    0.10 
  -2   4 -11    0.63    0.11 
   2  -4  11    0.40    0.10 
  -3   4 -11    3.62    0.19 
  -3   4 -11    3.59    0.21 
   3  -4  11    3.48    0.22 
  -4   4 -11   10.21    0.37 
   4  -4  11    8.74    0.37 
  -5   4 -11    5.83    0.30 
   5  -4  11    5.69    0.32 
  -6   4 -11    1.42    0.18 
   6  -4  11    1.22    0.17 
   8   3 -11   16.97    0.53 
  -8  -3  11   18.04    0.54 
   7   3 -11    3.56    0.21 
  -7  -3  11    3.80    0.25 
  -7  -3  11    3.59    0.23 
   6   3 -11    7.69    0.30 
  -6  -3  11    6.54    0.29 
  -6  -3  11    7.15    0.32 
   5   3 -11    3.84    0.21 
  -5  -3  11    4.37    0.23 
  -5  -3  11    4.27    0.24 
   4   3 -11   10.70    0.35 
  -4  -3  11   11.83    0.39 
  -4  -3  11   10.94    0.36 
   3   3 -11    4.27    0.21 
  -3  -3  11    3.93    0.21 
  -3  -3  11    4.12    0.21 
   2   3 -11    5.45    0.24 
  -2  -3  11    5.37    0.24 
  -2  -3  11    5.19    0.24 
   1   3 -11   52.64    0.90 
   1   3 -11   53.83    0.81 
  -1  -3  11   54.15    0.94 
  -1  -3  11   53.64    0.90 
   0   3 -11   43.75    0.71 
   0   3 -11   43.89    0.79 
   0  -3  11   42.37    0.73 
   0  -3  11   41.10    0.79 
  -1   3 -11    7.84    0.28 
  -1   3 -11    7.97    0.26 
   1  -3  11    7.74    0.26 
   1  -3  11    7.57    0.30 
  -2   3 -11   19.49    0.47 
  -2   3 -11   20.31    0.47 
   2  -3  11   18.87    0.52 
  -3   3 -11    5.80    0.24 
  -3   3 -11    5.78    0.26 
   3  -3  11    5.28    0.27 
  -4   3 -11    2.05    0.17 
   4  -3  11    1.81    0.18 
  -5   3 -11    3.85    0.25 
   5  -3  11    3.25    0.24 
  -6   3 -11    0.02    0.08 
   6  -3  11    0.11    0.09 
   9   2 -11    7.75    0.37 
  -9  -2  11    7.72    0.36 
   8   2 -11   13.44    0.47 
  -8  -2  11   13.39    0.46 
   7   2 -11    0.36    0.12 
   7   2 -11    0.48    0.10 
  -7  -2  11    0.52    0.12 
   6   2 -11   12.54    0.38 
  -6  -2  11   12.35    0.42 
  -6  -2  11   12.26    0.41 
   5   2 -11    5.52    0.24 
  -5  -2  11    5.25    0.26 
  -5  -2  11    5.46    0.26 
   4   2 -11   10.15    0.33 
  -4  -2  11   10.71    0.36 
  -4  -2  11    9.65    0.34 
   3   2 -11    0.46    0.09 
  -3  -2  11    0.36    0.09 
  -3  -2  11    0.41    0.09 
   2   2 -11   62.35    1.01 
  -2  -2  11   61.28    0.99 
  -2  -2  11   59.65    1.01 
   1   2 -11   29.11    0.60 
  -1  -2  11   28.98    0.57 
  -1  -2  11   28.21    0.62 
   0   2 -11    1.95    0.12 
   0   2 -11    1.90    0.14 
   0  -2  11    2.05    0.16 
   0  -2  11    1.95    0.13 
  -1   2 -11    0.07    0.05 
  -1   2 -11    0.06    0.06 
   1  -2  11    0.03    0.05 
  -2   2 -11    2.32    0.16 
  -2   2 -11    2.31    0.15 
   2  -2  11    1.95    0.17 
  -3   2 -11    2.31    0.16 
  -3   2 -11    2.60    0.17 
   3  -2  11    2.09    0.18 
  -4   2 -11   25.47    0.61 
   4  -2  11   22.48    0.61 
  -5   2 -11    3.53    0.23 
   5  -2  11    3.35    0.25 
  -6   2 -11    1.72    0.19 
   6  -2  11    1.40    0.19 
   9   1 -11   12.37    0.47 
  -9  -1  11   13.34    0.48 
   8   1 -11   14.61    0.49 
  -8  -1  11   14.61    0.48 
   7   1 -11    2.33    0.19 
  -7  -1  11    2.36    0.20 
   6   1 -11   31.61    0.64 
   6   1 -11   30.51    0.69 
  -6  -1  11   29.26    0.67 
   5   1 -11    4.85    0.22 
  -5  -1  11    4.57    0.24 
  -5  -1  11    4.58    0.25 
   4   1 -11    1.06    0.11 
  -4  -1  11    0.97    0.12 
  -4  -1  11    0.86    0.12 
   3   1 -11    1.18    0.12 
  -3  -1  11    1.17    0.12 
  -3  -1  11    1.19    0.13 
   2   1 -11    6.54    0.26 
  -2  -1  11    6.21    0.27 
  -2  -1  11    6.97    0.26 
   1   1 -11   28.61    0.59 
  -1  -1  11   28.76    0.63 
  -1  -1  11   28.91    0.57 
   0   1 -11   17.24    0.44 
   0  -1  11   17.83    0.40 
   0  -1  11   18.25    0.48 
  -1   1 -11    3.20    0.18 
  -1   1 -11    3.09    0.16 
   1  -1  11    2.96    0.19 
  -2   1 -11    4.66    0.21 
  -2   1 -11    4.30    0.22 
   2  -1  11    4.09    0.23 
  -3   1 -11    6.81    0.27 
  -3   1 -11    7.03    0.28 
   3  -1  11    6.48    0.30 
  -4   1 -11    0.57    0.11 
  -4   1 -11    0.81    0.14 
   4  -1  11    0.53    0.11 
  -5   1 -11    4.57    0.26 
   5  -1  11    4.21    0.27 
  -6   1 -11    0.09    0.08 
   6  -1  11    0.13    0.10 
   9   0 -11   45.27    0.98 
  -9   0  11   46.98    1.00 
   8   0 -11    9.03    0.39 
  -8   0  11    9.69    0.39 
   7   0 -11   21.88    0.59 
  -7   0  11   19.99    0.56 
   6   0 -11   18.97    0.52 
   6   0 -11   19.93    0.47 
  -6   0  11   19.24    0.53 
   5   0 -11   30.47    0.62 
   5   0 -11   30.99    0.67 
  -5   0  11   30.08    0.66 
   4   0 -11    1.21    0.13 
   4   0 -11    1.57    0.13 
  -4   0  11    1.05    0.12 
   3   0 -11   88.45    1.31 
  -3   0  11   83.54    1.30 
  -3   0  11   86.11    1.29 
   2   0 -11   13.88    0.39 
  -2   0  11   13.20    0.36 
  -2   0  11   12.87    0.39 
   1   0 -11   29.81    0.62 
  -1   0  11   29.38    0.55 
  -1   0  11   27.10    0.61 
   0   0 -11    1.02    0.11 
   0   0  11    1.28    0.13 
  -1   0 -11    1.37    0.13 
  -1   0 -11    1.46    0.11 
   1   0  11    1.54    0.14 
   1   0  11    1.36    0.14 
  -2   0 -11    3.87    0.19 
  -2   0 -11    4.03    0.21 
   2   0  11    3.71    0.20 
   2   0  11    3.30    0.21 
  -3   0 -11    9.71    0.33 
  -3   0 -11    9.36    0.33 
   3   0  11    8.32    0.34 
   3   0  11    8.78    0.31 
  -4   0 -11    4.53    0.24 
  -4   0 -11    3.92    0.22 
   4   0  11    4.08    0.25 
   4   0  11    3.75    0.23 
  -5   0 -11    3.81    0.24 
   5   0  11    3.84    0.26 
   9  -1 -11   13.76    0.50 
  -9   1  11   13.87    0.50 
   8  -1 -11    4.45    0.28 
  -8   1  11    3.73    0.25 
   7  -1 -11    0.83    0.15 
  -7   1  11    1.14    0.15 
   6  -1 -11    2.02    0.18 
   6  -1 -11    2.22    0.16 
  -6   1  11    2.56    0.19 
   5  -1 -11   13.80    0.38 
   5  -1 -11   13.11    0.41 
  -5   1  11   12.57    0.41 
  -5   1  11   13.02    0.35 
   4  -1 -11    2.61    0.17 
   4  -1 -11    2.93    0.17 
  -4   1  11    2.33    0.17 
  -4   1  11    2.29    0.14 
   3  -1 -11   52.00    0.88 
   3  -1 -11   50.68    0.88 
  -3   1  11   50.89    0.91 
  -3   1  11   50.73    0.80 
   2  -1 -11    1.10    0.12 
   2  -1 -11    1.12    0.11 
  -2   1  11    0.93    0.09 
  -2   1  11    1.25    0.13 
   1  -1 -11    8.26    0.26 
   1  -1 -11    8.44    0.30 
  -1   1  11    8.38    0.31 
  -1   1  11    7.90    0.26 
   0  -1 -11    1.85    0.15 
   0   1  11    1.69    0.15 
   0   1  11    1.76    0.13 
  -1  -1 -11    3.03    0.19 
   1   1  11    2.62    0.18 
   1   1  11    2.61    0.16 
  -2  -1 -11    6.07    0.27 
  -2  -1 -11    6.36    0.24 
   2   1  11    6.58    0.29 
   2   1  11    5.61    0.25 
  -3  -1 -11    3.37    0.20 
  -3  -1 -11    3.45    0.21 
   3   1  11    3.43    0.21 
   3   1  11    3.21    0.22 
  -4  -1 -11    2.48    0.18 
  -4  -1 -11    2.49    0.19 
   4   1  11    2.61    0.21 
   4   1  11    2.42    0.19 
  -5  -1 -11    3.00    0.22 
   5   1  11    2.84    0.23 
   5   1  11    2.72    0.22 
   9  -2 -11    0.78    0.16 
  -9   2  11    0.47    0.13 
   8  -2 -11    4.83    0.29 
  -8   2  11    4.80    0.29 
  -8   2  11    5.01    0.26 
   7  -2 -11    3.43    0.23 
  -7   2  11    3.49    0.23 
  -7   2  11    3.31    0.20 
   6  -2 -11    0.48    0.10 
   6  -2 -11    0.50    0.12 
  -6   2  11    0.62    0.12 
  -6   2  11    0.47    0.11 
   5  -2 -11   22.46    0.51 
   5  -2 -11   22.62    0.56 
  -5   2  11   22.59    0.51 
  -5   2  11   22.35    0.57 
   4  -2 -11    5.04    0.23 
   4  -2 -11    5.36    0.25 
  -4   2  11    5.38    0.26 
  -4   2  11    5.30    0.22 
   3  -2 -11   11.97    0.36 
   3  -2 -11   12.35    0.37 
  -3   2  11   11.97    0.34 
  -3   2  11   11.81    0.38 
   2  -2 -11    8.03    0.27 
   2  -2 -11    7.65    0.29 
  -2   2  11    7.73    0.30 
  -2   2  11    7.66    0.27 
   1  -2 -11    4.78    0.22 
   1  -2 -11    4.29    0.22 
  -1   2  11    4.69    0.21 
  -1   2  11    4.28    0.23 
   0  -2 -11   60.42    1.03 
   0   2  11   56.95    0.99 
  -1  -2 -11   12.30    0.39 
   1   2  11   12.35    0.40 
   1   2  11   11.39    0.36 
  -2  -2 -11   38.01    0.75 
  -2  -2 -11   39.45    0.78 
   2   2  11   37.45    0.77 
   2   2  11   36.45    0.75 
  -3  -2 -11   24.56    0.56 
  -3  -2 -11   24.66    0.60 
   3   2  11   23.49    0.60 
   3   2  11   23.11    0.58 
  -4  -2 -11    4.28    0.24 
  -4  -2 -11    4.65    0.25 
   4   2  11    4.59    0.27 
   4   2  11    4.15    0.26 
  -5  -2 -11   11.19    0.41 
   5   2  11    9.05    0.39 
   5   2  11    9.77    0.40 
   8  -3 -11    8.24    0.38 
  -8   3  11    7.82    0.33 
  -8   3  11    7.72    0.36 
   7  -3 -11   13.85    0.48 
  -7   3  11   13.14    0.45 
  -7   3  11   13.85    0.43 
   6  -3 -11    1.03    0.14 
  -6   3  11    1.13    0.14 
  -6   3  11    0.93    0.12 
   5  -3 -11   19.15    0.48 
   5  -3 -11   19.12    0.52 
  -5   3  11   18.47    0.51 
  -5   3  11   18.30    0.47 
   4  -3 -11    0.83    0.11 
   4  -3 -11    0.83    0.14 
  -4   3  11    0.99    0.11 
  -4   3  11    0.82    0.12 
   3  -3 -11   10.32    0.34 
   3  -3 -11   10.64    0.35 
  -3   3  11    9.85    0.32 
  -3   3  11    9.79    0.34 
   2  -3 -11    1.64    0.14 
   2  -3 -11    1.32    0.12 
  -2   3  11    1.57    0.14 
  -2   3  11    1.67    0.15 
   1  -3 -11   11.72    0.38 
  -1   3  11   11.38    0.36 
  -1   3  11   11.58    0.38 
   0  -3 -11   26.60    0.62 
   0   3  11   24.50    0.58 
   0   3  11   23.94    0.57 
  -1  -3 -11    5.66    0.27 
   1   3  11    5.69    0.27 
   1   3  11    5.81    0.27 
  -2  -3 -11   19.31    0.53 
   2   3  11   19.13    0.53 
   2   3  11   19.72    0.53 
  -3  -3 -11    6.84    0.31 
  -3  -3 -11    6.39    0.28 
   3   3  11    6.32    0.30 
   3   3  11    5.97    0.30 
  -4  -3 -11    3.25    0.22 
  -4  -3 -11    2.97    0.22 
   4   3  11    2.93    0.23 
   8  -4 -11   11.61    0.46 
  -8   4  11   11.77    0.44 
  -8   4  11   10.96    0.41 
   7  -4 -11    4.15    0.27 
  -7   4  11    4.00    0.26 
  -7   4  11    4.32    0.25 
   6  -4 -11    2.16    0.19 
  -6   4  11    1.88    0.18 
  -6   4  11    1.73    0.16 
   5  -4 -11    7.40    0.32 
   5  -4 -11    7.45    0.29 
  -5   4  11    6.90    0.30 
  -5   4  11    7.11    0.30 
   4  -4 -11    5.46    0.26 
   4  -4 -11    5.42    0.25 
  -4   4  11    5.17    0.25 
  -4   4  11    5.47    0.26 
   3  -4 -11    9.24    0.32 
   3  -4 -11    8.96    0.33 
  -3   4  11    8.61    0.32 
  -3   4  11    8.44    0.32 
   2  -4 -11    0.96    0.12 
   2  -4 -11    0.80    0.11 
  -2   4  11    0.79    0.12 
  -2   4  11    0.82    0.12 
   1  -4 -11    1.42    0.14 
  -1   4  11    1.36    0.14 
  -1   4  11    1.16    0.13 
   0  -4 -11   14.49    0.44 
   0   4  11   13.06    0.42 
   0   4  11   13.68    0.41 
  -1  -4 -11    3.97    0.24 
   1   4  11    4.57    0.24 
   1   4  11    4.10    0.24 
  -2  -4 -11    2.29    0.19 
   2   4  11    2.32    0.19 
  -3  -4 -11    1.42    0.17 
   3   4  11    0.76    0.14 
  -4  -4 -11    1.76    0.18 
  -4  -4 -11    1.81    0.19 
   4   4  11    2.06    0.20 
   8  -5 -11    5.48    0.34 
  -8   5  11    5.42    0.31 
  -8   5  11    5.19    0.29 
   7  -5 -11    1.14    0.16 
  -7   5  11    1.11    0.15 
  -7   5  11    1.41    0.17 
   6  -5 -11    6.78    0.33 
  -6   5  11    6.66    0.31 
  -6   5  11    6.58    0.31 
   5  -5 -11    3.61    0.23 
   5  -5 -11    3.54    0.21 
  -5   5  11    3.11    0.21 
  -5   5  11    3.34    0.22 
   4  -5 -11   17.21    0.49 
   4  -5 -11   17.93    0.48 
  -4   5  11   16.60    0.48 
  -4   5  11   17.03    0.48 
   3  -5 -11   16.13    0.45 
   3  -5 -11   15.46    0.45 
  -3   5  11   15.63    0.47 
  -3   5  11   15.49    0.45 
   2  -5 -11    0.33    0.09 
  -2   5  11    0.58    0.11 
  -2   5  11    0.49    0.12 
   1  -5 -11   10.90    0.39 
  -1   5  11   11.61    0.40 
  -1   5  11   10.20    0.37 
   0  -5 -11    8.80    0.35 
   0   5  11    8.44    0.36 
  -1  -5 -11    1.11    0.17 
   1   5  11    1.20    0.16 
  -2  -5 -11    1.29    0.16 
   2   5  11    1.37    0.17 
  -3  -5 -11    2.88    0.23 
   3   5  11    2.92    0.23 
   7  -6 -11    1.55    0.18 
  -7   6  11    1.80    0.19 
  -7   6  11    1.29    0.17 
   6  -6 -11    2.42    0.21 
  -6   6  11    2.51    0.21 
  -6   6  11    2.48    0.20 
   5  -6 -11    2.92    0.22 
  -5   6  11    3.06    0.22 
  -5   6  11    3.24    0.22 
   4  -6 -11    2.35    0.19 
   4  -6 -11    2.03    0.18 
  -4   6  11    2.09    0.19 
  -4   6  11    1.99    0.17 
   3  -6 -11    7.23    0.31 
   3  -6 -11    7.11    0.32 
  -3   6  11    7.53    0.34 
   2  -6 -11    0.44    0.11 
  -2   6  11    0.74    0.14 
   1  -6 -11   10.77    0.39 
  -1   6  11   10.49    0.41 
   0  -6 -11   14.93    0.49 
   0   6  11   14.03    0.49 
  -1  -6 -11    3.48    0.24 
   1   6  11    3.11    0.24 
  -2  -6 -11    6.19    0.32 
   2   6  11    6.19    0.34 
   6  -7 -11    6.12    0.32 
  -6   7  11    5.81    0.32 
   5  -7 -11   18.85    0.56 
  -5   7  11   19.75    0.59 
   4  -7 -11   13.36    0.45 
   4  -7 -11   13.36    0.43 
  -4   7  11   12.32    0.46 
   3  -7 -11    3.30    0.23 
  -3   7  11    3.07    0.23 
   2  -7 -11    0.36    0.12 
  -2   7  11    0.42    0.13 
   1  -7 -11    6.23    0.31 
  -1   7  11    5.77    0.32 
   0  -7 -11   33.91    0.80 
   0   7  11   32.21    0.81 
  -1  -7 -11    3.25    0.25 
   1   7  11    3.26    0.26 
  -4   8  11    9.07    0.41 
   3  -8 -11   58.79    1.10 
  -3   8  11   57.59    1.15 
   2  -8 -11   26.48    0.69 
  -2   8  11   26.39    0.73 
   1  -8 -11    8.00    0.37 
  -1   8  11    7.97    0.39 
   3  10 -12    1.75    0.19 
   3  10 -12    2.45    0.20 
  -3 -10  12    2.06    0.21 
   2  10 -12    0.59    0.15 
   2  10 -12    0.36    0.10 
  -2 -10  12    0.64    0.14 
   1  10 -12    0.98    0.14 
   1  10 -12    0.80    0.15 
  -1 -10  12    0.74    0.16 
   0  10 -12    3.32    0.23 
   0  10 -12    3.66    0.24 
   0 -10  12    2.93    0.24 
  -1  10 -12    3.75    0.24 
  -1  10 -12    3.24    0.24 
   1 -10  12    3.83    0.27 
  -2  10 -12    2.43    0.21 
   2 -10  12    1.90    0.20 
   5   9 -12    3.27    0.25 
  -5  -9  12    3.88    0.28 
   4   9 -12    4.03    0.26 
  -4  -9  12    4.82    0.30 
   3   9 -12   15.40    0.60 
   3   9 -12   15.73    0.51 
  -3  -9  12   16.21    0.54 
   2   9 -12    0.35    0.10 
   2   9 -12    0.31    0.09 
  -2  -9  12    0.33    0.12 
   1   9 -12   12.03    0.40 
   1   9 -12   12.31    0.43 
  -1  -9  12   11.06    0.43 
   0   9 -12   13.18    0.44 
   0   9 -12   12.25    0.41 
   0  -9  12   12.56    0.45 
  -1   9 -12    1.11    0.14 
  -1   9 -12    0.89    0.15 
   1  -9  12    0.79    0.15 
  -2   9 -12    6.52    0.32 
   2  -9  12    6.15    0.32 
  -3   9 -12    0.85    0.15 
   3  -9  12    0.99    0.17 
   6   8 -12    3.30    0.25 
  -6  -8  12    3.03    0.25 
   5   8 -12    4.52    0.28 
  -5  -8  12    4.29    0.28 
   4   8 -12    3.81    0.25 
  -4  -8  12    4.72    0.29 
   3   8 -12   11.08    0.41 
  -3  -8  12   10.76    0.42 
   2   8 -12    7.24    0.32 
   2   8 -12    7.23    0.29 
  -2  -8  12    7.05    0.33 
   1   8 -12    1.57    0.15 
   1   8 -12    1.47    0.16 
  -1  -8  12    1.43    0.17 
   0   8 -12   21.68    0.56 
   0   8 -12   23.17    0.56 
   0  -8  12   20.81    0.57 
   0  -8  12   20.11    0.53 
  -1   8 -12    3.00    0.21 
  -1   8 -12    2.77    0.20 
   1  -8  12    2.81    0.20 
   1  -8  12    3.20    0.22 
  -2   8 -12   14.65    0.46 
   2  -8  12   13.51    0.45 
   2  -8  12   13.82    0.45 
  -3   8 -12    0.35    0.12 
   3  -8  12    0.18    0.10 
  -4   8 -12   23.40    0.64 
   4  -8  12   21.86    0.64 
   6   7 -12   15.93    0.51 
  -6  -7  12   16.37    0.55 
   5   7 -12    4.31    0.26 
  -5  -7  12    4.20    0.27 
   4   7 -12   29.88    0.70 
  -4  -7  12   30.01    0.73 
   3   7 -12   13.12    0.43 
  -3  -7  12   12.90    0.45 
  -3  -7  12   12.66    0.55 
   2   7 -12    2.78    0.18 
   2   7 -12    2.93    0.20 
  -2  -7  12    2.38    0.17 
  -2  -7  12    2.68    0.21 
   1   7 -12    7.10    0.27 
   1   7 -12    6.69    0.30 
  -1  -7  12    6.77    0.31 
  -1  -7  12    6.84    0.29 
   0   7 -12    0.84    0.12 
   0   7 -12    0.99    0.13 
   0  -7  12    0.68    0.13 
   0  -7  12    0.84    0.14 
  -1   7 -12    6.82    0.29 
  -1   7 -12    6.55    0.29 
   1  -7  12    6.50    0.29 
   1  -7  12    6.24    0.29 
  -2   7 -12    5.00    0.26 
  -2   7 -12    5.12    0.25 
   2  -7  12    5.39    0.27 
   2  -7  12    4.71    0.26 
  -3   7 -12   11.99    0.42 
   3  -7  12   12.22    0.44 
  -4   7 -12    0.52    0.13 
   4  -7  12    0.46    0.13 
   7   6 -12    0.72    0.15 
  -7  -6  12    0.74    0.16 
   6   6 -12   14.04    0.46 
  -6  -6  12   14.43    0.51 
   5   6 -12    4.43    0.26 
  -5  -6  12    4.28    0.27 
  -5  -6  12    4.60    0.24 
   4   6 -12    4.96    0.26 
  -4  -6  12    4.76    0.27 
  -4  -6  12    4.83    0.24 
   3   6 -12    7.57    0.32 
  -3  -6  12    7.86    0.30 
  -3  -6  12    6.87    0.31 
   2   6 -12    5.34    0.26 
  -2  -6  12    4.96    0.26 
  -2  -6  12    5.11    0.25 
   1   6 -12   46.84    0.88 
   1   6 -12   48.04    0.82 
  -1  -6  12   46.08    0.86 
  -1  -6  12   44.93    0.88 
   0   6 -12   45.49    0.85 
   0   6 -12   45.97    0.82 
   0  -6  12   42.78    0.83 
   0  -6  12   43.28    0.83 
  -1   6 -12   15.05    0.43 
  -1   6 -12   14.98    0.42 
   1  -6  12   14.19    0.44 
   1  -6  12   13.82    0.42 
  -2   6 -12    9.22    0.34 
  -2   6 -12    9.15    0.33 
   2  -6  12    8.92    0.33 
   2  -6  12    8.55    0.35 
  -3   6 -12    3.26    0.22 
   3  -6  12    3.25    0.23 
  -4   6 -12   25.40    0.65 
   4  -6  12   23.21    0.65 
  -5   6 -12    1.52    0.18 
   5  -6  12    1.56    0.18 
   7   5 -12    0.72    0.14 
  -7  -5  12    0.78    0.14 
  -7  -5  12    0.67    0.15 
   6   5 -12   15.81    0.48 
  -6  -5  12   16.48    0.53 
  -6  -5  12   16.38    0.49 
   5   5 -12    2.92    0.21 
  -5  -5  12    2.89    0.20 
  -5  -5  12    2.99    0.22 
   4   5 -12    0.47    0.11 
  -4  -5  12    0.16    0.08 
  -4  -5  12    0.35    0.09 
   3   5 -12    1.52    0.15 
  -3  -5  12    1.35    0.14 
  -3  -5  12    1.73    0.16 
   2   5 -12    1.52    0.14 
  -2  -5  12    1.60    0.15 
  -2  -5  12    1.40    0.14 
   1   5 -12   54.83    0.96 
   1   5 -12   53.65    0.87 
  -1  -5  12   50.89    0.93 
  -1  -5  12   51.37    0.92 
   0   5 -12   17.51    0.47 
   0   5 -12   16.26    0.42 
   0  -5  12   15.52    0.44 
   0  -5  12   15.28    0.45 
  -1   5 -12    2.33    0.17 
  -1   5 -12    2.17    0.16 
   1  -5  12    1.93    0.17 
   1  -5  12    2.16    0.16 
  -2   5 -12    6.88    0.28 
  -2   5 -12    7.65    0.30 
   2  -5  12    7.12    0.32 
  -3   5 -12    0.14    0.08 
   3  -5  12    0.28    0.10 
  -4   5 -12   14.51    0.46 
   4  -5  12   13.13    0.47 
  -5   5 -12    5.22    0.29 
   5  -5  12    5.37    0.31 
  -8  -4  12   15.05    0.49 
  -8  -4  12   14.37    0.52 
   7   4 -12    1.94    0.18 
  -7  -4  12    2.13    0.19 
  -7  -4  12    2.04    0.21 
   6   4 -12   21.02    0.55 
  -6  -4  12   22.09    0.57 
  -6  -4  12   21.98    0.61 
   5   4 -12   18.30    0.50 
  -5  -4  12   18.72    0.51 
  -5  -4  12   18.46    0.54 
   4   4 -12    7.48    0.30 
  -4  -4  12    6.28    0.30 
  -4  -4  12    6.82    0.29 
   3   4 -12   27.71    0.62 
  -3  -4  12   27.34    0.64 
  -3  -4  12   28.39    0.63 
   2   4 -12   10.40    0.35 
  -2  -4  12   10.02    0.35 
  -2  -4  12    9.84    0.35 
   1   4 -12   46.57    0.86 
  -1  -4  12   42.15    0.79 
  -1  -4  12   43.08    0.83 
   0   4 -12    6.79    0.25 
   0   4 -12    6.80    0.28 
   0  -4  12    6.48    0.26 
   0  -4  12    6.44    0.29 
  -1   4 -12    4.56    0.21 
  -1   4 -12    4.34    0.22 
   1  -4  12    3.94    0.20 
   1  -4  12    3.87    0.23 
  -2   4 -12   11.26    0.36 
  -2   4 -12   10.94    0.36 
   2  -4  12    9.76    0.38 
  -3   4 -12    2.12    0.16 
  -3   4 -12    2.18    0.17 
   3  -4  12    1.93    0.18 
  -4   4 -12    3.28    0.22 
   4  -4  12    3.02    0.23 
  -5   4 -12    1.48    0.17 
   5  -4  12    1.26    0.17 
   8   3 -12    9.03    0.40 
  -8  -3  12    8.69    0.38 
   7   3 -12    1.49    0.16 
  -7  -3  12    1.60    0.17 
  -7  -3  12    1.65    0.19 
   6   3 -12    5.34    0.26 
  -6  -3  12    5.41    0.29 
  -6  -3  12    5.06    0.27 
   5   3 -12    4.04    0.22 
  -5  -3  12    3.92    0.23 
  -5  -3  12    3.86    0.24 
   4   3 -12    0.81    0.13 
  -4  -3  12    1.00    0.13 
  -4  -3  12    1.11    0.14 
   3   3 -12    2.79    0.18 
  -3  -3  12    2.57    0.19 
  -3  -3  12    2.97    0.19 
   2   3 -12   27.89    0.62 
  -2  -3  12   27.59    0.63 
  -2  -3  12   27.67    0.61 
   1   3 -12    0.10    0.07 
  -1  -3  12    0.29    0.09 
  -1  -3  12    0.04    0.06 
   0   3 -12   23.24    0.54 
   0  -3  12   23.12    0.51 
   0  -3  12   21.24    0.55 
  -1   3 -12    4.13    0.20 
  -1   3 -12    3.68    0.20 
   1  -3  12    3.54    0.22 
  -2   3 -12    8.55    0.30 
  -2   3 -12    7.76    0.30 
   2  -3  12    7.82    0.34 
  -3   3 -12    0.52    0.11 
  -3   3 -12    0.63    0.12 
   3  -3  12    0.32    0.10 
  -4   3 -12    3.18    0.22 
   4  -3  12    2.72    0.22 
  -5   3 -12    6.88    0.33 
   5  -3  12    6.61    0.35 
   8   2 -12    5.71    0.31 
  -8  -2  12    6.10    0.32 
   7   2 -12    4.61    0.24 
   7   2 -12    4.22    0.26 
  -7  -2  12    4.70    0.27 
   6   2 -12   15.96    0.45 
  -6  -2  12   16.30    0.51 
  -6  -2  12   14.39    0.46 
   5   2 -12    0.72    0.12 
  -5  -2  12    0.70    0.13 
  -5  -2  12    0.64    0.12 
   4   2 -12    3.06    0.19 
  -4  -2  12    2.61    0.19 
   3   2 -12   15.21    0.43 
  -3  -2  12   14.52    0.44 
  -3  -2  12   14.45    0.43 
   2   2 -12   39.18    0.75 
  -2  -2  12   40.11    0.76 
  -2  -2  12   38.50    0.78 
   1   2 -12    5.67    0.25 
  -1  -2  12    5.76    0.24 
  -1  -2  12    6.35    0.28 
   0   2 -12    5.04    0.24 
   0  -2  12    5.70    0.27 
   0  -2  12    5.63    0.23 
  -1   2 -12    3.13    0.19 
  -1   2 -12    3.43    0.17 
   1  -2  12    3.08    0.21 
  -2   2 -12    3.37    0.19 
  -2   2 -12    3.76    0.21 
   2  -2  12    3.18    0.22 
  -3   2 -12    1.20    0.13 
  -3   2 -12    1.50    0.14 
   3  -2  12    1.23    0.15 
  -4   2 -12   20.67    0.55 
   4  -2  12   18.99    0.57 
  -5   2 -12    8.30    0.36 
   5  -2  12    8.17    0.39 
   8   1 -12    2.17    0.21 
  -8  -1  12    1.70    0.19 
   7   1 -12    3.22    0.26 
   7   1 -12    2.91    0.22 
  -7  -1  12    3.25    0.23 
   6   1 -12    5.19    0.28 
   6   1 -12    4.84    0.24 
  -6  -1  12    5.45    0.28 
   5   1 -12    0.92    0.12 
  -5  -1  12    1.03    0.13 
  -5  -1  12    1.13    0.14 
   4   1 -12    2.49    0.17 
  -4  -1  12    2.50    0.19 
  -4  -1  12    2.14    0.17 
   3   1 -12   56.39    0.96 
  -3  -1  12   55.89    0.96 
  -3  -1  12   53.07    0.98 
   2   1 -12   13.43    0.40 
  -2  -1  12   12.93    0.41 
  -2  -1  12   13.75    0.39 
   1   1 -12   23.37    0.55 
  -1  -1  12   21.78    0.49 
  -1  -1  12   22.05    0.55 
   0   1 -12    4.85    0.24 
   0  -1  12    4.54    0.24 
  -1   1 -12    0.49    0.11 
   1  -1  12    0.42    0.10 
  -2   1 -12    3.51    0.21 
  -2   1 -12    3.25    0.18 
   2  -1  12    3.74    0.23 
  -3   1 -12    1.43    0.14 
  -3   1 -12    1.46    0.15 
   3  -1  12    1.40    0.16 
  -4   1 -12    9.90    0.37 
   4  -1  12    9.45    0.40 
  -5   1 -12    3.82    0.25 
   5  -1  12    3.31    0.25 
   8   0 -12    6.90    0.35 
  -8   0  12    7.32    0.36 
   7   0 -12    3.32    0.23 
  -7   0  12    2.86    0.22 
   6   0 -12    0.08    0.07 
   6   0 -12    0.10    0.07 
  -6   0  12    0.13    0.07 
   5   0 -12    0.45    0.10 
   5   0 -12    0.46    0.11 
  -5   0  12    0.31    0.09 
   4   0 -12    2.04    0.16 
   4   0 -12    1.94    0.16 
   3   0 -12    7.83    0.30 
  -3   0  12    7.59    0.31 
   2   0 -12    0.71    0.12 
  -2   0  12    0.55    0.11 
  -2   0  12    0.65    0.11 
   1   0 -12    4.51    0.23 
  -1   0  12    4.50    0.24 
  -1   0  12    4.74    0.21 
   0   0 -12   17.48    0.47 
   0   0  12   17.58    0.49 
  -1   0 -12   10.52    0.36 
   1   0  12    9.84    0.37 
  -2   0 -12    4.82    0.25 
  -2   0 -12    5.23    0.24 
   2   0  12    4.53    0.26 
  -3   0 -12    0.70    0.13 
  -3   0 -12    1.07    0.13 
   3   0  12    0.65    0.13 
  -4   0 -12    6.93    0.30 
  -4   0 -12    6.90    0.30 
   4   0  12    6.13    0.32 
  -5   0 -12    2.97    0.22 
   5   0  12    2.43    0.22 
   8  -1 -12    6.63    0.34 
  -8   1  12    6.83    0.35 
   7  -1 -12    2.65    0.22 
  -7   1  12    2.77    0.22 
   6  -1 -12    3.20    0.22 
   6  -1 -12    3.24    0.20 
  -6   1  12    2.95    0.21 
   5  -1 -12   11.48    0.39 
   5  -1 -12   11.46    0.36 
  -5   1  12   10.66    0.38 
   4  -1 -12    7.38    0.29 
   4  -1 -12    7.25    0.30 
  -4   1  12    7.40    0.31 
   3  -1 -12   33.34    0.69 
   3  -1 -12   33.81    0.68 
  -3   1  12   33.19    0.72 
   2  -1 -12    2.45    0.17 
   2  -1 -12    2.22    0.15 
  -2   1  12    2.20    0.17 
   1  -1 -12   42.36    0.82 
  -1   1  12   41.55    0.83 
   0  -1 -12   21.32    0.54 
   0   1  12   19.35    0.52 
  -1  -1 -12    0.14    0.07 
   1   1  12    0.06    0.06 
  -2  -1 -12   12.03    0.40 
   2   1  12   11.61    0.41 
  -3  -1 -12    0.30    0.09 
  -3  -1 -12    0.22    0.08 
   3   1  12    0.17    0.08 
  -4  -1 -12   20.39    0.55 
  -4  -1 -12   21.20    0.55 
   4   1  12   19.74    0.59 
   8  -2 -12    1.85    0.20 
  -8   2  12    1.99    0.20 
   7  -2 -12    1.25    0.16 
  -7   2  12    0.86    0.15 
   6  -2 -12    2.61    0.21 
   6  -2 -12    2.69    0.18 
  -6   2  12    2.59    0.20 
   5  -2 -12   11.12    0.36 
   5  -2 -12   11.32    0.40 
  -5   2  12   10.16    0.38 
   4  -2 -12    2.10    0.17 
   4  -2 -12    2.38    0.17 
  -4   2  12    2.16    0.18 
  -4   2  12    2.37    0.16 
   3  -2 -12   46.60    0.84 
   3  -2 -12   46.48    0.86 
  -3   2  12   45.97    0.88 
  -3   2  12   45.50    0.79 
   2  -2 -12    1.54    0.15 
   2  -2 -12    1.69    0.14 
  -2   2  12    1.66    0.14 
  -2   2  12    1.84    0.16 
   1  -2 -12   20.54    0.53 
  -1   2  12   20.46    0.54 
  -1   2  12   20.79    0.49 
   0  -2 -12   21.16    0.55 
   0   2  12   18.92    0.48 
   0   2  12   19.79    0.53 
  -1  -2 -12    0.09    0.07 
   1   2  12    0.18    0.08 
   1   2  12    0.12    0.07 
  -2  -2 -12    9.75    0.37 
   2   2  12    8.68    0.34 
   2   2  12    8.70    0.36 
  -3  -2 -12    7.92    0.34 
   3   2  12    7.59    0.34 
   3   2  12    7.95    0.34 
  -4  -2 -12   11.33    0.41 
  -4  -2 -12   10.33    0.38 
   4   2  12   10.45    0.41 
   4   2  12   10.26    0.41 
   8  -3 -12    1.34    0.18 
  -8   3  12    0.69    0.14 
   7  -3 -12    4.91    0.29 
  -7   3  12    4.50    0.28 
  -7   3  12    4.88    0.26 
   6  -3 -12   10.95    0.41 
  -6   3  12   11.17    0.41 
  -6   3  12   10.18    0.36 
   5  -3 -12    6.21    0.30 
   5  -3 -12    6.27    0.27 
  -5   3  12    5.73    0.26 
  -5   3  12    5.47    0.28 
   4  -3 -12   16.12    0.46 
   4  -3 -12   16.92    0.48 
  -4   3  12   14.67    0.46 
  -4   3  12   15.47    0.43 
   3  -3 -12   29.51    0.65 
   3  -3 -12   28.34    0.63 
  -3   3  12   26.77    0.59 
  -3   3  12   27.93    0.64 
   2  -3 -12    0.41    0.10 
  -2   3  12    0.48    0.11 
  -2   3  12    0.34    0.10 
   1  -3 -12    8.60    0.34 
  -1   3  12    8.57    0.32 
  -1   3  12    8.36    0.33 
   0  -3 -12   13.56    0.44 
   0   3  12   12.89    0.41 
   0   3  12   12.59    0.42 
  -1  -3 -12    1.29    0.15 
   1   3  12    1.14    0.15 
   1   3  12    1.37    0.15 
  -2  -3 -12    3.22    0.22 
   2   3  12    3.38    0.23 
   2   3  12    3.49    0.23 
  -3  -3 -12    6.98    0.32 
   3   3  12    7.21    0.34 
   3   3  12    6.99    0.34 
  -4  -3 -12    8.96    0.38 
   4   3  12    8.47    0.38 
   7  -4 -12   11.90    0.46 
  -7   4  12   11.59    0.44 
  -7   4  12   11.11    0.41 
   6  -4 -12    9.28    0.39 
  -6   4  12    9.35    0.38 
  -6   4  12    9.11    0.35 
   5  -4 -12    3.78    0.22 
   5  -4 -12    4.47    0.26 
  -5   4  12    3.83    0.23 
  -5   4  12    4.12    0.24 
   4  -4 -12    5.18    0.26 
   4  -4 -12    5.60    0.27 
  -4   4  12    4.99    0.26 
  -4   4  12    5.50    0.26 
   3  -4 -12    0.93    0.13 
   3  -4 -12    1.08    0.13 
  -3   4  12    0.94    0.13 
  -3   4  12    1.18    0.14 
   2  -4 -12    0.87    0.13 
  -2   4  12    1.17    0.14 
  -2   4  12    1.13    0.14 
   1  -4 -12    0.91    0.15 
  -1   4  12    1.21    0.14 
  -1   4  12    1.07    0.14 
   0  -4 -12    5.18    0.27 
   0   4  12    5.02    0.27 
   0   4  12    4.85    0.26 
  -1  -4 -12    4.97    0.28 
   1   4  12    4.63    0.27 
   1   4  12    4.69    0.27 
  -2  -4 -12    0.50    0.13 
   2   4  12    0.59    0.13 
  -3  -4 -12    2.52    0.22 
   3   4  12    2.45    0.22 
   7  -5 -12    0.48    0.14 
  -7   5  12    0.58    0.13 
  -7   5  12    0.44    0.12 
   6  -5 -12   13.86    0.48 
  -6   5  12   13.29    0.46 
  -6   5  12   13.97    0.47 
   5  -5 -12   18.77    0.51 
   5  -5 -12   18.54    0.54 
  -5   5  12   16.66    0.51 
  -5   5  12   19.23    0.53 
   4  -5 -12    2.94    0.21 
   4  -5 -12    3.21    0.21 
  -4   5  12    3.12    0.22 
  -4   5  12    2.89    0.21 
   3  -5 -12   17.70    0.50 
  -3   5  12   17.23    0.50 
  -3   5  12   16.99    0.50 
   2  -5 -12   17.94    0.52 
  -2   5  12   17.42    0.50 
  -2   5  12   19.18    0.54 
   1  -5 -12   54.43    1.04 
  -1   5  12   54.26    1.05 
   0  -5 -12    1.81    0.18 
   0   5  12    1.64    0.18 
  -1  -5 -12    8.19    0.36 
   1   5  12    8.25    0.37 
  -2  -5 -12    4.26    0.27 
   2   5  12    4.03    0.27 
   6  -6 -12   17.70    0.56 
  -6   6  12   17.91    0.54 
  -6   6  12   16.70    0.53 
   5  -6 -12   25.83    0.67 
  -5   6  12   25.27    0.67 
  -5   6  12   25.37    0.64 
   4  -6 -12    7.68    0.33 
   4  -6 -12    7.57    0.33 
  -4   6  12    8.00    0.36 
   3  -6 -12    2.74    0.21 
  -3   6  12    3.05    0.23 
   2  -6 -12    9.45    0.38 
  -2   6  12    8.62    0.38 
   1  -6 -12    4.60    0.27 
  -1   6  12    5.28    0.30 
   0  -6 -12   13.61    0.48 
   0   6  12   12.47    0.47 
  -1  -6 -12    1.22    0.17 
   1   6  12    1.39    0.18 
   5  -7 -12   18.20    0.56 
  -5   7  12   17.57    0.57 
   4  -7 -12    3.53    0.24 
  -4   7  12    3.52    0.26 
   3  -7 -12    3.91    0.25 
  -3   7  12    3.28    0.25 
   2  -7 -12   23.97    0.65 
  -2   7  12   25.92    0.71 
   1  -7 -12    0.66    0.15 
  -1   7  12    0.98    0.18 
   2  10 -13    1.04    0.18 
   2  10 -13    0.82    0.16 
  -2 -10  13    0.51    0.16 
   1  10 -13    4.11    0.26 
   1  10 -13    4.76    0.28 
  -1 -10  13    4.03    0.28 
   0  10 -13    0.46    0.13 
   0  10 -13    0.49    0.12 
   0 -10  13    0.36    0.13 
   4   9 -13   11.69    0.46 
  -4  -9  13   11.66    0.47 
   3   9 -13   12.25    0.46 
  -3  -9  13   12.04    0.47 
   2   9 -13    6.00    0.31 
  -2  -9  13    6.01    0.33 
   1   9 -13   13.03    0.43 
   1   9 -13   13.44    0.47 
  -1  -9  13   12.32    0.46 
   0   9 -13    0.13    0.09 
   0   9 -13    0.21    0.09 
   0  -9  13    0.36    0.11 
  -1   9 -13   11.41    0.42 
  -1   9 -13   12.55    0.43 
   1  -9  13   11.59    0.44 
  -2   9 -13    5.26    0.29 
   2  -9  13    5.12    0.30 
   5   8 -13    0.72    0.15 
  -5  -8  13    0.67    0.16 
   4   8 -13    0.14    0.09 
  -4  -8  13    0.12    0.10 
   3   8 -13    5.46    0.30 
  -3  -8  13    6.26    0.33 
   2   8 -13    1.14    0.15 
  -2  -8  13    0.81    0.15 
   1   8 -13    0.24    0.09 
   1   8 -13    0.35    0.11 
  -1  -8  13    0.35    0.11 
   0   8 -13   15.17    0.47 
   0   8 -13   15.25    0.45 
   0  -8  13   14.09    0.47 
   0  -8  13   13.79    0.45 
  -1   8 -13    3.10    0.22 
  -1   8 -13    3.52    0.23 
   1  -8  13    3.28    0.23 
   1  -8  13    3.06    0.22 
  -2   8 -13    6.50    0.31 
   2  -8  13    6.30    0.31 
   2  -8  13    6.03    0.31 
  -3   8 -13    2.14    0.20 
   6   7 -13   15.36    0.51 
  -6  -7  13   15.04    0.54 
   5   7 -13    2.54    0.21 
  -5  -7  13    2.45    0.22 
   4   7 -13   12.05    0.44 
  -4  -7  13   11.86    0.45 
   3   7 -13    5.63    0.30 
  -3  -7  13    6.10    0.31 
  -3  -7  13    6.27    0.29 
   2   7 -13   15.04    0.47 
  -2  -7  13   15.63    0.46 
  -2  -7  13   15.34    0.50 
   1   7 -13   10.22    0.38 
  -1  -7  13    9.67    0.38 
  -1  -7  13   10.11    0.37 
   0   7 -13    2.20    0.19 
   0   7 -13    2.72    0.19 
   0  -7  13    2.71    0.20 
   0  -7  13    2.53    0.20 
  -1   7 -13    7.29    0.31 
  -1   7 -13    7.37    0.31 
   1  -7  13    6.72    0.31 
   1  -7  13    7.55    0.33 
  -2   7 -13    1.62    0.17 
  -2   7 -13    1.68    0.19 
   2  -7  13    1.77    0.18 
  -3   7 -13    0.17    0.10 
   3  -7  13    0.33    0.12 
  -4   7 -13    2.08    0.20 
   4  -7  13    1.58    0.19 
   6   6 -13   10.11    0.40 
  -6  -6  13    9.74    0.43 
   5   6 -13   -0.02    0.06 
  -5  -6  13    0.05    0.07 
  -5  -6  13    0.03    0.07 
   4   6 -13    1.10    0.15 
  -4  -6  13    1.06    0.13 
  -4  -6  13    1.15    0.16 
   3   6 -13    1.26    0.15 
  -3  -6  13    1.21    0.16 
  -3  -6  13    1.32    0.15 
   2   6 -13    4.51    0.25 
  -2  -6  13    4.65    0.25 
  -2  -6  13    4.57    0.26 
   1   6 -13    7.57    0.32 
  -1  -6  13    7.24    0.32 
  -1  -6  13    7.03    0.31 
   0   6 -13    6.70    0.30 
   0   6 -13    6.94    0.28 
   0  -6  13    5.99    0.29 
   0  -6  13    6.71    0.30 
  -1   6 -13    8.37    0.33 
  -1   6 -13    8.85    0.33 
   1  -6  13    8.16    0.33 
   1  -6  13    8.86    0.36 
  -2   6 -13    2.12    0.18 
  -2   6 -13    2.13    0.17 
   2  -6  13    1.88    0.18 
  -3   6 -13    2.11    0.19 
   3  -6  13    1.94    0.20 
  -4   6 -13    6.41    0.32 
   4  -6  13    5.67    0.32 
   7   5 -13   25.89    0.66 
  -7  -5  13   26.97    0.68 
  -7  -5  13   25.87    0.72 
   6   5 -13   11.24    0.41 
  -6  -5  13   12.13    0.42 
  -6  -5  13   11.69    0.46 
   5   5 -13    1.77    0.17 
  -5  -5  13    1.70    0.18 
  -5  -5  13    1.49    0.15 
   4   5 -13    7.56    0.33 
  -4  -5  13    6.85    0.30 
  -4  -5  13    6.60    0.32 
   3   5 -13    0.20    0.08 
  -3  -5  13    0.25    0.10 
  -3  -5  13    0.25    0.09 
   2   5 -13    1.54    0.15 
  -2  -5  13    1.61    0.16 
  -2  -5  13    1.50    0.16 
   1   5 -13    6.82    0.30 
  -1  -5  13    5.97    0.28 
  -1  -5  13    6.37    0.29 
   0   5 -13    6.78    0.29 
   0  -5  13    6.30    0.30 
   0  -5  13    6.28    0.28 
  -1   5 -13   10.57    0.35 
  -1   5 -13   10.59    0.36 
   1  -5  13    9.88    0.36 
   1  -5  13    9.81    0.38 
  -2   5 -13    3.44    0.21 
  -2   5 -13    3.27    0.21 
   2  -5  13    3.28    0.23 
  -3   5 -13    7.19    0.32 
   3  -5  13    6.55    0.34 
  -4   5 -13    4.10    0.26 
   4  -5  13    3.81    0.26 
   7   4 -13    7.71    0.34 
  -7  -4  13    7.38    0.37 
  -7  -4  13    7.85    0.35 
   6   4 -13   17.25    0.51 
  -6  -4  13   17.03    0.52 
  -6  -4  13   17.42    0.55 
   5   4 -13    0.94    0.13 
  -5  -4  13    1.26    0.15 
  -5  -4  13    1.05    0.15 
   4   4 -13    8.92    0.35 
  -4  -4  13    9.06    0.35 
  -4  -4  13    8.18    0.36 
   3   4 -13    1.54    0.15 
  -3  -4  13    1.30    0.14 
  -3  -4  13    1.41    0.15 
   2   4 -13    6.92    0.30 
  -2  -4  13    6.81    0.30 
  -2  -4  13    6.84    0.31 
   1   4 -13    7.64    0.31 
  -1  -4  13    6.86    0.31 
  -1  -4  13    7.15    0.30 
   0   4 -13    0.54    0.11 
   0  -4  13    0.61    0.13 
   0  -4  13    0.79    0.12 
  -1   4 -13    6.01    0.28 
  -1   4 -13    6.15    0.26 
   1  -4  13    5.39    0.28 
  -2   4 -13    0.39    0.10 
  -2   4 -13    0.44    0.11 
   2  -4  13    0.47    0.12 
  -3   4 -13    0.24    0.09 
   3  -4  13    0.33    0.10 
  -4   4 -13   10.44    0.40 
   4  -4  13    9.08    0.41 
   8   3 -13    2.48    0.23 
  -8  -3  13    2.94    0.23 
   7   3 -13    3.37    0.22 
  -7  -3  13    3.67    0.25 
  -7  -3  13    3.38    0.25 
   6   3 -13   13.26    0.43 
  -6  -3  13   12.29    0.46 
  -6  -3  13   12.48    0.44 
   5   3 -13    5.17    0.26 
  -5  -3  13    5.45    0.29 
  -5  -3  13    5.46    0.28 
   4   3 -13    1.59    0.16 
  -4  -3  13    1.59    0.16 
  -4  -3  13    1.81    0.17 
   3   3 -13    2.09    0.17 
  -3  -3  13    2.47    0.19 
  -3  -3  13    2.17    0.18 
   2   3 -13    0.94    0.13 
  -2  -3  13    1.19    0.14 
  -2  -3  13    0.98    0.13 
   1   3 -13   19.93    0.52 
  -1  -3  13   19.27    0.49 
  -1  -3  13   18.82    0.53 
   0   3 -13    2.91    0.19 
   0  -3  13    2.70    0.20 
   0  -3  13    3.06    0.19 
  -1   3 -13    4.08    0.23 
   1  -3  13    4.10    0.25 
  -2   3 -13    3.03    0.19 
  -2   3 -13    2.82    0.20 
   2  -3  13    2.54    0.21 
  -3   3 -13    1.46    0.15 
  -3   3 -13    1.72    0.16 
   3  -3  13    1.61    0.18 
  -4   3 -13   10.44    0.40 
   4  -3  13   10.10    0.43 
   8   2 -13   27.63    0.73 
  -8  -2  13   28.05    0.73 
   7   2 -13    5.51    0.27 
   7   2 -13    5.08    0.30 
  -7  -2  13    5.22    0.29 
   6   2 -13    7.55    0.32 
  -6  -2  13    7.69    0.34 
  -6  -2  13    7.61    0.36 
   5   2 -13    3.55    0.22 
  -5  -2  13    3.63    0.23 
  -5  -2  13    3.34    0.23 
   4   2 -13    1.51    0.15 
  -4  -2  13    1.62    0.16 
  -4  -2  13    1.66    0.17 
   3   2 -13    6.82    0.29 
  -3  -2  13    6.30    0.30 
  -3  -2  13    6.41    0.29 
   2   2 -13    9.87    0.35 
  -2  -2  13   10.45    0.36 
  -2  -2  13   10.60    0.39 
   1   2 -13   24.56    0.59 
  -1  -2  13   24.22    0.55 
  -1  -2  13   23.49    0.60 
   0   2 -13    2.83    0.19 
   0  -2  13    2.70    0.20 
  -1   2 -13    0.52    0.11 
   1  -2  13    0.59    0.12 
  -2   2 -13    1.85    0.20 
  -2   2 -13    1.85    0.16 
   2  -2  13    1.63    0.17 
  -3   2 -13    1.39    0.15 
  -3   2 -13    1.73    0.16 
   3  -2  13    1.24    0.16 
  -4   2 -13   14.04    0.46 
   4  -2  13   13.48    0.50 
   8   1 -13   12.09    0.47 
  -8  -1  13   11.04    0.44 
   7   1 -13    5.28    0.30 
   7   1 -13    5.25    0.29 
  -7  -1  13    4.95    0.29 
   6   1 -13    4.65    0.27 
   6   1 -13    4.20    0.23 
  -6  -1  13    4.23    0.26 
   5   1 -13    0.11    0.07 
  -5  -1  13    0.07    0.07 
   4   1 -13    3.14    0.20 
  -4  -1  13    3.19    0.22 
  -4  -1  13    3.33    0.22 
   3   1 -13    1.77    0.16 
  -3  -1  13    2.33    0.19 
  -3  -1  13    1.83    0.17 
   2   1 -13   12.24    0.39 
  -2  -1  13   11.81    0.37 
  -2  -1  13   11.02    0.40 
   1   1 -13    4.72    0.24 
  -1  -1  13    4.72    0.26 
  -1  -1  13    5.22    0.23 
   0   1 -13    0.73    0.13 
   0  -1  13    0.59    0.12 
  -1   1 -13    1.91    0.16 
   1  -1  13    1.84    0.18 
  -2   1 -13    3.27    0.22 
   2  -1  13    2.49    0.21 
  -3   1 -13    0.25    0.09 
  -3   1 -13    0.39    0.11 
   3  -1  13    0.29    0.10 
  -4   1 -13   11.66    0.41 
   4  -1  13   10.44    0.44 
   8   0 -13    4.21    0.28 
  -8   0  13    3.99    0.27 
   7   0 -13   11.89    0.45 
  -7   0  13   11.85    0.45 
   6   0 -13   15.92    0.46 
   6   0 -13   16.38    0.51 
  -6   0  13   16.23    0.52 
   5   0 -13    0.93    0.12 
   5   0 -13    1.08    0.14 
  -5   0  13    0.98    0.14 
   4   0 -13    7.06    0.30 
   4   0 -13    6.49    0.29 
  -4   0  13    6.65    0.31 
   3   0 -13   12.61    0.39 
   3   0 -13   12.64    0.40 
  -3   0  13   12.76    0.43 
   2   0 -13    3.39    0.21 
   2   0 -13    3.37    0.19 
  -2   0  13    3.20    0.22 
   1   0 -13   24.44    0.59 
  -1   0  13   23.65    0.61 
   0   0 -13    0.19    0.08 
   0   0  13    0.09    0.07 
  -1   0 -13   23.27    0.59 
   1   0  13   20.63    0.58 
  -2   0 -13    4.20    0.25 
   2   0  13    4.11    0.26 
  -3   0 -13   27.88    0.67 
   3   0  13   26.42    0.69 
  -4   0 -13   25.70    0.63 
   4   0  13   25.08    0.70 
   8  -1 -13    8.12    0.39 
  -8   1  13    7.69    0.37 
   7  -1 -13   14.60    0.50 
  -7   1  13   14.05    0.49 
   6  -1 -13   40.90    0.88 
   6  -1 -13   40.59    0.80 
  -6   1  13   40.36    0.87 
   5  -1 -13    5.65    0.29 
   5  -1 -13    5.51    0.26 
  -5   1  13    5.20    0.28 
   4  -1 -13   14.15    0.44 
   4  -1 -13   14.83    0.44 
  -4   1  13   14.23    0.46 
   3  -1 -13   13.10    0.40 
   3  -1 -13   12.53    0.41 
  -3   1  13   12.90    0.43 
   2  -1 -13   10.73    0.37 
   2  -1 -13   10.39    0.34 
  -2   1  13    9.89    0.38 
   1  -1 -13    7.09    0.31 
  -1   1  13    7.20    0.32 
   0  -1 -13   -0.01    0.05 
   0   1  13   -0.01    0.05 
  -1  -1 -13    4.40    0.25 
   1   1  13    4.02    0.25 
  -2  -1 -13    7.97    0.34 
   2   1  13    8.43    0.37 
  -3  -1 -13    6.82    0.32 
   3   1  13    6.53    0.33 
  -4  -1 -13   18.08    0.54 
   4   1  13   16.07    0.54 
   7  -2 -13   11.31    0.44 
  -7   2  13   10.96    0.43 
   6  -2 -13   17.08    0.53 
   6  -2 -13   17.00    0.48 
  -6   2  13   15.77    0.51 
   5  -2 -13    3.82    0.24 
   5  -2 -13    3.78    0.22 
  -5   2  13    3.38    0.23 
   4  -2 -13    7.44    0.31 
   4  -2 -13    6.82    0.30 
  -4   2  13    7.79    0.34 
   3  -2 -13    0.14    0.08 
   3  -2 -13    0.17    0.07 
  -3   2  13   -0.08    0.05 
   2  -2 -13   17.85    0.51 
  -2   2  13   17.27    0.51 
   1  -2 -13    6.11    0.29 
  -1   2  13    5.36    0.28 
   0  -2 -13    0.16    0.08 
   0   2  13    0.17    0.09 
  -1  -2 -13    3.30    0.23 
   1   2  13    3.53    0.24 
  -2  -2 -13    0.45    0.12 
   2   2  13    0.34    0.11 
  -3  -2 -13    1.36    0.17 
   3   2  13    1.25    0.17 
   7  -3 -13    3.93    0.27 
  -7   3  13    3.64    0.25 
   6  -3 -13    0.60    0.14 
  -6   3  13    0.64    0.13 
   5  -3 -13   13.27    0.45 
   5  -3 -13   13.29    0.43 
  -5   3  13   12.04    0.43 
   4  -3 -13    5.67    0.28 
   4  -3 -13    5.79    0.28 
  -4   3  13    5.30    0.28 
   3  -3 -13    3.74    0.23 
   3  -3 -13    4.12    0.23 
  -3   3  13    3.76    0.24 
   2  -3 -13    0.60    0.12 
  -2   3  13    0.54    0.12 
  -2   3  13    0.68    0.15 
   1  -3 -13   26.67    0.65 
  -1   3  13   26.67    0.66 
  -1   3  13   27.46    0.65 
   0  -3 -13    8.75    0.36 
   0   3  13    7.85    0.34 
   0   3  13    7.87    0.33 
  -1  -3 -13    4.84    0.27 
   1   3  13    4.81    0.28 
  -2  -3 -13   11.88    0.44 
   2   3  13   10.79    0.44 
   2   3  13   11.65    0.43 
  -3  -3 -13    0.40    0.13 
   7  -4 -13   14.72    0.52 
  -7   4  13   14.66    0.51 
   6  -4 -13    0.38    0.13 
  -6   4  13    0.57    0.13 
  -6   4  13    0.97    0.23 
   5  -4 -13    1.69    0.17 
   5  -4 -13    1.69    0.18 
  -5   4  13    1.81    0.18 
  -5   4  13    1.81    0.17 
   4  -4 -13    0.38    0.11 
   4  -4 -13    0.16    0.08 
  -4   4  13    0.21    0.09 
  -4   4  13    0.11    0.08 
   3  -4 -13    4.34    0.25 
  -3   4  13    4.00    0.24 
  -3   4  13    4.18    0.24 
   2  -4 -13   10.45    0.39 
  -2   4  13   10.91    0.39 
  -2   4  13   10.67    0.40 
   1  -4 -13    4.33    0.26 
  -1   4  13    4.11    0.25 
  -1   4  13    3.76    0.24 
   0  -4 -13    1.28    0.16 
   0   4  13    1.43    0.16 
   0   4  13    1.20    0.16 
  -1  -4 -13    1.60    0.18 
   1   4  13    1.38    0.17 
  -2  -4 -13    4.66    0.28 
   2   4  13    4.57    0.28 
   6  -5 -13    8.78    0.39 
  -6   5  13    8.71    0.37 
  -6   5  13    8.51    0.38 
   5  -5 -13    4.83    0.26 
   5  -5 -13    4.32    0.27 
  -5   5  13    4.46    0.26 
  -5   5  13    4.48    0.27 
   4  -5 -13   15.43    0.48 
   4  -5 -13   15.34    0.48 
  -4   5  13   15.87    0.50 
  -4   5  13   15.86    0.50 
   3  -5 -13    1.46    0.16 
  -3   5  13    1.55    0.17 
  -3   5  13    1.65    0.17 
   2  -5 -13    2.18    0.20 
  -2   5  13    2.44    0.21 
   1  -5 -13    2.48    0.21 
  -1   5  13    2.43    0.21 
   0  -5 -13    0.70    0.15 
   0   5  13    0.82    0.16 
  -1  -5 -13    6.46    0.34 
   1   5  13    6.79    0.35 
   5  -6 -13    0.31    0.12 
  -5   6  13    0.39    0.12 
   4  -6 -13    4.71    0.27 
  -4   6  13    4.76    0.29 
   3  -6 -13    0.47    0.12 
  -3   6  13    0.28    0.12 
   2  -6 -13   16.76    0.53 
  -2   6  13   15.19    0.52 
   1  -6 -13    3.40    0.25 
  -1   6  13    2.64    0.23 
   2   9 -14   14.65    0.51 
  -2  -9  14   13.56    0.51 
   1   9 -14    8.98    0.38 
  -1  -9  14    8.99    0.41 
   0   9 -14    1.20    0.16 
   0   9 -14    1.05    0.17 
   0  -9  14    1.13    0.17 
   4   8 -14    0.18    0.10 
  -4  -8  14    0.43    0.14 
   3   8 -14    1.64    0.18 
  -3  -8  14    1.39    0.18 
   2   8 -14    1.69    0.18 
  -2  -8  14    1.90    0.20 
   1   8 -14    2.05    0.19 
  -1  -8  14    1.58    0.18 
   0   8 -14    6.28    0.45 
   0   8 -14    5.74    0.30 
   0  -8  14    5.74    0.30 
   0  -8  14    5.88    0.31 
  -1   8 -14   11.68    0.42 
  -1   8 -14   11.25    0.41 
   1  -8  14   11.06    0.42 
   1  -8  14   11.39    0.43 
  -2   8 -14    0.23    0.10 
   2  -8  14    0.10    0.08 
   5   7 -14    4.41    0.28 
  -5  -7  14    4.23    0.29 
   4   7 -14   10.41    0.41 
  -4  -7  14   11.27    0.45 
   3   7 -14    0.01    0.08 
  -3  -7  14    0.12    0.10 
  -3  -7  14    0.07    0.07 
   2   7 -14   15.72    0.50 
  -2  -7  14   14.80    0.47 
  -2  -7  14   15.00    0.50 
   1   7 -14    0.37    0.11 
  -1  -7  14    0.26    0.10 
  -1  -7  14    0.36    0.11 
   0   7 -14   28.11    0.68 
   0  -7  14   27.84    0.69 
   0  -7  14   28.21    0.69 
  -1   7 -14    8.04    0.34 
  -1   7 -14    7.67    0.32 
   1  -7  14    7.37    0.35 
   1  -7  14    7.31    0.33 
  -2   7 -14    0.36    0.11 
   6   6 -14    2.46    0.22 
  -6  -6  14    1.82    0.21 
   5   6 -14    3.13    0.23 
  -5  -6  14    3.09    0.22 
  -5  -6  14    2.78    0.24 
   4   6 -14   16.52    0.52 
  -4  -6  14   16.20    0.49 
  -4  -6  14   15.67    0.53 
   3   6 -14    2.77    0.21 
  -3  -6  14    2.47    0.21 
  -3  -6  14    2.73    0.20 
   2   6 -14   11.68    0.42 
  -2  -6  14   11.16    0.41 
  -2  -6  14   10.14    0.39 
   1   6 -14    1.52    0.16 
  -1  -6  14    1.34    0.16 
  -1  -6  14    1.60    0.17 
   0   6 -14    4.68    0.26 
   0  -6  14    4.58    0.26 
   0  -6  14    4.33    0.26 
  -1   6 -14    4.75    0.32 
  -1   6 -14    5.17    0.27 
   1  -6  14    5.01    0.29 
  -2   6 -14    0.40    0.10 
  -2   6 -14    0.38    0.10 
   2  -6  14    0.23    0.11 
  -3   6 -14    7.05    0.33 
   3  -6  14    6.05    0.34 
   6   5 -14    2.70    0.22 
  -6  -5  14    2.68    0.21 
  -6  -5  14    2.72    0.24 
   5   5 -14    1.23    0.16 
  -5  -5  14    1.57    0.19 
  -5  -5  14    1.27    0.16 
   4   5 -14   10.49    0.40 
  -4  -5  14    9.16    0.39 
  -4  -5  14    9.57    0.37 
   3   5 -14    0.05    0.06 
  -3  -5  14    0.11    0.08 
  -3  -5  14    0.01    0.06 
   2   5 -14    8.61    0.35 
  -2  -5  14    8.43    0.35 
  -2  -5  14    7.25    0.33 
   1   5 -14   33.23    0.74 
  -1  -5  14   32.03    0.75 
  -1  -5  14   31.50    0.71 
   0   5 -14    0.28    0.09 
   0  -5  14    0.25    0.10 
   0  -5  14    0.31    0.10 
  -1   5 -14   13.12    0.43 
   1  -5  14   13.22    0.47 
  -2   5 -14    3.93    0.23 
  -2   5 -14    4.18    0.24 
   2  -5  14    3.64    0.26 
  -3   5 -14    6.52    0.31 
   3  -5  14    6.12    0.33 
   7   4 -14    1.71    0.18 
  -7  -4  14    1.81    0.18 
  -7  -4  14    2.10    0.22 
   6   4 -14    1.69    0.18 
  -6  -4  14    1.88    0.20 
  -6  -4  14    1.83    0.19 
   5   4 -14    8.96    0.37 
  -5  -4  14    8.84    0.39 
  -5  -4  14    8.49    0.36 
   4   4 -14    1.11    0.15 
  -4  -4  14    1.17    0.15 
  -4  -4  14    0.97    0.17 
   3   4 -14    0.14    0.07 
  -3  -4  14    0.10    0.08 
  -3  -4  14    0.07    0.08 
   2   4 -14   16.55    0.49 
  -2  -4  14   15.32    0.47 
  -2  -4  14   15.73    0.49 
   1   4 -14   54.02    1.00 
  -1  -4  14   52.17    0.97 
  -1  -4  14   52.49    1.02 
   0   4 -14    1.31    0.15 
   0  -4  14    1.63    0.17 
   0  -4  14    1.31    0.22 
  -1   4 -14    6.16    0.29 
   1  -4  14    5.81    0.31 
  -2   4 -14    1.96    0.17 
   2  -4  14    1.54    0.18 
  -3   4 -14   13.18    0.43 
   3  -4  14   12.34    0.47 
   7   3 -14    1.71    0.18 
  -7  -3  14    2.31    0.20 
  -7  -3  14    2.15    0.22 
   6   3 -14    5.00    0.27 
  -6  -3  14    5.31    0.29 
  -6  -3  14    4.66    0.29 
   5   3 -14    1.22    0.15 
  -5  -3  14    1.50    0.18 
  -5  -3  14    1.02    0.14 
   4   3 -14    5.30    0.28 
  -4  -3  14    5.00    0.27 
  -4  -3  14    4.43    0.26 
   3   3 -14    1.70    0.17 
  -3  -3  14    1.83    0.17 
  -3  -3  14    1.77    0.18 
   2   3 -14   32.52    0.72 
  -2  -3  14   33.45    0.77 
  -2  -3  14   34.41    0.74 
   1   3 -14   21.96    0.57 
  -1  -3  14   21.17    0.54 
  -1  -3  14   19.97    0.57 
   0   3 -14    1.61    0.16 
   0  -3  14    1.45    0.16 
  -1   3 -14    3.40    0.22 
   1  -3  14    3.85    0.26 
  -2   3 -14    5.26    0.27 
   2  -3  14    4.78    0.29 
  -3   3 -14    2.60    0.22 
  -3   3 -14    2.44    0.23 
   3  -3  14    2.67    0.23 
   7   2 -14    2.34    0.20 
   7   2 -14    2.47    0.22 
  -7  -2  14    2.43    0.21 
   6   2 -14    2.96    0.22 
  -6  -2  14    2.66    0.22 
   5   2 -14    4.89    0.26 
  -5  -2  14    4.45    0.27 
  -5  -2  14    4.72    0.28 
   4   2 -14    0.13    0.08 
  -4  -2  14    0.12    0.08 
  -4  -2  14    0.13    0.09 
   3   2 -14    4.70    0.25 
  -3  -2  14    4.62    0.27 
  -3  -2  14    5.22    0.27 
   2   2 -14    1.39    0.15 
  -2  -2  14    1.69    0.16 
  -2  -2  14    1.71    0.18 
   1   2 -14   17.95    0.51 
  -1  -2  14   16.57    0.45 
  -1  -2  14   16.50    0.52 
   0   2 -14    0.35    0.10 
   0  -2  14    0.45    0.12 
  -1   2 -14   18.65    0.53 
   1  -2  14   17.26    0.54 
  -2   2 -14    8.06    0.34 
   2  -2  14    8.41    0.38 
  -3   2 -14    3.02    0.22 
   3  -2  14    2.81    0.23 
   7   1 -14   10.24    0.44 
   7   1 -14   11.10    0.44 
  -7  -1  14   11.07    0.44 
   6   1 -14    9.53    0.40 
   6   1 -14    9.71    0.37 
  -6  -1  14    8.94    0.39 
   5   1 -14    3.05    0.21 
   5   1 -14    3.11    0.22 
  -5  -1  14    2.86    0.22 
   4   1 -14    4.13    0.24 
  -4  -1  14    3.58    0.24 
  -4  -1  14    3.49    0.24 
   3   1 -14    3.73    0.23 
  -3  -1  14    3.89    0.25 
  -3  -1  14    3.82    0.23 
   2   1 -14   28.37    0.67 
  -2  -1  14   27.45    0.63 
  -2  -1  14   27.96    0.69 
   1   1 -14    1.17    0.14 
  -1  -1  14    1.03    0.15 
   0   1 -14   16.36    0.49 
   0  -1  14   15.33    0.50 
  -1   1 -14    3.50    0.23 
   1  -1  14    3.13    0.24 
  -2   1 -14    0.14    0.08 
   2  -1  14    0.39    0.12 
  -3   1 -14    4.80    0.27 
   3  -1  14    4.53    0.29 
   7   0 -14    9.94    0.43 
  -7   0  14    9.57    0.42 
   6   0 -14    6.08    0.29 
   6   0 -14    6.69    0.33 
  -6   0  14    5.67    0.31 
   5   0 -14    0.29    0.10 
   5   0 -14    0.19    0.08 
  -5   0  14    0.12    0.08 
   4   0 -14    9.51    0.36 
   4   0 -14    9.27    0.36 
  -4   0  14    8.77    0.37 
   3   0 -14    1.40    0.15 
   3   0 -14    1.29    0.14 
  -3   0  14    1.06    0.15 
   2   0 -14   62.69    1.06 
   2   0 -14   64.97    1.14 
  -2   0  14   58.85    1.10 
   1   0 -14   28.52    0.68 
  -1   0  14   26.99    0.69 
   0   0 -14   10.15    0.39 
   0   0  14    9.17    0.39 
  -1   0 -14   25.89    0.66 
   1   0  14   23.95    0.65 
  -2   0 -14    0.46    0.12 
   2   0  14    0.23    0.10 
  -3   0 -14   15.10    0.49 
   3   0  14   13.78    0.51 
   7  -1 -14    7.46    0.37 
  -7   1  14    7.48    0.37 
   6  -1 -14    2.15    0.18 
   6  -1 -14    1.97    0.20 
  -6   1  14    2.02    0.20 
   5  -1 -14    5.60    0.30 
   5  -1 -14    5.47    0.28 
  -5   1  14    6.07    0.31 
   4  -1 -14    0.32    0.10 
   4  -1 -14    0.26    0.10 
  -4   1  14    0.28    0.10 
   3  -1 -14   11.99    0.41 
   3  -1 -14   11.28    0.38 
  -3   1  14   10.83    0.41 
   2  -1 -14   10.54    0.39 
  -2   1  14    9.66    0.39 
   1  -1 -14    2.40    0.20 
  -1   1  14    2.25    0.20 
   0  -1 -14    0.93    0.15 
   0   1  14    0.87    0.15 
  -1  -1 -14    2.38    0.20 
   1   1  14    2.15    0.20 
  -2  -1 -14    2.36    0.21 
   2   1  14    2.34    0.22 
   7  -2 -14    7.68    0.38 
  -7   2  14    7.20    0.36 
   6  -2 -14    3.07    0.23 
   6  -2 -14    3.18    0.22 
  -6   2  14    3.05    0.24 
   5  -2 -14    2.30    0.20 
   5  -2 -14    2.23    0.19 
  -5   2  14    2.74    0.22 
   4  -2 -14    8.11    0.34 
   4  -2 -14    8.17    0.34 
  -4   2  14    7.93    0.35 
   3  -2 -14    0.87    0.15 
   3  -2 -14    0.54    0.12 
  -3   2  14    0.87    0.15 
   2  -2 -14   29.40    0.71 
  -2   2  14   27.53    0.69 
   1  -2 -14    1.86    0.18 
  -1   2  14    1.54    0.18 
   0  -2 -14   17.72    0.54 
   0   2  14   18.20    0.56 
  -1  -2 -14    3.43    0.24 
   1   2  14    3.06    0.24 
  -2  -2 -14    0.93    0.16 
   2   2  14    1.03    0.18 
   6  -3 -14    0.87    0.17 
  -6   3  14    0.33    0.11 
   5  -3 -14    2.41    0.20 
   5  -3 -14    2.57    0.22 
  -5   3  14    2.47    0.22 
   4  -3 -14    8.74    0.36 
   4  -3 -14    8.48    0.35 
  -4   3  14    8.51    0.37 
   3  -3 -14    3.90    0.25 
  -3   3  14    3.74    0.25 
   2  -3 -14   10.69    0.41 
  -2   3  14   10.05    0.40 
   1  -3 -14    2.25    0.20 
  -1   3  14    2.10    0.20 
   0  -3 -14    9.05    0.38 
   0   3  14    8.33    0.37 
  -1  -3 -14    2.85    0.23 
   1   3  14    2.18    0.21 
   5  -4 -14    3.31    0.23 
   5  -4 -14    3.19    0.24 
  -5   4  14    2.77    0.23 
   4  -4 -14   15.16    0.51 
   4  -4 -14   14.04    0.47 
  -4   4  14   13.89    0.48 
   3  -4 -14    4.32    0.27 
  -3   4  14    3.74    0.25 
   2  -4 -14    1.78    0.18 
  -2   4  14    1.54    0.18 
   1  -4 -14    2.83    0.23 
  -1   4  14    3.04    0.23 
   0  -4 -14    3.34    0.25 
   4  -5 -14    7.84    0.35 
  -4   5  14    8.47    0.38 
   3  -5 -14    0.28    0.11 
  -3   5  14    0.27    0.11 
   2  -5 -14    3.87    0.26 
  -2   5  14    4.07    0.27 
   1  -5 -14   14.69    0.57 
  -1   5  14   15.67    0.53 
   2   8 -15    2.43    0.22 
  -2  -8  15    2.67    0.23 
   1   8 -15    0.60    0.13 
  -1  -8  15    0.80    0.16 
   4   7 -15    1.31    0.19 
  -4  -7  15    1.35    0.19 
   3   7 -15    2.94    0.23 
  -3  -7  15    3.07    0.25 
  -3  -7  15    3.12    0.23 
   2   7 -15    0.40    0.13 
  -2  -7  15    0.67    0.14 
  -2  -7  15    0.41    0.12 
   1   7 -15    2.99    0.23 
  -1  -7  15    3.80    0.26 
  -1  -7  15    3.26    0.24 
   0   7 -15   16.99    0.53 
   0  -7  15   16.14    0.52 
   0  -7  15   15.26    0.51 
  -1   7 -15    2.00    0.19 
   1  -7  15    2.81    0.23 
   5   6 -15    9.91    0.42 
  -5  -6  15   10.84    0.41 
  -5  -6  15    9.68    0.46 
   4   6 -15    0.18    0.09 
  -4  -6  15    0.33    0.12 
  -4  -6  15    0.30    0.10 
   3   6 -15    4.04    0.26 
  -3  -6  15    4.28    0.28 
  -3  -6  15    4.14    0.26 
   2   6 -15    0.70    0.14 
  -2  -6  15    0.77    0.15 
  -2  -6  15    0.79    0.15 
   1   6 -15   17.20    0.53 
  -1  -6  15   16.82    0.52 
  -1  -6  15   17.39    0.55 
   0   6 -15    8.46    0.36 
   0  -6  15    8.60    0.38 
   0  -6  15    8.76    0.36 
  -1   6 -15    2.11    0.19 
   1  -6  15    2.11    0.21 
   2  -6  15    0.74    0.14 
   5   5 -15   12.57    0.46 
  -5  -5  15   13.05    0.50 
  -5  -5  15   13.29    0.47 
   4   5 -15    0.50    0.13 
  -4  -5  15    0.66    0.14 
  -4  -5  15    0.40    0.12 
   3   5 -15    7.02    0.34 
  -3  -5  15    6.05    0.32 
  -3  -5  15    6.10    0.31 
   2   5 -15    4.34    0.26 
  -2  -5  15    4.59    0.28 
  -2  -5  15    4.08    0.26 
   1   5 -15    0.31    0.11 
  -1  -5  15    0.09    0.08 
  -1  -5  15    0.04    0.07 
   0   5 -15    5.70    0.30 
   0  -5  15    4.43    0.28 
  -1   5 -15    8.10    0.35 
   1  -5  15    8.36    0.39 
  -2   5 -15    1.64    0.17 
   2  -5  15    1.62    0.19 
   6   4 -15    0.23    0.10 
  -6  -4  15    0.13    0.08 
  -6  -4  15    0.18    0.11 
   5   4 -15    2.35    0.20 
  -5  -4  15    2.99    0.24 
  -5  -4  15    2.52    0.22 
   4   4 -15    1.21    0.16 
  -4  -4  15    0.82    0.17 
  -4  -4  15    1.14    0.16 
   3   4 -15    0.93    0.15 
  -3  -4  15    0.84    0.14 
  -3  -4  15    0.88    0.15 
   2   4 -15   17.91    0.53 
  -2  -4  15   19.17    0.55 
  -2  -4  15   18.09    0.56 
   1   4 -15    6.02    0.30 
  -1  -4  15    5.85    0.32 
  -1  -4  15    5.76    0.29 
   0   4 -15   18.39    0.53 
   0  -4  15   16.44    0.54 
  -1   4 -15   22.39    0.60 
   1  -4  15   20.94    0.62 
  -2   4 -15    2.40    0.20 
   2  -4  15    2.27    0.21 
   6   3 -15    1.51    0.18 
  -6  -3  15    1.90    0.19 
  -6  -3  15    1.54    0.20 
   5   3 -15    2.44    0.21 
  -5  -3  15    2.64    0.23 
  -5  -3  15    2.67    0.22 
   4   3 -15    1.05    0.15 
  -4  -3  15    1.30    0.16 
  -4  -3  15    1.13    0.16 
   3   3 -15    0.87    0.15 
  -3  -3  15    0.90    0.16 
  -3  -3  15    0.93    0.16 
   2   3 -15    2.86    0.21 
  -2  -3  15    2.98    0.22 
  -2  -3  15    2.86    0.22 
   1   3 -15    5.56    0.29 
  -1  -3  15    5.62    0.31 
   0   3 -15    3.11    0.22 
   0  -3  15    2.27    0.21 
  -1   3 -15    9.01    0.37 
   1  -3  15    8.25    0.39 
  -2   3 -15    9.11    0.38 
   2  -3  15    7.72    0.38 
   6   2 -15    1.85    0.18 
   6   2 -15    1.63    0.19 
  -6  -2  15    1.85    0.19 
   5   2 -15    8.34    0.36 
  -5  -2  15    7.49    0.36 
  -5  -2  15    7.86    0.37 
   4   2 -15    0.25    0.10 
  -4  -2  15    0.35    0.10 
  -4  -2  15    0.33    0.11 
   3   2 -15    1.70    0.17 
  -3  -2  15    1.49    0.17 
  -3  -2  15    1.42    0.16 
   2   2 -15   13.83    0.46 
  -2  -2  15   13.48    0.48 
  -2  -2  15   13.57    0.44 
   1   2 -15    7.00    0.33 
  -1  -2  15    7.71    0.36 
   0   2 -15    5.16    0.28 
   0  -2  15    4.80    0.29 
  -1   2 -15    0.13    0.09 
   1  -2  15    0.22    0.10 
  -2   2 -15    3.09    0.23 
   2  -2  15    2.72    0.24 
   6   1 -15    5.72    0.32 
   6   1 -15    5.65    0.29 
  -6  -1  15    5.35    0.31 
   5   1 -15   52.46    1.05 
   5   1 -15   55.88    1.04 
  -5  -1  15   53.96    1.09 
   4   1 -15    2.48    0.20 
   4   1 -15    2.30    0.20 
  -4  -1  15    2.44    0.21 
   3   1 -15   25.75    0.65 
  -3  -1  15   25.39    0.68 
   2   1 -15   19.78    0.57 
  -2  -1  15   19.61    0.59 
   1   1 -15    3.95    0.25 
  -1  -1  15    3.22    0.24 
   0   1 -15    6.58    0.32 
   0  -1  15    6.44    0.34 
  -1   1 -15    2.21    0.20 
   1  -1  15    2.39    0.22 
  -2   1 -15    7.42    0.35 
   2  -1  15    6.38    0.35 
   6   0 -15    0.49    0.13 
   6   0 -15    0.25    0.10 
  -6   0  15    0.42    0.12 
   5   0 -15    2.09    0.20 
   5   0 -15    2.25    0.20 
  -5   0  15    2.47    0.23 
   4   0 -15    7.28    0.33 
   4   0 -15    7.61    0.34 
  -4   0  15    6.83    0.34 
   3   0 -15    2.43    0.19 
   3   0 -15    2.77    0.21 
  -3   0  15    2.50    0.22 
   2   0 -15   10.19    0.40 
  -2   0  15   10.35    0.42 
   1   0 -15    7.30    0.34 
  -1   0  15    7.47    0.36 
   0   0 -15   12.85    0.46 
   0   0  15   11.99    0.46 
  -1   0 -15   10.08    0.41 
   1   0  15    9.03    0.40 
  -2   0 -15    2.56    0.22 
   2   0  15    2.74    0.24 
   6  -1 -15    1.32    0.17 
   6  -1 -15    1.76    0.18 
  -6   1  15    1.58    0.19 
   5  -1 -15    1.09    0.15 
   5  -1 -15    1.24    0.19 
  -5   1  15    1.33    0.17 
   4  -1 -15    1.99    0.19 
   4  -1 -15    1.53    0.18 
  -4   1  15    1.27    0.16 
   3  -1 -15    3.00    0.22 
  -3   1  15    2.93    0.24 
   2  -1 -15    5.66    0.30 
  -2   1  15    4.79    0.29 
   1  -1 -15    0.15    0.09 
  -1   1  15    0.10    0.09 
   0  -1 -15    9.98    0.41 
   0   1  15    8.62    0.39 
  -1  -1 -15    1.30    0.17 
   1   1  15    0.63    0.15 
   5  -2 -15    0.38    0.12 
   5  -2 -15    0.39    0.12 
  -5   2  15    0.61    0.14 
   4  -2 -15    7.80    0.35 
   4  -2 -15    8.10    0.35 
  -4   2  15    7.90    0.37 
   3  -2 -15    0.15    0.09 
  -3   2  15    0.17    0.10 
   2  -2 -15    7.55    0.35 
  -2   2  15    7.35    0.36 
   1  -2 -15    2.21    0.20 
  -1   2  15    1.82    0.20 
   0  -2 -15    1.52    0.18 
   0   2  15    1.85    0.20 
   5  -3 -15    0.78    0.15 
   5  -3 -15    0.64    0.14 
  -5   3  15    0.76    0.16 
   4  -3 -15    6.31    0.32 
  -4   3  15    5.45    0.31 
   3  -3 -15    4.83    0.29 
  -3   3  15    4.13    0.27 
   2  -3 -15    7.03    0.34 
  -2   3  15    6.06    0.33 
   1  -3 -15    8.03    0.37 
  -1   3  15    7.79    0.37 
   3   6 -16    0.68    0.17 
  -3  -6  16    0.96    0.18 
  -3  -6  16    0.82    0.15 
   2   6 -16    0.46    0.12 
  -2  -6  16    0.43    0.12 
  -2  -6  16    0.40    0.11 
   1   6 -16    0.47    0.13 
  -1  -6  16    0.35    0.12 
  -1  -6  16    0.49    0.13 
   4   5 -16    1.14    0.17 
  -4  -5  16    1.19    0.17 
  -4  -5  16    1.44    0.19 
   3   5 -16   35.60    0.83 
  -3  -5  16   34.35    0.82 
  -3  -5  16   34.31    0.83 
   2   5 -16    0.56    0.13 
  -2  -5  16    0.32    0.11 
  -2  -5  16    0.47    0.14 
   1   5 -16   40.81    0.89 
  -1  -5  16   39.56    0.90 
  -1  -5  16   38.15    0.88 
   0   5 -16    1.92    0.20 
   0  -5  16    2.02    0.21 
   4   4 -16   29.89    0.75 
  -4  -4  16   28.47    0.74 
  -4  -4  16   25.25    0.70 
   3   4 -16    0.61    0.14 
  -3  -4  16    0.55    0.13 
  -3  -4  16    0.59    0.14 
   2   4 -16   38.87    0.87 
  -2  -4  16   38.28    0.89 
  -2  -4  16   39.92    0.87 
   1   4 -16    4.95    0.29 
  -1  -4  16    4.27    0.28 
   0   4 -16   48.63    1.00 
   0  -4  16   44.30    0.99 
  -1   4 -16    7.17    0.35 
   1  -4  16    5.81    0.36 
   5   3 -16   14.00    0.49 
  -5  -3  16   12.90    0.50 
  -5  -3  16   13.55    0.50 
   4   3 -16    0.60    0.14 
  -4  -3  16    0.83    0.16 
  -4  -3  16    0.53    0.13 
   3   3 -16    0.89    0.16 
  -3  -3  16    1.15    0.16 
  -3  -3  16    0.56    0.14 
   2   3 -16    0.19    0.10 
  -2  -3  16    0.34    0.11 
  -2  -3  16    0.38    0.12 
   1   3 -16    0.74    0.15 
  -1  -3  16    0.81    0.16 
   0   3 -16    2.67    0.22 
   0  -3  16    2.74    0.24 
  -1   3 -16    0.84    0.16 
   1  -3  16    0.73    0.15 
   5   2 -16    2.53    0.22 
   5   2 -16    2.46    0.21 
  -5  -2  16    2.25    0.21 
   4   2 -16    3.72    0.25 
  -4  -2  16    3.04    0.24 
  -4  -2  16    2.78    0.22 
   3   2 -16    0.46    0.13 
  -3  -2  16    0.31    0.11 
  -3  -2  16    0.41    0.13 
   2   2 -16    1.77    0.19 
  -2  -2  16    1.59    0.19 
   1   2 -16    5.21    0.30 
  -1  -2  16    5.11    0.31 
   0   2 -16    3.43    0.25 
   0  -2  16    3.40    0.26 
  -1   2 -16    0.23    0.10 
   1  -2  16    0.40    0.15 
   5   1 -16    7.28    0.35 
   5   1 -16    6.72    0.34 
  -5  -1  16    6.85    0.36 
   4   1 -16    2.59    0.22 
   4   1 -16    2.33    0.21 
  -4  -1  16    2.60    0.22 
   3   1 -16    2.04    0.19 
   3   1 -16    2.42    0.20 
  -3  -1  16    2.06    0.21 
   2   1 -16    0.64    0.14 
  -2  -1  16    0.60    0.14 
   1   1 -16    6.37    0.33 
  -1  -1  16    5.79    0.33 
   0   1 -16    7.70    0.37 
   0  -1  16    7.14    0.37 
   5   0 -16    1.21    0.17 
   5   0 -16    1.12    0.16 
  -5   0  16    0.98    0.19 
   4   0 -16    1.15    0.16 
   4   0 -16    0.92    0.16 
   3   0 -16    0.79    0.15 
  -3   0  16    0.74    0.15 
   2   0 -16    7.27    0.35 
  -2   0  16    6.53    0.35 
   1   0 -16    3.08    0.24 
  -1   0  16    3.47    0.27 
   0   0 -16    2.18    0.21 
   0   0  16    2.07    0.22 
   4  -1 -16    1.64    0.18 
   4  -1 -16    1.57    0.18 
  -4   1  16    1.57    0.19 
   3  -1 -16    8.89    0.39 
  -3   1  16    8.24    0.39 
   2  -1 -16    8.47    0.39 
  -2   1  16    8.55    0.40 
   1  -1 -16    1.54    0.18 
  -1   1  16    1.87    0.20 
   0   0   0    0.00    0.00 
;
_shelx_hkl_checksum              11002
loop_
_space_group_symop_operation_xyz
'x, y, z'
loop_
_atom_site_label
_atom_site_type_symbol
_atom_site_fract_x
_atom_site_fract_y
_atom_site_fract_z
_atom_site_U_iso_or_equiv
_atom_site_adp_type
_atom_site_occupancy
_atom_site_site_symmetry_order
_atom_site_calc_flag
_atom_site_refinement_flags_posn
Si1 Si 0.31514(7) 0.51640(5) 0.40055(5) 0.01210(12) Uani 1 1 d .
Si2 Si 0.70825(7) 0.51109(5) 0.58984(5) 0.01216(12) Uani 1 1 d .
O1 O 0.1259(2) 0.45329(18) 0.44492(15) 0.0173(3) Uani 1 1 d D
H1A H 0.091(6) 0.3634(19) 0.440(4) 0.046(11) Uiso 1 1 d D
O2 O 0.5000(2) 0.5000(2) 0.50000(17) 0.0155(3) Uani 1 1 d .
O3 O 0.8641(2) 0.59857(19) 0.53487(16) 0.0180(3) Uani 1 1 d D
H3A H 0.943(4) 0.551(4) 0.508(3) 0.032(9) Uiso 1 1 d D
C1 C 0.2961(3) 0.7129(2) 0.3883(2) 0.0138(4) Uani 1 1 d .
C2 C 0.2756(3) 0.7450(3) 0.2751(2) 0.0171(4) Uani 1 1 d .
H2 H 0.264(6) 0.661(5) 0.204(4) 0.028(10) Uiso 1 1 d .
C3 C 0.2643(3) 0.8912(3) 0.2548(2) 0.0199(4) Uani 1 1 d .
H3 H 0.265(6) 0.912(5) 0.172(4) 0.038(10) Uiso 1 1 d .
C4 C 0.2747(3) 1.0055(3) 0.3501(2) 0.0197(4) Uani 1 1 d .
H4 H 0.285(6) 1.102(4) 0.331(3) 0.033(9) Uiso 1 1 d .
C5 C 0.2933(3) 0.9789(2) 0.4675(2) 0.0167(4) Uani 1 1 d .
C6 C 0.3001(3) 1.0968(2) 0.5660(2) 0.0203(4) Uani 1 1 d .
H6 H 0.306(6) 1.199(4) 0.551(3) 0.034(10) Uiso 1 1 d .
C7 C 0.3144(4) 1.0704(3) 0.6791(2) 0.0210(4) Uani 1 1 d .
H7 H 0.318(6) 1.145(4) 0.746(4) 0.031(9) Uiso 1 1 d .
C8 C 0.3227(4) 0.9248(3) 0.6997(2) 0.0209(4) Uani 1 1 d .
H8 H 0.347(5) 0.906(4) 0.780(3) 0.024(9) Uiso 1 1 d .
C9 C 0.3174(3) 0.8087(3) 0.6059(2) 0.0171(4) Uani 1 1 d .
H9 H 0.335(6) 0.711(4) 0.621(4) 0.024(9) Uiso 1 1 d .
C10 C 0.3023(3) 0.8315(2) 0.4875(2) 0.0142(4) Uani 1 1 d .
C11 C 0.3084(3) 0.3997(2) 0.2504(2) 0.0134(4) Uani 1 1 d .
C12 C 0.1469(3) 0.2976(3) 0.1940(2) 0.0171(4) Uani 1 1 d .
H12 H 0.036(5) 0.293(4) 0.225(3) 0.020(8) Uiso 1 1 d .
C13 C 0.1303(4) 0.2023(3) 0.0811(2) 0.0208(4) Uani 1 1 d .
H13 H 0.018(6) 0.137(4) 0.055(3) 0.025(9) Uiso 1 1 d .
C14 C 0.2766(4) 0.2097(3) 0.0252(2) 0.0222(5) Uani 1 1 d .
H14 H 0.268(6) 0.135(5) -0.046(4) 0.036(11) Uiso 1 1 d .
C15 C 0.4439(3) 0.3143(3) 0.0770(2) 0.0180(4) Uani 1 1 d .
C16 C 0.5954(4) 0.3277(3) 0.0176(2) 0.0233(5) Uani 1 1 d .
H16 H 0.585(6) 0.259(4) -0.060(4) 0.033(10) Uiso 1 1 d .
C17 C 0.7530(4) 0.4320(3) 0.0663(2) 0.0234(5) Uani 1 1 d .
H17 H 0.852(5) 0.442(4) 0.029(3) 0.020(8) Uiso 1 1 d .
C18 C 0.7697(3) 0.5299(3) 0.1777(2) 0.0201(4) Uani 1 1 d .
H18 H 0.874(5) 0.605(4) 0.211(3) 0.021(8) Uiso 1 1 d .
C19 C 0.6274(3) 0.5194(3) 0.2382(2) 0.0168(4) Uani 1 1 d .
H19 H 0.639(5) 0.580(4) 0.313(3) 0.013(7) Uiso 1 1 d .
C20 C 0.4602(3) 0.4118(3) 0.1897(2) 0.0147(4) Uani 1 1 d .
C21 C 0.7207(3) 0.6275(2) 0.7410(2) 0.0142(4) Uani 1 1 d .
C22 C 0.8867(3) 0.7272(3) 0.7929(2) 0.0161(4) Uani 1 1 d .
H22 H 0.991(5) 0.739(4) 0.747(3) 0.019(8) Uiso 1 1 d .
C23 C 0.9155(4) 0.8208(3) 0.9075(2) 0.0211(4) Uani 1 1 d .
H23 H 1.047(6) 0.890(4) 0.951(3) 0.025(9) Uiso 1 1 d .
C24 C 0.7757(4) 0.8160(3) 0.9694(2) 0.0212(5) Uani 1 1 d .
H24 H 0.796(4) 0.872(4) 1.044(3) 0.013(7) Uiso 1 1 d .
C25 C 0.6036(3) 0.7143(3) 0.9216(2) 0.0171(4) Uani 1 1 d .
C26 C 0.4585(4) 0.7057(3) 0.9857(2) 0.0212(5) Uani 1 1 d .
H26 H 0.485(5) 0.770(4) 1.063(3) 0.023(9) Uiso 1 1 d .
C27 C 0.2967(4) 0.6038(3) 0.9413(2) 0.0242(5) Uani 1 1 d .
H27 H 0.200(7) 0.597(5) 0.990(4) 0.041(12) Uiso 1 1 d .
C28 C 0.2708(3) 0.5060(3) 0.8293(2) 0.0216(5) Uani 1 1 d .
H28 H 0.156(7) 0.441(6) 0.801(5) 0.045(12) Uiso 1 1 d .
C29 C 0.4072(3) 0.5127(3) 0.7645(2) 0.0172(4) Uani 1 1 d .
H29 H 0.388(6) 0.435(5) 0.683(4) 0.029(10) Uiso 1 1 d .
C30 C 0.5770(3) 0.6176(3) 0.8076(2) 0.0145(4) Uani 1 1 d .
C31 C 0.7539(3) 0.3201(2) 0.6074(2) 0.0141(4) Uani 1 1 d .
C32 C 0.7809(3) 0.2885(3) 0.7215(2) 0.0172(4) Uani 1 1 d .
H32 H 0.783(6) 0.361(5) 0.790(4) 0.026(9) Uiso 1 1 d .
C33 C 0.8118(4) 0.1466(3) 0.7431(2) 0.0209(4) Uani 1 1 d .
H33 H 0.827(4) 0.123(3) 0.823(3) 0.010(6) Uiso 1 1 d .
C34 C 0.8162(3) 0.0341(3) 0.6510(2) 0.0205(4) Uani 1 1 d .
H34 H 0.833(5) -0.062(4) 0.662(3) 0.026(8) Uiso 1 1 d .
C35 C 0.7913(3) 0.0590(2) 0.5324(2) 0.0159(4) Uani 1 1 d .
C36 C 0.7978(3) -0.0575(3) 0.4360(2) 0.0197(4) Uani 1 1 d .
H36 H 0.822(4) -0.148(4) 0.454(3) 0.016(7) Uiso 1 1 d .
C37 C 0.7718(3) -0.0343(3) 0.3211(2) 0.0214(4) Uani 1 1 d .
H37 H 0.776(5) -0.112(4) 0.253(3) 0.018(7) Uiso 1 1 d .
C38 C 0.7395(3) 0.1067(3) 0.2970(2) 0.0197(4) Uani 1 1 d .
H38 H 0.729(5) 0.131(4) 0.213(3) 0.024(8) Uiso 1 1 d .
C39 C 0.7343(3) 0.2219(3) 0.3893(2) 0.0160(4) Uani 1 1 d .
H39 H 0.712(6) 0.312(5) 0.367(4) 0.032(11) Uiso 1 1 d .
C40 C 0.7599(3) 0.2019(2) 0.5098(2) 0.0135(4) Uani 1 1 d .
loop_
_atom_site_aniso_label
_atom_site_aniso_U_11
_atom_site_aniso_U_22
_atom_site_aniso_U_33
_atom_site_aniso_U_23
_atom_site_aniso_U_13
_atom_site_aniso_U_12
Si1 0.0124(2) 0.0122(2) 0.0117(2) 0.00178(19) 0.00363(18) 0.00174(18)
Si2 0.0131(2) 0.0120(2) 0.0114(2) 0.00172(19) 0.00364(18) 0.00166(17)
O1 0.0170(7) 0.0147(7) 0.0207(8) 0.0020(6) 0.0084(6) -0.0004(5)
O2 0.0159(6) 0.0179(7) 0.0124(5) 0.0029(5) 0.0022(5) 0.0041(5)
O3 0.0195(7) 0.0158(7) 0.0214(7) 0.0039(6) 0.0111(6) 0.0024(6)
C1 0.0130(8) 0.0140(9) 0.0138(9) 0.0020(7) 0.0034(7) 0.0009(7)
C2 0.0186(9) 0.0186(10) 0.0155(9) 0.0046(8) 0.0048(7) 0.0050(7)
C3 0.0223(10) 0.0230(11) 0.0189(10) 0.0098(8) 0.0083(8) 0.0071(8)
C4 0.0204(10) 0.0169(9) 0.0243(10) 0.0090(8) 0.0058(8) 0.0049(7)
C5 0.0138(8) 0.0129(8) 0.0219(10) 0.0039(7) 0.0016(7) 0.0006(7)
C6 0.0201(10) 0.0133(9) 0.0257(11) 0.0014(8) 0.0036(8) 0.0028(7)
C7 0.0220(10) 0.0167(9) 0.0199(10) -0.0033(8) 0.0021(8) 0.0020(8)
C8 0.0243(10) 0.0200(10) 0.0174(10) 0.0011(8) 0.0049(8) 0.0041(8)
C9 0.0193(9) 0.0145(9) 0.0172(10) 0.0029(8) 0.0044(7) 0.0021(7)
C10 0.0128(8) 0.0124(9) 0.0165(9) 0.0028(7) 0.0024(7) 0.0009(6)
C11 0.0139(8) 0.0141(9) 0.0123(9) 0.0033(7) 0.0031(7) 0.0021(7)
C12 0.0172(9) 0.0160(10) 0.0165(10) 0.0028(8) 0.0022(7) 0.0008(7)
C13 0.0241(10) 0.0176(10) 0.0151(10) -0.0030(8) 0.0002(8) -0.0018(8)
C14 0.0289(12) 0.0201(11) 0.0152(10) -0.0010(9) 0.0049(9) 0.0026(9)
C15 0.0206(10) 0.0208(10) 0.0129(9) 0.0032(8) 0.0031(7) 0.0066(8)
C16 0.0273(11) 0.0293(13) 0.0167(10) 0.0041(9) 0.0099(8) 0.0100(9)
C17 0.0201(10) 0.0351(13) 0.0197(11) 0.0098(9) 0.0090(8) 0.0093(9)
C18 0.0168(9) 0.0266(11) 0.0181(10) 0.0073(9) 0.0042(8) 0.0040(8)
C19 0.0163(9) 0.0188(10) 0.0153(10) 0.0044(8) 0.0033(7) 0.0025(7)
C20 0.0166(9) 0.0161(9) 0.0116(9) 0.0032(7) 0.0032(7) 0.0037(7)
C21 0.0155(8) 0.0130(9) 0.0133(9) 0.0014(7) 0.0027(7) 0.0026(7)
C22 0.0169(9) 0.0151(9) 0.0151(10) 0.0015(8) 0.0031(7) 0.0011(7)
C23 0.0224(10) 0.0179(10) 0.0193(11) 0.0007(8) 0.0019(8) -0.0009(8)
C24 0.0269(11) 0.0180(10) 0.0143(10) -0.0027(8) 0.0017(8) 0.0015(8)
C25 0.0220(10) 0.0177(10) 0.0123(9) 0.0019(7) 0.0052(7) 0.0055(8)
C26 0.0251(11) 0.0270(12) 0.0138(10) 0.0033(9) 0.0070(8) 0.0100(9)
C27 0.0232(11) 0.0370(14) 0.0175(10) 0.0092(9) 0.0101(8) 0.0106(10)
C28 0.0161(9) 0.0298(12) 0.0196(10) 0.0071(9) 0.0051(8) 0.0021(8)
C29 0.0161(9) 0.0220(10) 0.0132(9) 0.0041(8) 0.0032(7) 0.0015(7)
C30 0.0158(9) 0.0151(9) 0.0130(9) 0.0031(7) 0.0033(7) 0.0039(7)
C31 0.0130(8) 0.0135(9) 0.0152(9) 0.0028(7) 0.0029(7) 0.0016(6)
C32 0.0175(9) 0.0174(10) 0.0164(10) 0.0045(8) 0.0027(7) 0.0029(7)
C33 0.0224(10) 0.0216(10) 0.0218(10) 0.0106(8) 0.0055(8) 0.0060(8)
C34 0.0203(10) 0.0182(10) 0.0259(11) 0.0102(8) 0.0058(8) 0.0058(8)
C35 0.0155(9) 0.0139(8) 0.0190(9) 0.0042(7) 0.0045(7) 0.0026(7)
C36 0.0199(9) 0.0143(9) 0.0253(10) 0.0029(7) 0.0064(8) 0.0043(7)
C37 0.0217(10) 0.0168(9) 0.0234(10) -0.0010(8) 0.0048(8) 0.0030(8)
C38 0.0221(10) 0.0172(10) 0.0183(10) 0.0003(8) 0.0055(8) 0.0011(8)
C39 0.0165(9) 0.0158(9) 0.0152(9) 0.0029(8) 0.0035(7) 0.0010(7)
C40 0.0122(8) 0.0129(9) 0.0152(9) 0.0021(7) 0.0032(6) 0.0016(6)
loop_
_atom_type_symbol
_atom_type_description
_atom_type_scat_dispersion_real
_atom_type_scat_dispersion_imag
_atom_type_scat_source
C C 0.0033 0.0016 'International Tables Vol C Tables 4.2.6.8 and 6.1.1.4'
H H 0.0000 0.0000 'International Tables Vol C Tables 4.2.6.8 and 6.1.1.4'
O O 0.0106 0.0060 'International Tables Vol C Tables 4.2.6.8 and 6.1.1.4'
Si Si 0.0817 0.0704 'International Tables Vol C Tables 4.2.6.8 and 6.1.1.4'
loop_
_geom_angle_atom_site_label_1
_geom_angle_atom_site_label_2
_geom_angle_atom_site_label_3
_geom_angle
O2 Si1 O1 106.92(9)
O2 Si1 C1 113.49(9)
O1 Si1 C1 106.56(9)
O2 Si1 C11 110.88(10)
O1 Si1 C11 108.22(9)
C1 Si1 C11 110.48(10)
O3 Si2 O2 107.60(9)
O3 Si2 C31 113.65(9)
O2 Si2 C31 109.46(9)
O3 Si2 C21 106.14(10)
O2 Si2 C21 110.87(10)
C31 Si2 C21 109.09(10)
Si1 O1 H1A 123(3)
Si1 O2 Si2 168.05(12)
Si2 O3 H3A 118(3)
C2 C1 C10 118.4(2)
C2 C1 Si1 117.01(17)
C10 C1 Si1 124.55(17)
C1 C2 C3 122.2(2)
C1 C2 H2 119(2)
C3 C2 H2 119(2)
C4 C3 C2 119.4(2)
C4 C3 H3 121(2)
C2 C3 H3 120(2)
C3 C4 C5 120.9(2)
C3 C4 H4 114(2)
C5 C4 H4 125(2)
C4 C5 C6 120.9(2)
C4 C5 C10 119.7(2)
C6 C5 C10 119.4(2)
C7 C6 C5 120.8(2)
C7 C6 H6 121(2)
C5 C6 H6 118(2)
C6 C7 C8 120.2(2)
C6 C7 H7 123(2)
C8 C7 H7 117(2)
C9 C8 C7 120.1(2)
C9 C8 H8 118(2)
C7 C8 H8 121(2)
C8 C9 C10 121.4(2)
C8 C9 H9 120(2)
C10 C9 H9 119(2)
C9 C10 C5 118.1(2)
C9 C10 C1 122.5(2)
C5 C10 C1 119.4(2)
C12 C11 C20 118.2(2)
C12 C11 Si1 117.93(18)
C20 C11 Si1 123.86(17)
C11 C12 C13 121.9(2)
C11 C12 H12 122(2)
C13 C12 H12 116(2)
C14 C13 C12 120.0(2)
C14 C13 H13 126(2)
C12 C13 H13 114(2)
C13 C14 C15 120.8(2)
C13 C14 H14 118(3)
C15 C14 H14 121(3)
C14 C15 C16 121.6(2)
C14 C15 C20 119.4(2)
C16 C15 C20 119.0(2)
C17 C16 C15 121.1(2)
C17 C16 H16 120(2)
C15 C16 H16 119(2)
C16 C17 C18 120.3(2)
C16 C17 H17 122(2)
C18 C17 H17 118(2)
C19 C18 C17 120.3(2)
C19 C18 H18 118(2)
C17 C18 H18 121(2)
C18 C19 C20 120.9(2)
C18 C19 H19 121(2)
C20 C19 H19 118(2)
C19 C20 C15 118.4(2)
C19 C20 C11 122.0(2)
C15 C20 C11 119.6(2)
C22 C21 C30 118.4(2)
C22 C21 Si2 116.07(18)
C30 C21 Si2 125.48(16)
C21 C22 C23 121.8(2)
C21 C22 H22 120(2)
C23 C22 H22 118(2)
C24 C23 C22 120.0(2)
C24 C23 H23 118(2)
C22 C23 H23 122(2)
C23 C24 C25 120.7(2)
C23 C24 H24 120(2)
C25 C24 H24 119(2)
C24 C25 C26 121.4(2)
C24 C25 C30 119.2(2)
C26 C25 C30 119.3(2)
C27 C26 C25 121.1(2)
C27 C26 H26 122(2)
C25 C26 H26 116(2)
C26 C27 C28 119.9(2)
C26 C27 H27 120(3)
C28 C27 H27 121(3)
C29 C28 C27 120.5(2)
C29 C28 H28 123(3)
C27 C28 H28 117(3)
C28 C29 C30 121.3(2)
C28 C29 H29 119(2)
C30 C29 H29 119(2)
C29 C30 C25 117.9(2)
C29 C30 C21 122.3(2)
C25 C30 C21 119.8(2)
C32 C31 C40 117.5(2)
C32 C31 Si2 118.15(17)
C40 C31 Si2 124.33(17)
C31 C32 C33 122.2(2)
C31 C32 H32 122(3)
C33 C32 H32 116(2)
C34 C33 C32 120.5(2)
C34 C33 H33 117.1(18)
C32 C33 H33 122.4(18)
C33 C34 C35 120.2(2)
C33 C34 H34 123(2)
C35 C34 H34 117(2)
C34 C35 C40 119.6(2)
C34 C35 C36 120.5(2)
C40 C35 C36 119.8(2)
C37 C36 C35 120.7(2)
C37 C36 H36 121.4(19)
C35 C36 H36 117.8(19)
C36 C37 C38 120.2(2)
C36 C37 H37 123(2)
C38 C37 H37 117(2)
C39 C38 C37 120.2(2)
C39 C38 H38 117(2)
C37 C38 H38 122(2)
C38 C39 C40 121.3(2)
C38 C39 H39 116(3)
C40 C39 H39 123(3)
C35 C40 C39 117.8(2)
C35 C40 C31 119.9(2)
C39 C40 C31 122.3(2)
loop_
_geom_bond_atom_site_label_1
_geom_bond_atom_site_label_2
_geom_bond_distance
Si1 O2 1.6198(19)
Si1 O1 1.6564(17)
Si1 C1 1.863(2)
Si1 C11 1.873(2)
Si2 O3 1.6263(17)
Si2 O2 1.6312(18)
Si2 C31 1.869(2)
Si2 C21 1.873(2)
O1 H1A 0.829(14)
O3 H3A 0.834(14)
C1 C2 1.384(3)
C1 C10 1.434(3)
C2 C3 1.420(3)
C2 H2 1.01(4)
C3 C4 1.373(4)
C3 H3 1.02(4)
C4 C5 1.414(3)
C4 H4 0.95(4)
C5 C6 1.424(3)
C5 C10 1.427(3)
C6 C7 1.367(4)
C6 H6 0.98(4)
C7 C8 1.413(4)
C7 H7 0.94(4)
C8 C9 1.379(3)
C8 H8 0.96(4)
C9 C10 1.417(3)
C9 H9 0.97(4)
C11 C12 1.383(3)
C11 C20 1.439(3)
C12 C13 1.421(4)
C12 H12 0.95(4)
C13 C14 1.365(4)
C13 H13 0.92(4)
C14 C15 1.415(3)
C14 H14 0.96(4)
C15 C16 1.428(3)
C15 C20 1.429(3)
C16 C17 1.361(4)
C16 H16 0.99(4)
C17 C18 1.418(4)
C17 H17 0.92(4)
C18 C19 1.377(3)
C18 H18 0.93(4)
C19 C20 1.425(3)
C19 H19 0.93(3)
C21 C22 1.386(3)
C21 C30 1.435(3)
C22 C23 1.417(4)
C22 H22 1.02(4)
C23 C24 1.369(4)
C23 H23 1.06(4)
C24 C25 1.422(3)
C24 H24 0.90(3)
C25 C26 1.422(3)
C25 C30 1.426(3)
C26 C27 1.365(4)
C26 H26 0.96(4)
C27 C28 1.412(4)
C27 H27 1.00(5)
C28 C29 1.374(3)
C28 H28 0.93(5)
C29 C30 1.421(3)
C29 H29 1.06(4)
C31 C32 1.390(3)
C31 C40 1.441(3)
C32 C33 1.410(3)
C32 H32 0.94(4)
C33 C34 1.364(4)
C33 H33 0.98(3)
C34 C35 1.419(3)
C34 H34 0.94(4)
C35 C40 1.424(3)
C35 C36 1.424(3)
C36 C37 1.370(4)
C36 H36 0.92(3)
C37 C38 1.414(3)
C37 H37 0.98(3)
C38 C39 1.382(3)
C38 H38 1.04(4)
C39 C40 1.426(3)
C39 H39 0.93(4)
loop_
_geom_hbond_atom_site_label_D
_geom_hbond_atom_site_label_H
_geom_hbond_atom_site_label_A
_geom_hbond_distance_DH
_geom_hbond_distance_HA
_geom_hbond_distance_DA
_geom_hbond_angle_DHA
_geom_hbond_site_symmetry_A
O3 H3A O1 0.834(14) 1.899(15) 2.732(2) 177(4) 1_655
loop_
_geom_torsion_atom_site_label_1
_geom_torsion_atom_site_label_2
_geom_torsion_atom_site_label_3
_geom_torsion_atom_site_label_4
_geom_torsion
O1 Si1 O2 Si2 -156.1(7)
C1 Si1 O2 Si2 -38.9(7)
C11 Si1 O2 Si2 86.1(7)
O3 Si2 O2 Si1 -17.6(7)
C31 Si2 O2 Si1 -141.5(7)
C21 Si2 O2 Si1 98.1(7)
O2 Si1 C1 C2 126.78(17)
O1 Si1 C1 C2 -115.81(18)
C11 Si1 C1 C2 1.5(2)
O2 Si1 C1 C10 -52.9(2)
O1 Si1 C1 C10 64.55(19)
C11 Si1 C1 C10 -178.12(17)
C10 C1 C2 C3 1.2(3)
Si1 C1 C2 C3 -178.44(18)
C1 C2 C3 C4 0.3(3)
C2 C3 C4 C5 -1.0(3)
C3 C4 C5 C6 -178.7(2)
C3 C4 C5 C10 0.3(3)
C4 C5 C6 C7 178.7(2)
C10 C5 C6 C7 -0.3(3)
C5 C6 C7 C8 0.0(4)
C6 C7 C8 C9 0.3(4)
C7 C8 C9 C10 -0.5(4)
C8 C9 C10 C5 0.2(3)
C8 C9 C10 C1 -179.9(2)
C4 C5 C10 C9 -178.9(2)
C6 C5 C10 C9 0.1(3)
C4 C5 C10 C1 1.2(3)
C6 C5 C10 C1 -179.77(19)
C2 C1 C10 C9 178.1(2)
Si1 C1 C10 C9 -2.2(3)
C2 C1 C10 C5 -2.0(3)
Si1 C1 C10 C5 177.69(16)
O2 Si1 C11 C12 124.77(18)
O1 Si1 C11 C12 7.8(2)
C1 Si1 C11 C12 -108.51(19)
O2 Si1 C11 C20 -56.2(2)
O1 Si1 C11 C20 -173.18(18)
C1 Si1 C11 C20 70.5(2)
C20 C11 C12 C13 2.1(3)
Si1 C11 C12 C13 -178.78(19)
C11 C12 C13 C14 0.2(4)
C12 C13 C14 C15 -1.6(4)
C13 C14 C15 C16 -177.5(3)
C13 C14 C15 C20 0.8(4)
C14 C15 C16 C17 177.8(2)
C20 C15 C16 C17 -0.5(4)
C15 C16 C17 C18 0.1(4)
C16 C17 C18 C19 0.5(4)
C17 C18 C19 C20 -0.7(4)
C18 C19 C20 C15 0.3(3)
C18 C19 C20 C11 -179.3(2)
C14 C15 C20 C19 -178.0(2)
C16 C15 C20 C19 0.4(3)
C14 C15 C20 C11 1.6(3)
C16 C15 C20 C11 179.9(2)
C12 C11 C20 C19 176.6(2)
Si1 C11 C20 C19 -2.4(3)
C12 C11 C20 C15 -3.0(3)
Si1 C11 C20 C15 178.02(16)
O3 Si2 C21 C22 -20.7(2)
O2 Si2 C21 C22 -137.28(17)
C31 Si2 C21 C22 102.11(18)
O3 Si2 C21 C30 161.67(19)
O2 Si2 C21 C30 45.1(2)
C31 Si2 C21 C30 -75.5(2)
C30 C21 C22 C23 -1.5(3)
Si2 C21 C22 C23 -179.32(19)
C21 C22 C23 C24 -1.0(4)
C22 C23 C24 C25 2.1(4)
C23 C24 C25 C26 178.7(2)
C23 C24 C25 C30 -0.5(4)
C24 C25 C26 C27 -177.4(2)
C30 C25 C26 C27 1.7(4)
C25 C26 C27 C28 -0.7(4)
C26 C27 C28 C29 -0.1(4)
C27 C28 C29 C30 -0.2(4)
C28 C29 C30 C25 1.2(4)
C28 C29 C30 C21 -179.4(2)
C24 C25 C30 C29 177.3(2)
C26 C25 C30 C29 -1.9(3)
C24 C25 C30 C21 -2.1(3)
C26 C25 C30 C21 178.7(2)
C22 C21 C30 C29 -176.3(2)
Si2 C21 C30 C29 1.3(3)
C22 C21 C30 C25 3.1(3)
Si2 C21 C30 C25 -179.35(17)
O3 Si2 C31 C32 120.89(18)
O2 Si2 C31 C32 -118.78(18)
C21 Si2 C31 C32 2.7(2)
O3 Si2 C31 C40 -60.2(2)
O2 Si2 C31 C40 60.1(2)
C21 Si2 C31 C40 -178.44(17)
C40 C31 C32 C33 -0.4(3)
Si2 C31 C32 C33 178.51(19)
C31 C32 C33 C34 0.0(4)
C32 C33 C34 C35 0.5(4)
C33 C34 C35 C40 -0.6(3)
C33 C34 C35 C36 179.3(2)
C34 C35 C36 C37 179.3(2)
C40 C35 C36 C37 -0.8(3)
C35 C36 C37 C38 0.5(4)
C36 C37 C38 C39 0.1(4)
C37 C38 C39 C40 -0.4(3)
C34 C35 C40 C39 -179.6(2)
C36 C35 C40 C39 0.6(3)
C34 C35 C40 C31 0.1(3)
C36 C35 C40 C31 -179.77(19)
C38 C39 C40 C35 0.1(3)
C38 C39 C40 C31 -179.6(2)
C32 C31 C40 C35 0.4(3)
Si2 C31 C40 C35 -178.46(16)
C32 C31 C40 C39 -179.9(2)
Si2 C31 C40 C39 1.2(3)
