#------------------------------------------------------------------------------
#$Date: 2017-11-07 02:40:01 +0200 (Tue, 07 Nov 2017) $
#$Revision: 202673 $
#$URL: file:///home/coder/svn-repositories/cod/cif/4/03/28/4032849.cif $
#------------------------------------------------------------------------------
#
# This file is available in the Crystallography Open Database (COD),
# http://www.crystallography.net/
#
# All data on this site have been placed in the public domain by the
# contributors.
#
data_4032849
loop_
_publ_author_name
'Wang, Yajun'
'Jiang, Wei'
'Huo, Congde'
_publ_section_title
;
 One-Pot Synthesis of \b-Hydroxysulfones and Its Application in the
 Preparation of Anticancer Drug Bicalutamide.
;
_journal_issue                   19
_journal_name_full               'The Journal of organic chemistry'
_journal_page_first              10628
_journal_page_last               10634
_journal_paper_doi               10.1021/acs.joc.7b01371
_journal_volume                  82
_journal_year                    2017
_chemical_absolute_configuration unk
_chemical_formula_moiety         'C15 H16 O3 S'
_chemical_formula_sum            'C15 H16 O3 S'
_chemical_formula_weight         276.34
_space_group_crystal_system      monoclinic
_space_group_IT_number           4
_space_group_name_Hall           'P 2yb'
_space_group_name_H-M_alt        'P 1 21 1'
_symmetry_space_group_name_Hall  'P 2yb'
_symmetry_space_group_name_H-M   'P 1 21 1'
_atom_sites_solution_hydrogens   mixed
_atom_sites_solution_primary     direct
_audit_creation_date             2017-04-28
_audit_creation_method
;
Olex2 1.2
(compiled 2017.03.28 svn.r3405 for OlexSys, GUI svn.r5335)
;
_cell_angle_alpha                90
_cell_angle_beta                 93.79(2)
_cell_angle_gamma                90
_cell_formula_units_Z            2
_cell_length_a                   7.3223(13)
_cell_length_b                   5.9112(9)
_cell_length_c                   16.224(5)
_cell_measurement_reflns_used    124
_cell_measurement_temperature    291.13(10)
_cell_measurement_theta_max      15.2600
_cell_measurement_theta_min      3.8850
_cell_volume                     700.7(3)
_computing_cell_refinement
;
CrysAlisPro, Agilent Technologies,
Version 1.171.37.33 (release 27-03-2014 CrysAlis171 .NET)
(compiled Mar 27 2014,17:12:48)
;
_computing_data_collection
;
CrysAlisPro, Agilent Technologies,
Version 1.171.37.33 (release 27-03-2014 CrysAlis171 .NET)
(compiled Mar 27 2014,17:12:48)
;
_computing_data_reduction
;
CrysAlisPro, Agilent Technologies,
Version 1.171.37.33 (release 27-03-2014 CrysAlis171 .NET)
(compiled Mar 27 2014,17:12:48)
;
_computing_molecular_graphics    'Olex2 (Dolomanov et al., 2009)'
_computing_publication_material  'Olex2 (Dolomanov et al., 2009)'
_computing_structure_refinement  'ShelXL (Sheldrick, 2015)'
_computing_structure_solution    'ShelXS (Sheldrick, 2008)'
_diffrn_ambient_environment      air
_diffrn_ambient_temperature      291.13(10)
_diffrn_detector                 'CCD plate'
_diffrn_detector_area_resol_mean 16.0733
_diffrn_detector_type            Eos
_diffrn_measured_fraction_theta_full 0.995
_diffrn_measured_fraction_theta_max 0.995
_diffrn_measurement_details
;
#__ type_ start__ end____ width___ exp.time_
  1 omega  -11.00   19.00   2.0000   40.0000
omega____ theta____ kappa____ phi______ frames
    -      -19.5055  -99.0000   90.0000 15

#__ type_ start__ end____ width___ exp.time_
  2 omega   -1.00   91.00   2.0000   40.0000
omega____ theta____ kappa____ phi______ frames
    -       22.7867   57.0000  -30.0000 46

#__ type_ start__ end____ width___ exp.time_
  3 omega  -53.00   59.00   2.0000   40.0000
omega____ theta____ kappa____ phi______ frames
    -       22.7867  -19.0000  -30.0000 56
;
_diffrn_measurement_device       'four-circle diffractometer'
_diffrn_measurement_device_type  'SuperNova, Dual, Cu at zero, Eos'
_diffrn_measurement_method       '\w scans'
_diffrn_orient_matrix_UB_11      0.0365732000
_diffrn_orient_matrix_UB_12      -0.0195705000
_diffrn_orient_matrix_UB_13      0.0409178000
_diffrn_orient_matrix_UB_21      -0.0894416000
_diffrn_orient_matrix_UB_22      -0.0220879000
_diffrn_orient_matrix_UB_23      0.0124840000
_diffrn_orient_matrix_UB_31      0.0109504000
_diffrn_orient_matrix_UB_32      -0.1163179000
_diffrn_orient_matrix_UB_33      -0.0090913000
_diffrn_radiation_monochromator  mirror
_diffrn_radiation_probe          x-ray
_diffrn_radiation_type           MoK\a
_diffrn_radiation_wavelength     0.71073
_diffrn_reflns_av_R_equivalents  0.0955
_diffrn_reflns_av_unetI/netI     0.3113
_diffrn_reflns_Laue_measured_fraction_full 0.995
_diffrn_reflns_Laue_measured_fraction_max 0.995
_diffrn_reflns_limit_h_max       7
_diffrn_reflns_limit_h_min       -9
_diffrn_reflns_limit_k_max       7
_diffrn_reflns_limit_k_min       -6
_diffrn_reflns_limit_l_max       20
_diffrn_reflns_limit_l_min       -15
_diffrn_reflns_number            2632
_diffrn_reflns_point_group_measured_fraction_full 0.836
_diffrn_reflns_point_group_measured_fraction_max 0.821
_diffrn_reflns_theta_full        25.242
_diffrn_reflns_theta_max         26.016
_diffrn_reflns_theta_min         3.631
_diffrn_source                   'SuperNova (Mo) X-ray Source'
_exptl_absorpt_coefficient_mu    0.232
_exptl_absorpt_correction_type   none
_exptl_crystal_colour            'clear light colourless'
_exptl_crystal_colour_lustre     clear
_exptl_crystal_colour_modifier   light
_exptl_crystal_colour_primary    colourless
_exptl_crystal_density_diffrn    1.310
_exptl_crystal_description       needle
_exptl_crystal_F_000             292
_exptl_crystal_size_max          0.12
_exptl_crystal_size_mid          0.03
_exptl_crystal_size_min          0.02
_refine_diff_density_max         0.287
_refine_diff_density_min         -0.221
_refine_diff_density_rms         0.051
_refine_ls_abs_structure_details
;
 Flack x determined using 104 quotients [(I+)-(I-)]/[(I+)+(I-)]
 (Parsons, Flack and Wagner, Acta Cryst. B69 (2013) 249-259).
;
_refine_ls_abs_structure_Flack   0.3(3)
_refine_ls_extinction_method     none
_refine_ls_goodness_of_fit_ref   0.979
_refine_ls_hydrogen_treatment    mixed
_refine_ls_matrix_type           full
_refine_ls_number_parameters     177
_refine_ls_number_reflns         2270
_refine_ls_number_restraints     38
_refine_ls_restrained_S_all      0.982
_refine_ls_R_factor_all          0.3150
_refine_ls_R_factor_gt           0.1057
_refine_ls_shift/su_max          0.000
_refine_ls_shift/su_mean         0.000
_refine_ls_structure_factor_coef Fsqd
_refine_ls_weighting_details     'w=1/[\s^2^(Fo^2^)] where P=(Fo^2^+2Fc^2^)/3'
_refine_ls_weighting_scheme      calc
_refine_ls_wR_factor_gt          0.1300
_refine_ls_wR_factor_ref         0.2160
_reflns_Friedel_coverage         0.496
_reflns_Friedel_fraction_full    0.640
_reflns_Friedel_fraction_max     0.607
_reflns_number_gt                609
_reflns_number_total             2270
_reflns_threshold_expression     'I > 2\s(I)'
_cod_data_source_file            jo7b01371_si_003.cif
_cod_data_source_block           wangyj_0425
_cod_depositor_comments
'Adding full bibliography for 4032849--4032850.cif.'
_cod_database_code               4032849
_shelx_shelxl_version_number     2016/6
_shelx_space_group_comment
;
The symmetry employed for this shelxl refinement is uniquely defined
by the following loop, which should always be used as a source of
symmetry information in preference to the above space-group names.
They are only intended as comments.
;
_reflns_odcompleteness_completeness 99.50
_reflns_odcompleteness_iscentric 1
_reflns_odcompleteness_theta     26.32
_olex2_refinement_description
;
1. Fixed Uiso
 At 1.2 times of:
  All C(H) groups, All C(H,H) groups
 At 1.5 times of:
  All C(H,H,H) groups
2. Restrained distances
 H1-O1
 1 with sigma of 0.05
3. Uiso/Uaniso restraints and constraints
Uanis(C1) \\sim Ueq, Uanis(C6) \\sim Ueq, Uanis(C5) \\sim Ueq, Uanis(C7) \\sim
Ueq, Uanis(O1) \\sim Ueq, Uanis(C8) \\sim Ueq: with sigma of 0.006 and sigma
for terminal atoms of 0.008
4.a Ternary CH refined with riding coordinates:
 C7(H7)
4.b Secondary CH2 refined with riding coordinates:
 C8(H8A,H8B)
4.c Aromatic/amide H refined with riding coordinates:
 C1(H1A), C2(H2), C3(H3), C4(H4), C5(H5), C10(H10), C11(H11), C13(H13), C14(H14)
4.d Idealised Me refined as rotating group:
 C15(H15A,H15B,H15C)
;
_shelx_res_file
;
TITL wangyj_0425 in P21 #4
    wangyj_0425.res
    created by SHELXL-2016/6 at 00:05:07 on 28-Apr-2017
REM reset to P21 #4
CELL 0.71073 7.322262 5.911244 16.223973 90 93.7877 90
ZERR 2 0.001273 0.000873 0.005217 0 0.0249 0
LATT -1
SYMM -X,0.5+Y,-Z
SFAC C H O S
UNIT 30 32 6 2
DFIX 1 0.05 H1 O1
ISOR 0.006 0.008 C1 C6 C5 C7 O1 C8

L.S. 60
PLAN  20
BOND $H
HTAb
CONF
fmap 2
acta
SHEL 999 0.81
REM <olex2.extras>
REM <HklSrc "%.\\wangyj_0425.hkl">
REM </olex2.extras>

WGHT    0.000000
FVAR       3.45899
S1    4    0.178365    0.326954    0.238742    11.00000    0.07257    0.11806 =
         0.07566    0.00458    0.00513    0.02654
O1    3    0.596376    0.205639    0.235323    11.00000    0.09746    0.12251 =
         0.10589    0.03098   -0.00404    0.00931
O2    3    0.226202    0.561929    0.259159    11.00000    0.14347    0.07934 =
         0.13376   -0.02013   -0.01752    0.02292
O3    3   -0.000793    0.237322    0.251878    11.00000    0.04580    0.17399 =
         0.12142    0.03397    0.01308    0.02910
C1    1    0.646132    0.148234    0.456217    11.00000    0.08302    0.08266 =
         0.08837   -0.00059    0.00595    0.00152
AFIX  43
H1A   2    0.588134    0.280819    0.470921    11.00000   -1.20000
AFIX   0
C2    1    0.751890    0.030142    0.512198    11.00000    0.07493    0.07012 =
         0.07286   -0.00392    0.01562   -0.02649
AFIX  43
H2    2    0.771302    0.089590    0.565125    11.00000   -1.20000
AFIX   0
C3    1    0.833279   -0.174937    0.495241    11.00000    0.05824    0.11150 =
         0.06469    0.03804   -0.02386   -0.00429
AFIX  43
H3    2    0.900308   -0.256234    0.535934    11.00000   -1.20000
AFIX   0
C4    1    0.810062   -0.252100    0.415428    11.00000    0.07258    0.09403 =
         0.10512    0.03289   -0.00840   -0.00087
AFIX  43
H4    2    0.870673   -0.382699    0.400604    11.00000   -1.20000
AFIX   0
C5    1    0.697055   -0.138573    0.355705    11.00000    0.07799    0.07774 =
         0.07611    0.00169    0.00293    0.00475
AFIX  43
H5    2    0.670669   -0.200117    0.303519    11.00000   -1.20000
AFIX   0
C6    1    0.626780    0.067274    0.377304    11.00000    0.08484    0.08688 =
         0.07936    0.00880   -0.00021    0.00940
C7    1    0.514582    0.218586    0.313578    11.00000    0.10012    0.10011 =
         0.09989   -0.00525    0.01820   -0.00425
AFIX  13
H7    2    0.508947    0.375317    0.332936    11.00000   -1.20000
AFIX   0
C8    1    0.329181    0.122354    0.297900    11.00000    0.06992    0.09000 =
         0.07637   -0.00148    0.00101   -0.00652
AFIX  23
H8A   2    0.277808    0.087757    0.350039    11.00000   -1.20000
H8B   2    0.336404   -0.017213    0.266840    11.00000   -1.20000
AFIX   0
C9    1    0.215803    0.286095    0.133220    11.00000    0.05173    0.07165 =
         0.06996   -0.00681    0.01163    0.01128
C10   1    0.289985    0.447924    0.088203    11.00000    0.06975    0.05480 =
         0.06893   -0.01455   -0.00085   -0.02296
AFIX  43
H10   2    0.328473    0.582398    0.113534    11.00000   -1.20000
AFIX   0
C11   1    0.310006    0.418914    0.005993    11.00000    0.06657    0.04308 =
         0.12352    0.01226    0.02523   -0.00163
AFIX  43
H11   2    0.366961    0.531878   -0.022870    11.00000   -1.20000
AFIX   0
C12   1    0.249011    0.228821   -0.035579    11.00000    0.06326    0.08095 =
         0.07886   -0.00045    0.01602    0.02220
C13   1    0.175997    0.059341    0.011459    11.00000    0.06509    0.06266 =
         0.07810   -0.02057   -0.01687    0.00267
AFIX  43
H13   2    0.140370   -0.075291   -0.014548    11.00000   -1.20000
AFIX   0
C14   1    0.153909    0.080302    0.093780    11.00000    0.07459    0.06168 =
         0.08251    0.02070   -0.00183   -0.00036
AFIX  43
H14   2    0.100747   -0.034387    0.123284    11.00000   -1.20000
AFIX   0
C15   1    0.257112    0.193676   -0.127060    11.00000    0.12525    0.14517 =
         0.05327    0.00303   -0.00571    0.01165
AFIX 137
H15A  2    0.267981    0.035029   -0.138402    11.00000   -1.50000
H15B  2    0.361171    0.272202   -0.146018    11.00000   -1.50000
H15C  2    0.147357    0.251359   -0.155163    11.00000   -1.50000
AFIX   0
H1    2    0.751874    0.233085    0.242556    11.00000    0.03680
HKLF 4




REM  wangyj_0425 in P21 #4
REM R1 =  0.1057 for     609 Fo > 4sig(Fo)  and  0.3150 for all    2270 data
REM    177 parameters refined using     38 restraints

END

WGHT      0.0000      0.0000

REM Instructions for potential hydrogen bonds
EQIV $1 x, y-1, z
HTAB C8 O2_$1
EQIV $2 x+1, y, z
HTAB O1 O3_$2

REM Highest difference peak  0.287,  deepest hole -0.221,  1-sigma level  0.051
Q1    1   0.3607 -0.0706  0.2441  11.00000  0.05    0.29
Q2    1   0.8678  0.2950  0.5020  11.00000  0.05    0.19
Q3    1   0.6579  0.1349  0.3775  11.00000  0.05    0.18
Q4    1   0.0732  0.3410  0.0926  11.00000  0.05    0.17
Q5    1   0.9188 -0.0417  0.6197  11.00000  0.05    0.17
Q6    1   0.1876  0.1204 -0.2399  11.00000  0.05    0.17
Q7    1   0.3761  0.3058  0.2786  11.00000  0.05    0.17
Q8    1   0.4317  0.0517 -0.1282  11.00000  0.05    0.17
Q9    1   0.1316  0.3358 -0.2247  11.00000  0.05    0.16
Q10   1   0.2922 -0.0512 -0.0254  11.00000  0.05    0.16
Q11   1   0.3196  0.1887  0.3016  11.00000  0.05    0.15
Q12   1   0.8141  0.0920  0.6415  11.00000  0.05    0.15
Q13   1   0.7856  0.2009  0.1817  11.00000  0.05    0.14
Q14   1   0.5310  0.5343 -0.0185  11.00000  0.05    0.14
Q15   1   0.6602 -0.2861  0.4782  11.00000  0.05    0.14
Q16   1   0.2215  0.4831  0.2467  11.00000  0.05    0.14
Q17   1   0.6562 -0.2121  0.3516  11.00000  0.05    0.14
Q18   1   0.3167  0.3518  0.1017  11.00000  0.05    0.14
Q19   1   0.6579  0.5229  0.2868  11.00000  0.05    0.14
Q20   1   0.8218  0.0443  0.2415  11.00000  0.05    0.13
;
_shelx_res_checksum              85637
_shelx_hkl_file
;
   0  -6   8 264.722 391.459   3
   0  -6   9 667.761 411.117   3
   0  -6  10 152.073 220.168   3
   0  -6  11 61.3148 359.214   3
   0  -6  12 53.8712 144.917   3
   0  -6  13 394.870 390.612   3
   0  -5   1 345.117 177.034   3
   0  -5   2 55.0076 169.656   3
   0  -5   3 275.768 177.662   3
   0  -5   4 354.654 160.605   3
   0  -5   5 482.969 284.622   3
   0  -5   6 315.019 281.114   3
   0  -5   7 176.573 198.556   3
   0  -5   8-51.7126 271.006   3
   0  -5   9-109.777 246.521   3
   0  -5  10 238.890 241.903   3
   0  -5  11-34.7067 281.405   3
   0  -5  12 336.116 267.367   3
   0  -5  13 48.2020 111.029   3
   0  -5  14 471.748 402.504   3
   0  -5  15 377.574 374.615   3
   0  -4   0 1510.89 325.306   3
   0  -4   1 487.380 233.229   3
   0  -4  -1 313.803 160.145   3
   0  -4   2 346.685 219.158   3
   0  -4   3 122.128 76.3177   3
   0  -4   4 698.400 331.751   3
   0  -4   5 131.004 75.9540   3
   0  -4   6 263.979 189.874   3
   0  -4   7 265.055 250.574   3
   0  -4   8 886.453 424.451   3
   0  -4   9 235.099 160.475   3
   0  -4  10 420.185 240.956   3
   0  -4  11 146.850 146.723   3
   0  -4  12 519.402 367.849   3
   0  -4  13 117.945 215.449   3
   0  -4  14 252.873 284.383   3
   0  -4  15 52.7782 76.8074   3
   0  -4  16 592.233 456.382   3
   0  -4  17 337.553 362.239   3
   0  -3   0 138.982 121.227   3
   0  -3   1 1042.98 258.271   3
   0  -3  -1 972.663 221.509   3
   0  -3   2 1794.79 389.989   3
   0  -3   3 10413.5 996.283   3
   0  -3   4 626.666 289.644   3
   0  -3   5 80.4170 162.436   3
   0  -3   6 1264.29 445.669   3
   0  -3   7 1989.58 565.466   3
   0  -3   8 57.8626 190.065   3
   0  -3   9 1478.31 525.542   3
   0  -3  10 1065.55 429.804   3
   0  -3  11 684.306 360.818   3
   0  -3  12 253.085 214.884   3
   0  -3  13 325.357 215.971   3
   0  -3  14 566.472 443.851   3
   0  -3  15 28.6787 107.698   3
   0  -3  16 80.6031 167.399   3
   0  -3  17-48.9474 142.145   3
   0  -3  18 1362.42 707.622   3
   0  -2   0 9416.75 610.855   3
   0  -2  -1 1475.82 206.439   3
   0  -2   1 1426.79 247.425   3
   0  -2   2 9824.70 786.374   3
   0  -2   2 11515.5 701.606   2
   0  -2   3 2438.03 357.113   2
   0  -2   3 2183.89 399.751   3
   0  -2   4 1629.36 334.553   2
   0  -2   4 1145.06 319.697   3
   0  -2   5 464.787 173.714   3
   0  -2   6 1636.85 428.210   3
   0  -2   7 1148.99 391.734   3
   0  -2   8 1406.35 456.234   3
   0  -2   9 338.227 287.381   3
   0  -2  10 1557.75 536.398   3
   0  -2  11 2177.07 668.577   3
   0  -2  12 925.988 491.902   3
   0  -2  13 303.547 309.405   3
   0  -2  14 407.650 355.353   3
   0  -2  15 417.018 389.105   3
   0  -2  16-328.852 311.107   3
   0  -2  17 394.925 404.899   3
   0  -2  18-390.157 363.994   3
   0  -2  19 817.214 616.826   3
   0  -1   0 184.826 53.9349   3
   0  -1   1 35114.6 1150.00   1
   0  -1   1 34019.1 1017.47   3
   0  -1   2 7574.70 571.052   3
   0  -1   3 30653.8 1315.39   3
   0  -1   4 1061.39 246.807   2
   0  -1   4 891.776 267.999   3
   0  -1   5 15446.9 1128.21   3
   0  -1   6 1155.51 352.491   3
   0  -1   7 5235.63 761.578   3
   0  -1   8 2659.91 602.255   3
   0  -1   9 802.735 338.177   3
   0  -1  10 373.175 280.786   3
   0  -1  11 511.763 256.629   3
   0  -1  12 844.089 403.710   3
   0  -1  13 484.257 335.043   3
   0  -1  14 1664.09 670.081   3
   0  -1  15 438.138 240.329   3
   0  -1  16-120.971 185.143   3
   0  -1  17 133.857 200.310   3
   0  -1  18 699.984 466.570   3
   0  -1  19 489.737 353.319   3
   0  -1  20 325.291 346.171   3
   0   0   3 757.701 177.235   3
   0   0   4 32266.2 1297.06   3
   0   0   5 2768.52 433.672   3
   0   0   6 5374.26 672.880   3
   0   0   7 252.360 193.514   3
   0   0   8 28328.8 1759.30   3
   0   0   9 2134.50 538.654   3
   0   0  10 351.418 224.723   3
   0   0  11 1045.99 393.488   3
   0   0  12 668.040 385.152   3
   0   0  13 613.469 383.955   3
   0   0  14 384.236 270.629   3
   0   0  15 946.056 459.407   3
   0   0  16 412.928 359.640   3
   0   0  17 896.211 554.592   3
   0   0  18 543.583 428.726   3
   0   0  19 972.588 587.159   3
   0   0  20 2146.76 983.192   3
   0   0  21 780.091 532.147   3
   0   1  -1 34810.4 862.655   2
   0   1  -2 7546.87 461.627   2
   0   1  -3 29952.7 1107.62   2
   0   1  -4 557.005 168.471   2
   0   1   4 488.730 136.242   3
   0   1   5 14392.7 869.339   3
   0   1   6 1084.96 273.188   3
   0   1   7 5503.92 663.032   3
   0   1   8 2679.98 515.155   3
   0   1   9 1243.02 379.974   3
   0   1  10 185.664 183.283   3
   0   1  11 622.467 281.560   3
   0   1  12 864.495 378.241   3
   0   1  13 482.230 313.088   3
   0   1  14 1841.36 603.288   3
   0   1  15-44.0908 158.293   3
   0   1  16 79.3605 207.759   3
   0   1  17 93.4117 185.180   3
   0   1  18-208.736 337.309   3
   0   1  19 191.413 347.967   3
   0   1  20 219.681 263.011   3
   0   1  21 961.682 605.444   3
   0   2   0 10403.0 623.903   3
   0   2   0 8918.92 625.614   2
   0   2  -1 1636.15 257.809   2
   0   2  -1 1505.56 279.917   3
   0   2   1 1764.03 226.079   3
   0   2  -2 9590.29 632.303   2
   0   2   2 10517.6 507.034   3
   0   2  -3 2531.09 360.653   2
   0   2   3 1986.99 240.371   3
   0   2  -4 1531.60 314.443   2
   0   2  -5 247.675 163.283   2
   0   2   5 465.801 134.130   3
   0   2   6 1187.42 241.946   3
   0   2  -6 1140.64 319.246   2
   0   2   7 1563.29 317.360   3
   0   2   8 672.307 228.632   3
   0   2   9 394.112 182.276   3
   0   2  10 1696.91 429.216   3
   0   2  11 3551.84 661.374   3
   0   2  12 463.852 233.561   3
   0   2  13 52.9881 127.984   3
   0   2  14-307.737 229.404   3
   0   2  15-120.830 220.624   3
   0   2  16-193.977 201.615   3
   0   2  17 7.78549 213.989   3
   0   3   0 57.0502 48.8651   3
   0   3   0-12.7339 37.3352   2
   0   3  -1 624.896 253.034   1
   0   3   1 980.171 206.088   3
   0   3  -1 743.758 183.917   2
   0   3  -2 1573.95 301.275   2
   0   3   2 1823.28 252.415   3
   0   3  -2 1945.02 476.482   1
   0   3   3 8669.78 521.843   3
   0   3  -3 9250.61 767.471   2
   0   3   4 457.919 119.995   3
   0   3  -4 502.543 171.711   2
   0   3  -5 61.3239 101.863   2
   0   3   5-26.3282 30.3323   3
   0   3   6 826.301 194.203   3
   0   3  -6 679.901 239.637   2
   0   3  -7 1601.89 404.997   2
   0   3   7 1231.18 269.421   3
   0   3   8 76.7717 111.422   3
   0   3   9 1375.48 333.206   3
   0   3  10 509.492 226.043   3
   0   3  11 727.713 295.531   3
   0   3  12-8.22857 68.9314   3
   0   4   0 1130.41 409.288   1
   0   4   0 1610.94 371.510   2
   0   4  -1 431.886 185.846   2
   0   4  -1 78.5259 176.795   1
   0   4   1 389.030 158.823   2
   0   4   1 395.311 265.990   1
   0   4   2 239.436 160.801   1
   0   4   2 304.845 117.749   3
   0   4  -2 189.890 150.165   2
   0   4  -2 388.931 205.714   1
   0   4   3-14.6974 25.2924   3
   0   4  -3 270.321 151.121   2
   0   4   4 243.783 74.3037   3
   0   4  -4 519.583 193.590   2
   0   4  -5 170.871 113.693   2
   0   4  -6 49.7734 129.533   2
   0   4  -7 75.6694 131.912   2
   0   4  -8 575.575 325.056   2
   0   5   0 90.3858 38.0542   2
   0   5   0 129.978 171.175   1
   0   5  -1 218.971 146.320   2
   0   5   1 265.495 206.373   2
   0   5   1 654.461 350.313   1
   0   5  -1-45.0889 243.891   1
   0   5  -2 117.824 75.5645   2
   0   5   2 361.893 302.133   1
   0   5  -2 153.347 251.586   1
   0   5   2 152.016 180.787   2
   0   5   3 178.520 209.109   1
   0   5   3 472.030 270.408   2
   0   5   4 23.7637 195.528   1
   0   6   0-158.609 121.336   1
   0   6  -1-191.818 301.441   1
   0   6   1-170.157 181.363   1
   0   6   2-290.981 381.604   1
   0   6   3 200.529 302.075   1
   0   6   4 2303.34 712.442   1
   0   6   5 164.276 432.580   1
   0   6   6 103.713 190.976   1
   0   7   0 285.849 310.944   1
   0   7   1 14.8754 367.304   1
   0   7   2-901.146 555.189   1
   0   7   3-612.174 464.513   1
   0   7   4 1914.00 826.611   1
   0   7   5-76.6023 179.196   1
   0   7   6 777.683 542.285   1
  -1  -6  13 11010.9 2196.38   3
  -1  -6  12 724.979 533.254   3
  -1  -6  11 42.1887 135.052   3
  -1  -6  10-70.2920 160.799   3
  -1  -6   9 43.9807 81.1062   3
  -1  -6   8-91.6738 166.594   3
  -1  -6   7 388.019 329.568   3
  -1  -6   6 923.751 570.303   3
   1  -6  10 248.109 269.598   3
   1  -6  11-50.0373 216.205   3
   1  -6  12 487.500 401.390   3
   1  -6  13 1725.51 775.330   3
  -1  -5  15 2.77564 76.8505   3
  -1  -5  14 434.997 395.521   3
  -1  -5  13 399.714 366.374   3
  -1  -5  12-114.214 369.563   3
  -1  -5  11-307.070 304.762   3
  -1  -5  10 83.4504 160.728   3
  -1  -5   9-134.115 166.718   3
  -1  -5   8 343.165 293.487   3
  -1  -5   7 140.972 202.775   3
  -1  -5   6-16.2004 109.653   3
  -1  -5   5 124.591 91.9870   3
  -1  -5   4 112.034 129.852   3
  -1  -5   3 210.821 182.219   3
  -1  -5   2 1016.01 371.215   3
  -1  -5   1 773.163 362.362   3
  -1  -5   0 74.5358 72.5685   3
   1  -5   2 1483.50 414.168   3
   1  -5   3 261.476 164.486   3
   1  -5   4 99.3401 219.670   3
   1  -5   5 169.416 100.530   3
   1  -5   6 242.853 325.503   3
   1  -5   7 158.291 146.645   3
   1  -5   8 241.866 303.784   3
   1  -5   9-462.311 331.168   3
   1  -5  10 131.864 97.5310   3
   1  -5  11 566.839 376.072   3
   1  -5  12 91.0599 274.363   3
   1  -5  13 55.0361 253.540   3
   1  -5  14 24.4641 109.956   3
   1  -5  15-42.9236 140.473   3
  -1  -4  17 683.554 516.018   3
  -1  -4  16 341.867 373.261   3
  -1  -4  15 104.091 103.369   3
  -1  -4  14 1110.41 654.029   3
  -1  -4  13-333.598 313.347   3
  -1  -4  12-14.3044 121.728   3
  -1  -4  11 241.407 298.380   3
  -1  -4  10 600.522 433.773   3
  -1  -4   9 1003.77 479.356   3
  -1  -4   8 263.110 245.076   3
  -1  -4   7 275.790 251.247   3
  -1  -4   6 111.450 82.4883   3
  -1  -4   5 725.422 337.997   3
  -1  -4   4 149.180 93.6187   3
  -1  -4   3 885.275 364.464   3
  -1  -4   2 31.8472 62.0420   3
   1  -4  -1 2331.53 318.649   3
  -1  -4   1 1764.04 474.711   3
  -1  -4   0 508.992 243.746   3
   1  -4   0 1814.34 335.012   3
  -1  -4  -1 655.557 274.427   3
   1  -4   1 887.345 267.233   3
   1  -4   2 736.960 251.418   3
   1  -4   3 566.149 259.440   3
   1  -4   4 1598.04 464.207   3
   1  -4   5 1382.62 459.845   3
   1  -4   6 327.923 273.138   3
   1  -4   7 134.001 319.938   3
   1  -4   8 66.9153 81.4496   3
   1  -4   9 151.163 142.198   3
   1  -4  10 41.2080 257.079   3
   1  -4  11 31.1277 99.9875   3
   1  -4  12 108.704 251.815   3
   1  -4  13 122.933 130.269   3
   1  -4  14 134.445 226.229   3
   1  -4  15 280.040 425.952   3
   1  -4  16 177.214 143.328   3
   1  -4  17-634.296 493.207   3
  -1  -3  18 681.403 439.022   3
  -1  -3  17 28.8224 133.562   3
  -1  -3  16 251.174 326.102   3
  -1  -3  15 113.722 189.719   3
  -1  -3  14 154.589 183.758   3
  -1  -3  13 917.007 540.730   3
  -1  -3  12 567.817 393.099   3
  -1  -3  11 336.425 326.871   3
  -1  -3  10 600.397 338.630   3
  -1  -3   9 1444.12 567.369   3
  -1  -3   8 1377.20 515.761   3
  -1  -3   7 533.773 286.510   3
  -1  -3   6 361.896 252.001   3
  -1  -3   5 45.6531 53.9289   2
  -1  -3   5 126.440 111.622   3
  -1  -3   4 893.535 342.068   3
  -1  -3   4 852.228 185.983   2
  -1  -3   3 766.837 297.776   3
  -1  -3   2 1127.42 325.531   3
   1  -3  -1 4622.63 387.681   3
  -1  -3   1 5339.46 727.618   3
  -1  -3   0 1760.46 385.624   3
   1  -3   0 1926.79 305.635   3
   1  -3   1 1740.46 316.613   3
  -1  -3  -1 1255.02 308.487   3
   1  -3   2 1225.86 288.730   3
   1  -3   3 2510.25 473.730   3
   1  -3   4 863.174 327.118   3
   1  -3   5 1542.28 440.675   3
   1  -3   6 64.0403 47.3448   3
   1  -3   7 540.781 278.664   3
   1  -3   8 235.550 135.097   3
   1  -3   9 1210.46 512.263   3
   1  -3  10 950.581 461.449   3
   1  -3  11 1085.79 471.887   3
   1  -3  12 539.030 353.960   3
   1  -3  13 320.823 256.197   3
   1  -3  14-75.1472 152.866   3
   1  -3  15-70.4526 152.525   3
   1  -3  16 107.307 224.639   3
   1  -3  17-203.958 269.448   3
   1  -3  18-795.932 542.975   3
  -1  -2  19-18.8311 264.536   3
  -1  -2  18 100.472 353.627   3
  -1  -2  17 296.898 442.826   3
  -1  -2  16-254.523 402.851   3
  -1  -2  15 531.702 486.715   3
  -1  -2  14 233.705 244.020   3
  -1  -2  13 279.521 285.969   3
  -1  -2  12 1243.94 533.990   3
  -1  -2  11 881.033 459.347   3
  -1  -2  10 272.253 262.004   3
  -1  -2   9 498.454 280.989   3
  -1  -2   8 667.678 318.419   3
  -1  -2   7 1583.14 477.644   3
  -1  -2   6 321.873 179.957   3
  -1  -2   5 2289.89 357.461   2
  -1  -2   5 2530.67 537.011   3
  -1  -2   4 922.160 188.877   2
  -1  -2   4 883.857 303.642   3
  -1  -2   3 4890.15 355.647   2
  -1  -2   3 4957.78 677.647   3
  -1  -2   2 384.420 203.640   3
   1  -2  -1 3710.44 272.470   3
  -1  -2   1 3291.28 485.564   3
  -1  -2   0 1807.25 339.636   3
   1  -2   0 1681.94 237.031   3
   1  -2   1 6645.71 565.995   3
  -1  -2  -1 5839.20 620.793   3
   1  -2   2 5099.12 568.194   3
   1  -2   3 1545.42 310.405   1
   1  -2   3 1496.27 348.088   3
   1  -2   4 6457.57 760.237   3
   1  -2   5 6408.69 824.879   3
   1  -2   6 1910.59 471.953   3
   1  -2   7 667.027 325.881   3
   1  -2   8 1753.54 507.779   3
   1  -2   9 541.970 294.706   3
   1  -2  10 978.619 440.832   3
   1  -2  11 161.664 193.686   3
   1  -2  12 347.954 308.273   3
   1  -2  13 322.087 339.442   3
   1  -2  14-161.245 62.3806   3
   1  -2  15-242.561 329.648   3
   1  -2  16 25.9898 242.101   3
   1  -2  17-33.2024 229.550   3
   1  -2  18 138.200 149.089   3
   1  -2  19-76.8021 178.531   3
  -1  -1  20 2021.09 903.439   3
  -1  -1  19 984.045 573.729   3
  -1  -1  18 789.323 495.607   3
  -1  -1  17 405.861 357.536   3
  -1  -1  16-26.1190 199.477   3
  -1  -1  15-225.440 238.773   3
  -1  -1  14 239.676 270.216   3
  -1  -1  13 661.831 351.093   3
  -1  -1  12 483.117 373.856   3
  -1  -1  11 11.2729 120.634   3
  -1  -1  10 179.520 137.732   3
  -1  -1   9 811.164 402.545   3
  -1  -1   8 5666.97 859.249   3
  -1  -1   7 7173.77 933.402   3
   1  -1  -6 1203.62 275.379   3
  -1  -1   6 1699.48 451.633   3
  -1  -1   5 872.407 303.605   3
   1  -1  -5 902.132 215.668   3
  -1  -1   4 7077.08 773.528   3
   1  -1  -4 7254.23 530.486   3
  -1  -1   3 2518.33 432.558   3
   1  -1  -3 2490.31 262.934   3
  -1  -1   2 4702.11 552.472   3
   1  -1  -2 5188.05 328.643   3
  -1  -1   1 25936.0 1174.17   1
  -1  -1   1 23424.4 1134.99   3
  -1  -1   0 77732.1 1972.56   3
  -1  -1   0 79872.4 2010.89   1
   1  -1   2 12353.5 797.986   3
   1  -1   2 12393.6 567.290   1
   1  -1   3 5864.24 611.708   3
   1  -1   4 3129.39 520.457   3
   1  -1   5 242.354 148.199   3
   1  -1   6 430.289 207.596   3
   1  -1   7 4193.43 717.734   3
   1  -1   8 5343.61 852.364   3
   1  -1   9 2207.62 576.613   3
   1  -1  10 429.478 275.351   3
   1  -1  11 3181.98 767.368   3
   1  -1  12 141.542 92.4933   3
   1  -1  13-162.835 263.684   3
   1  -1  14-348.302 284.766   3
   1  -1  15 178.736 254.424   3
   1  -1  16 230.058 292.312   3
   1  -1  17 235.856 350.420   3
   1  -1  18 133.903 210.688   3
   1  -1  19-16.2534 302.034   3
   1  -1  20 13.5886 71.7220   3
  -1   0  21-348.756 359.043   3
  -1   0  20-142.062 225.653   3
  -1   0  19 28.9374 110.991   3
  -1   0  18 136.913 255.540   3
  -1   0  17 127.689 84.7101   3
  -1   0  16 178.547 227.418   3
  -1   0  15-255.259 242.375   3
  -1   0  14 290.682 305.822   3
  -1   0  13 233.916 159.134   3
  -1   0  12 623.370 349.283   3
  -1   0  11 595.053 340.212   3
  -1   0  10 524.860 264.683   3
  -1   0   9 42.2071 83.7626   3
  -1   0   8 300.750 154.612   3
  -1   0   7 5850.10 751.456   3
  -1   0   6 12936.3 1041.21   3
  -1   0   5 10509.3 872.583   3
  -1   0   4 14603.5 933.123   3
  -1   0   3 44428.2 1470.03   3
  -1   0   2 14341.1 759.411   3
  -1   0  -2 13432.9 742.373   2
  -1   0  -3 3726.98 453.848   2
  -1   0  -4 20.8718 83.7066   2
  -1   0  -5 5468.39 676.172   2
   1   0   5 5710.29 692.077   3
   1   0   6-91.8299 77.0156   3
   1   0   7 4592.75 707.956   3
   1   0   8 6153.47 866.749   3
   1   0   9 87.3135 134.626   3
   1   0  10-32.4120 157.861   3
   1   0  11 110.922 56.4288   3
   1   0  12 1245.59 500.390   3
   1   0  13 1287.54 555.100   3
   1   0  14 513.759 337.622   3
   1   0  15-73.8233 197.009   3
   1   0  16-161.467 339.826   3
   1   0  17-55.5222 81.2437   3
   1   0  18 188.345 197.842   3
   1   0  19 82.5544 242.181   3
   1   0  20 1486.19 945.078   3
  -1   1  21-284.462 252.587   3
  -1   1  20 440.255 371.013   3
  -1   1  19 731.646 506.750   3
  -1   1  18-756.312 445.755   3
  -1   1  17-132.140 212.316   3
  -1   1  16-479.617 327.847   3
  -1   1  15 153.436 223.224   3
  -1   1  14-61.9674 42.5137   3
  -1   1  13 169.678 210.212   3
  -1   1  12 750.707 335.478   3
  -1   1  11 249.202 151.205   3
  -1   1  10 185.142 125.761   3
  -1   1   9 370.981 209.579   3
  -1   1   8 6055.34 751.112   3
  -1   1   7 6762.66 716.975   3
  -1   1   6 1518.17 315.589   3
  -1   1   5 1149.41 245.659   3
  -1   1   4 7407.34 533.374   3
  -1   1   3 2418.03 260.862   3
  -1   1   2 5575.80 338.716   3
  -1   1   0 78133.2 1985.95   2
   1   1   1 7911.74 424.671   2
  -1   1  -1 7058.94 433.841   1
  -1   1  -1 7671.20 633.929   2
   1   1   2 12389.2 679.121   2
  -1   1  -2 11522.4 797.706   2
   1   1   3 5725.02 543.207   2
  -1   1  -3 5775.00 598.686   2
  -1   1  -4 3272.89 493.959   2
  -1   1  -5-37.2656 57.4223   2
  -1   1  -6 506.611 209.798   2
  -1   1  -7 4296.20 683.083   2
   1   1   7 4437.97 655.718   3
  -1   1  -8 4457.65 748.154   2
   1   1   8 4198.32 676.089   3
   1   1   9 2543.39 566.891   3
   1   1  10 615.902 297.310   3
   1   1  11 2403.19 591.958   3
   1   1  12 348.703 272.416   3
   1   1  13 50.4816 179.310   3
   1   1  14 336.927 295.109   3
   1   1  15 564.378 369.974   3
   1   1  16 581.937 346.582   3
   1   1  17 488.770 353.593   3
   1   1  18-133.444 332.724   3
   1   1  19 357.535 330.261   3
   1   1  20 56.0115 150.327   3
   1   1  21 352.148 416.147   3
  -1   2  16 308.757 263.323   3
  -1   2  15 575.408 240.526   3
  -1   2  14 536.448 302.697   3
  -1   2  13 955.740 423.793   3
  -1   2  12 900.578 338.236   3
  -1   2  11 546.180 255.684   3
  -1   2  10 342.001 221.083   3
  -1   2   9 625.791 255.117   3
  -1   2   8 508.277 205.661   3
  -1   2   7 2197.78 347.790   3
  -1   2   6 146.980 62.1305   3
  -1   2   5 2096.96 249.268   3
  -1   2   1 3176.56 513.008   2
  -1   2   0 1703.29 333.465   2
   1   2   0 2280.10 396.471   3
  -1   2  -1 5717.29 632.546   2
   1   2   1 7563.47 684.119   3
  -1   2  -1 6086.16 631.090   1
  -1   2  -2 4964.96 596.314   2
   1   2   2 5634.52 596.503   3
  -1   2  -2 5139.77 581.160   1
  -1   2  -3 1241.71 303.592   2
  -1   2  -4 6503.89 727.398   2
  -1   2  -5 6540.71 769.208   2
  -1   2  -6 1686.47 403.703   2
  -1   2  -7 609.546 284.103   2
   1   2   8 1039.05 326.162   3
  -1   2  -8 786.234 303.384   2
   1   2   9 606.724 267.486   3
  -1   2  -9 699.620 280.147   2
   1   2  10 917.578 355.756   3
   1   2  11 16.9917 84.1306   3
   1   2  12 222.049 242.555   3
   1   2  13 140.447 77.1698   3
   1   2  14 1082.16 484.355   3
   1   2  15 258.791 232.102   3
   1   2  16-54.0613 118.577   3
   1   2  17 336.207 398.264   3
   1   2  18 888.717 477.213   3
  -1   3  11 324.735 182.330   3
  -1   3  10 1436.85 340.249   3
  -1   3   9 1366.56 296.535   3
  -1   3   8 530.234 174.185   3
  -1   3   7 265.859 100.860   3
   1   3  -3 854.095 160.781   2
   1   3  -2 1020.67 154.065   2
  -1   3   1 4727.73 706.405   2
   1   3  -1 4552.35 330.291   2
  -1   3   0 1887.46 391.733   2
  -1   3   0 1771.10 427.342   1
   1   3   0 1364.72 212.056   2
  -1   3  -1 1498.84 377.652   2
  -1   3  -1 1291.40 365.735   1
  -1   3  -2 1724.90 431.939   1
  -1   3  -2 1145.14 294.742   2
  -1   3  -3 2390.11 475.573   2
  -1   3  -4 644.384 246.694   2
  -1   3  -5 1783.92 452.548   2
  -1   3  -6 288.656 170.555   2
  -1   3  -7 394.118 221.303   2
  -1   3  -8-16.7382 100.205   2
   1   3   9 748.447 273.864   3
  -1   3  -9 798.953 357.322   2
  -1   3 -10 827.726 347.853   2
   1   3  10 1446.88 387.551   3
   1   3  11 372.094 159.823   3
   1   3  12 76.3112 108.287   3
   1   3  13 449.157 277.544   3
   1   4  -3 483.661 145.736   2
  -1   4   2 89.2975 104.770   2
   1   4  -2 120.942 47.0821   2
   1   4  -2-8.93517 154.955   1
   1   4  -1 2143.75 287.378   2
  -1   4   1 2381.80 546.582   2
  -1   4   1 1448.87 499.261   1
   1   4  -1 2345.48 648.327   1
  -1   4   0 823.153 299.072   1
  -1   4   0 1084.91 359.295   2
   1   4   0 961.086 230.880   2
   1   4   0 925.197 406.824   1
  -1   4  -1 721.404 273.989   2
   1   4   1 541.657 187.597   2
   1   4   1 1245.12 472.468   1
  -1   4  -1 323.327 231.708   1
  -1   4  -2 734.628 262.153   2
  -1   4  -2 369.201 236.645   1
   1   4   2 402.519 297.351   1
  -1   4  -3 821.007 285.017   2
   1   4   3 524.780 346.475   1
  -1   4  -4 668.057 287.258   2
  -1   4  -5 1087.82 399.683   2
  -1   4  -6-15.5249 83.3213   2
  -1   4  -7 243.575 151.058   2
  -1   4  -8 911.416 335.592   2
  -1   4  -9 286.085 236.332   2
  -1   4 -10 86.7042 236.077   2
  -1   5   4 95.9848 133.825   2
  -1   5   3 256.210 79.2866   2
  -1   5   2 1015.72 370.947   2
  -1   5   2 755.842 545.662   1
  -1   5   1 655.753 354.516   1
  -1   5   1 954.298 381.505   2
   1   5  -1 895.275 438.917   1
  -1   5   0 213.476 123.480   2
   1   5   0 78.0037 103.183   1
  -1   5   0-170.939 185.664   1
   1   5   1 465.383 410.853   1
  -1   5  -1 545.942 230.088   2
  -1   5  -1 323.733 264.544   1
   1   5   2 801.708 417.328   1
  -1   5  -2 1075.88 330.229   2
  -1   5  -2 1469.65 492.116   1
  -1   5  -3 196.878 198.885   2
   1   5   3 540.961 390.669   1
  -1   5  -4 200.307 184.057   2
   1   5   4 111.056 312.052   1
   1   5   5-124.976 266.945   1
  -1   5  -5 667.997 278.080   2
  -1   5  -6 303.858 210.756   2
  -1   5  -7 201.605 158.904   2
  -1   5  -8 253.468 264.773   2
  -1   5  -9 95.8070 49.9357   2
  -1   6   6 23.4087 284.121   2
  -1   6   5 45.0992 66.4335   1
  -1   6   4 166.941 294.509   1
  -1   6   3 1043.98 580.048   1
  -1   6   2-91.0166 166.175   1
   1   6  -1-58.3962 215.905   1
  -1   6   1 540.401 392.875   1
   1   6   0 12.5039 197.930   1
  -1   6   0-85.1791 361.879   1
   1   6   1-214.551 412.279   1
  -1   6  -1 2.77578 240.487   1
   1   6   2 388.795 433.864   1
  -1   6  -2 595.787 334.461   1
   1   6   3-110.342 462.696   1
   1   6   4 21.8644 198.740   1
   1   6   5 264.062 290.496   1
   1   6   6 166.371 238.075   1
   1   6   7-64.3566 183.135   1
   1   6   8 199.040 223.767   1
  -1   7   6 476.642 422.283   1
  -1   7   5-225.820 290.140   1
  -1   7   4 31.4394 120.570   1
  -1   7   3 41.9380 243.884   1
  -1   7   2-77.6166 268.877   1
  -1   7   1-725.816 486.127   1
   1   7   0 376.137 537.375   1
  -1   7   0 22.7809 105.637   1
   1   7   1 623.852 353.594   1
  -1   7  -1 349.050 332.940   1
   1   7   2 26.9446 122.230   1
   1   7   3-535.362 443.005   1
   1   7   4 202.909 267.204   1
   1   7   5-667.244 505.061   1
  -2  -6  13 14.6186 105.299   3
  -2  -6  12 438.592 409.938   3
  -2  -6  11-41.5651 140.690   3
  -2  -6  10 558.578 458.728   3
  -2  -6   9 153.759 205.657   3
  -2  -6   8 198.965 365.267   3
  -2  -6   7 671.138 418.063   3
  -2  -6   6 115.277 181.518   3
  -2  -6   5 308.153 330.458   3
   2  -6  12-81.3576 176.398   3
  -2  -5  15 511.584 453.766   3
  -2  -5  14-97.5921 201.341   3
  -2  -5  13-413.832 383.745   3
  -2  -5  12-580.393 443.764   3
  -2  -5  11 58.2432 74.8973   3
  -2  -5  10-173.291 445.857   3
  -2  -5   9 171.761 281.157   3
  -2  -5   8 224.905 306.002   3
  -2  -5   7-99.6062 79.6441   3
  -2  -5   6-223.306 295.829   3
  -2  -5   5 325.111 270.724   3
  -2  -5   4-86.8810 139.591   3
  -2  -5   3 719.583 372.761   3
  -2  -5   2 652.903 419.371   3
  -2  -5   1 439.340 284.655   3
   2  -5   4 168.471 165.046   3
   2  -5   5 84.0039 125.889   3
   2  -5   6-371.808 261.588   3
   2  -5   7 38.2828 98.7656   3
   2  -5   8 43.0750 119.454   3
   2  -5   9 222.922 151.943   3
   2  -5  10 31.3136 269.654   3
   2  -5  11-148.531 208.525   3
   2  -5  12-8.26896 286.693   3
   2  -5  13 4.73438 228.446   3
   2  -5  14-649.048 474.460   3
   2  -5  15-573.073 460.605   3
  -2  -4  16 1067.24 637.241   3
  -2  -4  15-98.3619 196.361   3
  -2  -4  14 600.014 450.316   3
  -2  -4  13 237.901 238.356   3
  -2  -4  12 98.3259 293.082   3
  -2  -4  11-355.697 378.505   3
  -2  -4  10-47.0154 204.113   3
  -2  -4   9 479.849 386.738   3
  -2  -4   8 697.003 391.297   3
  -2  -4   7 1097.28 533.544   3
  -2  -4   6 319.315 283.109   3
  -2  -4   5 201.415 298.558   3
  -2  -4   4 110.832 213.483   3
  -2  -4   3 104.419 197.942   3
  -2  -4   2 1441.63 464.336   3
  -2  -4   1 1543.87 479.446   3
   2  -4  -1 1707.89 286.903   3
   2  -4   0 719.086 193.951   3
  -2  -4   0 774.838 339.150   3
   2  -4   1 309.343 147.780   3
   2  -4   2 1318.97 349.974   3
   2  -4   3 632.568 271.607   3
   2  -4   4 801.966 314.366   3
   2  -4   5-34.0771 135.642   3
   2  -4   6-10.8725 90.7282   3
   2  -4   7 589.127 373.334   3
   2  -4   8 74.6515 188.222   3
   2  -4   9 45.7874 101.102   3
   2  -4  10 379.625 411.735   3
   2  -4  11 96.6409 162.757   3
   2  -4  12 132.622 321.111   3
   2  -4  13 57.2199 105.268   3
   2  -4  14-124.078 86.9825   3
   2  -4  15 763.558 510.911   3
   2  -4  16-112.286 210.408   3
  -2  -3  18 958.401 728.264   3
  -2  -3  17-512.955 432.412   3
  -2  -3  16-178.409 219.706   3
  -2  -3  15 11.0845 267.987   3
  -2  -3  14 192.909 229.374   3
  -2  -3  13 384.872 385.839   3
  -2  -3  12 239.733 357.100   3
  -2  -3  11 405.703 341.503   3
  -2  -3  10 1830.90 664.859   3
  -2  -3   9 459.924 319.298   3
  -2  -3   8 70.3821 246.375   3
  -2  -3   7 816.186 384.785   3
  -2  -3   6-32.8717 192.122   3
  -2  -3   6 152.623 78.8389   2
  -2  -3   5 171.180 62.6044   2
  -2  -3   5 606.623 298.568   3
  -2  -3   4 284.604 220.904   3
  -2  -3   3 2023.74 537.080   3
  -2  -3   2 1068.01 395.555   3
   2  -3  -2 888.555 160.772   3
  -2  -3   1 1160.15 361.956   3
   2  -3  -1 1421.39 250.032   3
   2  -3   0 1146.68 246.924   3
  -2  -3   0 1164.01 359.466   3
   2  -3   1 227.215 93.8844   3
   2  -3   2 1379.37 332.151   3
   2  -3   3 610.857 239.436   3
   2  -3   4 2286.25 512.709   3
   2  -3   5 562.826 257.018   3
   2  -3   6 146.577 140.795   3
   2  -3   7 107.185 157.924   3
   2  -3   8 325.454 276.609   3
   2  -3   9 504.367 319.247   3
   2  -3  10 822.967 411.797   3
   2  -3  11-15.3860 118.376   3
   2  -3  12 516.881 423.014   3
   2  -3  13 598.511 459.812   3
   2  -3  14 171.804 76.8727   3
   2  -3  15-88.0851 171.233   3
   2  -3  16 274.988 338.725   3
   2  -3  17 511.255 427.243   3
  -2  -2  19 108.970 178.827   3
  -2  -2  18 288.397 321.862   3
  -2  -2  17-110.447 197.371   3
  -2  -2  16 371.343 294.393   3
  -2  -2  15 53.2484 134.014   3
  -2  -2  14 591.249 421.299   3
  -2  -2  13-62.8126 101.977   3
  -2  -2  12 688.091 295.910   3
  -2  -2  11 267.006 240.770   3
  -2  -2  10 1230.90 469.980   3
  -2  -2   9 54.1825 108.547   3
  -2  -2   8 627.469 332.853   3
  -2  -2   7 507.186 280.161   3
   2  -2  -7 830.802 233.829   3
   2  -2  -6 48.0432 72.6075   3
  -2  -2   6 64.1036 162.536   3
   2  -2  -5 771.990 177.727   3
  -2  -2   5 1011.80 388.954   3
  -2  -2   4 2531.49 580.441   3
   2  -2  -4 2153.53 282.145   3
   2  -2  -3 3761.52 385.972   3
  -2  -2   3 3932.01 680.783   3
   2  -2  -2 186.732 74.6782   3
  -2  -2   2 13.2287 91.4385   3
  -2  -2   1 764.641 294.363   3
  -2  -2   0 858.398 294.331   3
   2  -2   2 3396.36 514.555   3
   2  -2   3 8589.40 884.785   3
   2  -2   4 3977.71 650.638   3
   2  -2   5 2821.49 575.476   3
   2  -2   5 2892.98 412.090   1
   2  -2   6 3.30027 93.6063   3
   2  -2   6 53.9014 98.3928   1
   2  -2   7 1256.17 417.393   3
   2  -2   8 1686.31 535.388   3
   2  -2   9 691.496 386.098   3
   2  -2  10 27.5022 122.731   3
   2  -2  11 1832.98 631.778   3
   2  -2  12 942.602 494.812   3
   2  -2  13-85.7765 149.603   3
   2  -2  14 305.010 298.944   3
   2  -2  15 144.072 102.431   3
   2  -2  16-32.5644 207.085   3
   2  -2  17 291.709 312.491   3
   2  -2  18-424.902 389.887   3
  -2  -1  20-566.374 459.657   3
  -2  -1  19 258.663 250.948   3
  -2  -1  18-836.187 519.800   3
  -2  -1  17 160.999 192.844   3
  -2  -1  16 60.9439 109.995   3
  -2  -1  15 83.1327 87.8967   3
  -2  -1  14 4.32167 103.242   3
  -2  -1  13-136.861 313.477   3
  -2  -1  12 16.1711 128.497   3
  -2  -1  11 1512.36 536.957   3
  -2  -1  10 889.487 426.799   3
  -2  -1   9 108.468 177.272   3
  -2  -1   8 296.709 209.743   3
  -2  -1   7 2131.77 528.849   3
  -2  -1   6 3471.07 649.757   3
  -2  -1   5 443.170 247.687   3
  -2  -1   4 2682.84 536.721   3
   2  -1  -4 2494.13 391.968   3
  -2  -1   3 9662.12 992.322   3
   2  -1  -3 10526.0 786.976   3
   2  -1  -2 3210.35 422.420   3
  -2  -1   2 3135.36 551.892   3
  -2  -1   1 8756.37 555.094   2
  -2  -1   1 8756.56 872.283   3
  -2  -1   0 25096.1 958.510   2
  -2  -1  -1 12593.5 726.390   2
  -2  -1  -2 22195.7 1076.57   2
  -2  -1  -3 3679.94 492.399   2
  -2  -1  -4 10267.8 881.780   2
  -2  -1  -5 7294.70 810.865   2
   2  -1   6 2754.86 573.220   3
   2  -1   7 1780.64 500.647   3
   2  -1   8 3739.82 757.960   3
   2  -1   9 2416.23 625.679   3
   2  -1  10 830.456 405.557   3
   2  -1  11 1218.44 516.465   3
   2  -1  12 597.338 373.490   3
   2  -1  13 688.714 444.751   3
   2  -1  14 917.368 543.929   3
   2  -1  15-70.8799 105.976   3
   2  -1  16 409.677 258.601   3
   2  -1  17-607.602 432.246   3
   2  -1  18 4374.05 1193.11   3
   2  -1  19-377.165 367.385   3
  -2   0  21 253.979 381.844   3
  -2   0  20-282.516 315.022   3
  -2   0  19 1168.63 695.854   3
  -2   0  18 331.522 324.119   3
  -2   0  17 6.41738 287.085   3
  -2   0  16 63.9483 174.218   3
  -2   0  15 389.075 260.582   3
  -2   0  14-52.7548 113.039   3
  -2   0  13 317.415 275.086   3
  -2   0  12 213.086 160.709   3
  -2   0  11-123.257 176.413   3
  -2   0  10 395.238 267.464   3
  -2   0   9 2395.29 572.065   3
  -2   0   8 15596.2 1388.75   3
  -2   0   7 2574.25 559.939   3
  -2   0   6 718.013 267.624   3
  -2   0   5 3998.04 623.426   3
  -2   0   4 3023.48 514.536   3
  -2   0   3 188.708 193.294   3
  -2   0   2 5581.30 654.161   3
  -2   0   1 5841.88 584.271   2
  -2   0   0 84990.0 2221.62   2
  -2   0  -1 35935.4 1009.52   1
  -2   0  -1 37845.8 1514.46   2
   2   0   2 9709.41 509.977   1
  -2   0  -2 10332.4 837.665   2
  -2   0  -3 3298.01 522.773   2
  -2   0  -4-2.79111 59.4050   2
  -2   0  -5 1250.17 366.602   2
  -2   0  -6 694.472 281.338   2
  -2   0  -7 1722.75 484.682   2
  -2   0  -8 327.807 157.375   2
   2   0   8 201.044 128.250   3
   2   0   9 6837.17 1029.16   3
   2   0  10 620.204 352.172   3
   2   0  11 438.524 207.862   3
   2   0  12 19.3314 123.843   3
   2   0  13 50.9435 162.704   3
   2   0  14 930.639 511.527   3
   2   0  15 822.791 521.362   3
   2   0  16-18.7247 71.4222   3
   2   0  17 179.333 256.874   3
   2   0  18-300.334 307.604   3
   2   0  19-273.537 305.932   3
   2   0  20-22.3056 427.663   3
  -2   1  20-110.912 198.156   3
  -2   1  19 530.694 393.393   3
  -2   1  18 2.95817 308.660   3
  -2   1  17-74.2710 271.790   3
  -2   1  16 66.2034 162.834   3
  -2   1  15 280.021 267.945   3
  -2   1  14-56.5773 76.2024   3
  -2   1  13 145.368 190.991   3
  -2   1  12 79.3242 109.929   3
  -2   1  11 1980.82 535.766   3
  -2   1  10 614.526 277.244   3
  -2   1   9 291.055 163.070   3
  -2   1   8 1102.60 326.436   3
  -2   1   7 2931.52 518.398   3
  -2   1   6 4761.59 631.815   3
  -2   1   5 342.495 160.683   3
  -2   1   4 3178.21 449.523   3
  -2   1   3 11494.2 828.692   3
  -2   1   1 7946.08 813.362   2
   2   1   0 24587.7 1005.31   2
  -2   1   0 23100.9 1356.17   2
   2   1   1 11717.9 888.714   1
  -2   1  -1 12582.5 1011.76   2
   2   1   1 12489.7 765.912   2
   2   1   2 21772.8 1212.62   1
   2   1   2 22763.8 1140.50   2
  -2   1  -2 20676.4 1312.81   2
  -2   1  -3 4213.54 611.717   2
  -2   1  -4 10311.4 986.706   2
  -2   1  -5 7570.02 880.651   2
  -2   1  -6 2650.73 560.816   2
  -2   1  -7 1489.41 460.243   2
  -2   1  -8 2993.57 643.852   2
  -2   1  -9 1992.99 563.245   2
   2   1  10 878.094 396.348   3
  -2   1 -10 385.396 233.487   2
   2   1  11 1064.41 415.732   3
   2   1  12 679.407 390.896   3
   2   1  13 774.589 422.283   3
   2   1  14 374.564 274.998   3
   2   1  15 13.3940 92.3783   3
   2   1  16-70.8924 269.418   3
   2   1  17 36.2095 131.531   3
   2   1  18 117.812 278.270   3
   2   1  19 290.133 203.509   3
   2   1  20 218.269 277.186   3
  -2   2  15 219.876 193.102   3
  -2   2  14 37.8160 150.154   3
  -2   2  13 274.090 145.703   3
  -2   2  12 622.766 255.430   3
  -2   2  11-106.757 84.8740   3
  -2   2  10 1157.20 337.008   3
  -2   2   9 601.999 223.184   3
  -2   2   8 1408.82 363.705   3
  -2   2   7 833.899 258.763   3
  -2   2   6 252.054 115.538   3
  -2   2   5 755.142 178.119   3
  -2   2   2 304.682 218.092   2
  -2   2   1 853.981 232.860   2
  -2   2   0 1556.08 424.555   2
   2   2   0 654.066 123.707   2
   2   2   1 2686.72 306.962   2
  -2   2  -1 2809.56 530.944   2
  -2   2  -2 2903.44 388.753   1
   2   2   2 2824.78 363.316   2
  -2   2  -2 3012.08 540.727   2
  -2   2  -3 8599.32 944.777   2
   2   2   3 7684.39 946.021   1
  -2   2  -4 4422.04 706.531   2
  -2   2  -5 2270.40 504.540   2
  -2   2  -6 105.383 114.872   2
  -2   2  -7 1016.04 370.335   2
  -2   2  -8 995.975 413.329   2
  -2   2  -9 872.705 394.127   2
  -2   2 -10 168.128 122.878   2
   2   2  11 1586.48 512.474   3
  -2   2 -11 2050.71 634.622   2
   2   2  12 1264.38 482.851   3
   2   2  13-68.1498 237.262   3
   2   2  14 145.750 198.219   3
   2   2  15-52.1904 159.120   3
   2   2  16-166.200 331.823   3
   2   2  17 479.845 317.390   3
   2   2  18 876.978 495.624   3
   2   2  19 487.461 489.262   3
  -2   3   9 268.101 129.313   3
  -2   3   8 318.514 161.755   3
  -2   3   2 1418.00 437.284   2
  -2   3   1 1028.26 318.035   2
  -2   3   0 588.222 224.063   2
   2   3   1 112.777 56.5137   2
  -2   3  -1 198.977 46.9931   2
  -2   3  -1 294.509 205.494   1
  -2   3  -2 1547.71 414.490   2
   2   3   2 1174.16 228.087   2
  -2   3  -2 1923.87 419.226   1
  -2   3  -3 585.836 237.494   2
  -2   3  -4 3040.87 638.552   2
   2   3   4 2404.70 640.380   1
  -2   3  -5 522.962 310.296   2
  -2   3  -6 363.690 271.536   2
  -2   3  -7 420.292 281.308   2
  -2   3  -8 190.210 202.216   2
  -2   3  -9 394.589 270.289   2
  -2   3 -10 393.000 268.916   2
   2   3  11 269.860 205.854   3
  -2   3 -11 451.250 283.360   2
   2   3  12 234.118 228.182   3
  -2   3 -12 544.637 338.546   2
   2   3  13-15.7394 94.5217   3
   2   3  14 303.040 226.549   3
  -2   4   3 86.4224 189.586   2
  -2   4   2 1519.57 474.970   2
  -2   4   1 1690.56 467.543   2
   2   4  -1 1574.79 553.396   1
   2   4   0 678.673 322.005   1
  -2   4   0 1148.40 420.122   2
  -2   4   0 473.943 294.999   1
   2   4   1 29.3221 50.0402   2
  -2   4  -1 198.924 178.890   1
   2   4   1 186.156 190.942   1
  -2   4  -1 173.772 169.535   2
  -2   4  -2 1283.86 407.910   1
  -2   4  -2 1205.81 387.273   2
   2   4   2 1344.61 516.310   1
   2   4   3 560.727 344.011   1
  -2   4  -3 877.894 392.641   2
  -2   4  -3 827.377 359.865   1
   2   4   4 426.770 342.484   1
  -2   4  -4 694.641 324.534   2
  -2   4  -5 187.858 135.267   2
   2   4   5 774.557 405.075   1
  -2   4  -6 83.6582 197.613   2
  -2   4  -7 316.079 226.012   2
  -2   4  -8 123.245 179.406   2
  -2   4  -9 242.261 175.029   2
  -2   4 -10-183.362 170.516   2
  -2   4 -11-76.9371 265.150   2
  -2   4 -12 140.568 204.046   2
  -2   5   5 194.042 323.405   2
  -2   5   4 454.351 305.328   2
  -2   5   3 264.272 149.623   2
  -2   5   2 429.755 350.300   2
  -2   5   2 44.5577 147.346   1
  -2   5   1 465.627 358.798   1
  -2   5   1 526.364 345.145   2
   2   5   0 263.733 220.420   1
  -2   5   0 119.887 312.336   1
  -2   5   0 384.343 224.705   2
   2   5   1 193.585 297.637   1
  -2   5  -1 265.438 305.023   1
  -2   5  -1 298.883 248.253   2
  -2   5  -2-185.446 187.106   1
   2   5   2-308.402 279.619   1
  -2   5  -2 19.3059 57.7246   2
  -2   5  -3 150.083 96.1920   2
   2   5   3 49.6124 207.672   1
  -2   5  -4 292.691 210.165   2
   2   5   4-30.7582 193.539   1
  -2   5  -5 186.677 89.1456   2
   2   5   5 163.672 141.297   1
   2   5   6 282.662 114.931   1
  -2   5  -6 58.9802 100.236   2
  -2   5  -7 20.6164 227.195   2
   2   5   7 635.775 565.919   1
  -2   5  -8 192.750 86.7640   2
  -2   5  -9 129.321 113.857   2
  -2   5 -10-102.244 153.480   2
  -2   5 -11 46.9418 126.552   2
  -2   5 -12 214.159 238.544   2
  -2   6   7-0.95466 190.296   2
  -2   6   6-269.040 261.241   2
  -2   6   5-216.755 294.885   2
  -2   6   4 244.516 156.892   2
  -2   6   4-221.321 255.970   1
  -2   6   3 157.791 213.547   1
  -2   6   3 50.2039 225.451   2
  -2   6   2 524.176 416.264   1
  -2   6   2-12.9478 240.446   2
  -2   6   1 325.000 356.977   2
  -2   6   1 144.939 90.6251   1
  -2   6   0-90.8437 157.875   1
  -2   6   0 331.514 254.819   2
   2   6   0 552.875 408.637   1
  -2   6  -1 26.6572 219.985   2
   2   6   1-110.196 276.019   1
  -2   6  -1 76.7898 142.941   1
   2   6   2-277.684 294.073   1
  -2   6  -2 475.134 458.630   1
   2   6   3 63.5030 153.079   1
   2   6   4 37.5296 174.302   1
   2   6   5-431.085 376.206   1
   2   6   6-400.823 341.383   1
   2   6   7 337.670 277.770   1
   2   6   8 671.388 555.117   1
   2   6   9 821.613 551.971   1
   2   6  10 1486.41 752.002   1
  -2   7   7 5071.51 1382.97   1
  -2   7   6 111.751 214.777   1
  -2   7   5 928.500 572.083   1
  -2   7   4 1.25096 463.588   1
  -2   7   3-247.324 293.429   1
  -2   7   2 261.079 371.737   1
  -2   7   1-622.028 440.992   1
  -2   7   0-215.209 261.848   1
   2   7   1 922.379 583.053   1
  -2   7  -1 188.827 245.138   1
   2   7   2-420.931 399.112   1
   2   7   3-136.056 236.036   1
  -3  -6  12 82.9503 200.849   3
  -3  -6  11 9.95036 104.080   3
  -3  -6  10-212.831 286.550   3
  -3  -6   9-515.010 424.021   3
  -3  -6   8-304.779 320.160   3
  -3  -6   7-395.448 354.168   3
  -3  -6   6 1377.27 636.833   3
  -3  -6   5 1853.78 671.532   3
  -3  -6   4 209.079 372.775   3
  -3  -6   3-44.9645 118.482   3
  -3  -5  14 690.714 525.387   3
  -3  -5  13 274.564 100.750   3
  -3  -5  12-788.435 534.937   3
  -3  -5  11 380.685 364.243   3
  -3  -5  10 373.399 450.430   3
  -3  -5   9 125.504 376.073   3
  -3  -5   8-73.2587 330.735   3
  -3  -5   7 314.892 312.359   3
  -3  -5   6-212.554 111.950   3
  -3  -5   5 67.3108 160.174   3
  -3  -5   4 83.5888 97.5598   3
  -3  -5   3 45.1516 256.133   3
  -3  -5   2-310.671 258.570   3
  -3  -5   1 15.8646 164.121   3
   3  -5   5-56.3261 199.445   3
   3  -5   6 15.3890 147.768   3
   3  -5   7 399.686 288.633   3
   3  -5   8 46.8326 107.137   3
   3  -5   9 267.205 269.304   3
   3  -5  10 527.525 332.053   3
   3  -5  11 127.800 290.685   3
   3  -5  12 211.588 260.799   3
   3  -5  13 234.011 403.895   3
   3  -5  14 116.317 210.879   3
  -3  -4  16-17.9188 387.104   3
  -3  -4  15-501.243 439.607   3
  -3  -4  14 568.537 453.826   3
  -3  -4  13-181.217 253.921   3
  -3  -4  12 1065.66 637.952   3
  -3  -4  11 390.053 344.987   3
  -3  -4  10 822.728 573.043   3
  -3  -4   9 829.903 464.417   3
  -3  -4   8 1148.64 507.340   3
  -3  -4   7-22.6059 200.696   3
  -3  -4   6 475.043 373.037   3
  -3  -4   5 289.827 339.902   3
  -3  -4   4 1016.37 456.963   3
  -3  -4   3 420.314 289.431   3
  -3  -4   2 344.721 287.806   3
  -3  -4   1 1869.16 611.574   3
   3  -4  -1 1070.75 265.180   3
   3  -4   0 2556.68 460.296   3
   3  -4   1 526.810 239.348   3
   3  -4   2 158.351 163.092   3
   3  -4   3 551.082 303.408   3
   3  -4   4 1407.95 466.499   3
   3  -4   5 650.809 347.953   3
   3  -4   6 200.590 269.096   3
   3  -4   7 169.853 166.591   3
   3  -4   8 355.053 390.876   3
   3  -4   9-304.113 214.026   3
   3  -4  10 221.736 144.189   3
   3  -4  11-4.83182 117.792   3
   3  -4  12 274.498 319.706   3
   3  -4  13 83.1616 164.645   3
   3  -4  14 175.809 295.487   3
   3  -4  15 394.330 374.872   3
  -3  -3  17-126.372 397.728   3
  -3  -3  16 1372.03 659.166   3
  -3  -3  15 36.7912 160.246   3
  -3  -3  14 916.778 657.128   3
  -3  -3  13 64.2706 233.699   3
  -3  -3  12 481.995 327.884   3
  -3  -3  11 475.165 384.367   3
  -3  -3  10 568.070 275.503   3
  -3  -3   9 258.389 118.688   3
  -3  -3   8 84.2441 55.8260   3
  -3  -3   7 206.769 111.741   3
  -3  -3   6 178.120 217.349   3
  -3  -3   5 21.6735 24.0965   2
  -3  -3   5 171.816 257.876   3
   3  -3  -4 96.0221 50.6648   3
  -3  -3   4-13.2099 186.118   3
   3  -3  -3 277.261 126.902   3
  -3  -3   3 1057.30 442.024   3
  -3  -3   2 422.382 283.252   3
  -3  -3   1 1686.77 537.073   3
   3  -3   1 1222.44 322.272   3
   3  -3   2 15.6561 38.0878   3
   3  -3   3 173.934 123.025   3
   3  -3   4 706.454 296.234   3
   3  -3   5 1250.73 409.725   3
   3  -3   6 357.511 256.008   3
   3  -3   7 214.386 139.051   3
   3  -3   8 24.4767 102.440   3
   3  -3   9-36.0952 132.487   3
   3  -3  10 218.959 268.561   3
   3  -3  11 284.464 371.377   3
   3  -3  12 416.956 361.744   3
   3  -3  13 383.440 330.917   3
   3  -3  14-25.4847 325.551   3
   3  -3  15 530.247 414.697   3
   3  -3  16 44.6152 136.023   3
  -3  -2  19 132.762 237.648   3
  -3  -2  18 34.2548 127.595   3
  -3  -2  17 370.127 363.366   3
  -3  -2  16 529.171 417.574   3
  -3  -2  15 188.754 218.635   3
  -3  -2  14 392.530 336.315   3
  -3  -2  13 564.697 428.589   3
  -3  -2  12 107.120 147.174   3
  -3  -2  11 1646.94 625.783   3
  -3  -2  10 315.762 186.968   3
  -3  -2   9-5.71801 129.702   3
  -3  -2   8 99.2988 144.086   3
  -3  -2   7 508.507 338.054   3
  -3  -2   6 627.705 320.812   3
  -3  -2   5 218.964 241.287   3
  -3  -2   4 2663.98 672.825   3
  -3  -2   3 1988.59 568.167   3
  -3  -2   3 2351.15 329.037   2
  -3  -2   2 132.337 71.5728   2
  -3  -2   2 112.705 77.8346   3
  -3  -2   1 4501.69 401.682   2
  -3  -2   1 4491.40 804.678   3
  -3  -2   0 1646.60 254.913   2
  -3  -2  -1 1454.41 268.621   2
  -3  -2  -2 6005.35 613.356   2
  -3  -2  -3 3432.03 508.359   2
   3  -2   5 252.993 198.210   3
   3  -2   6 48.0252 55.7831   3
   3  -2   7 211.138 186.127   3
   3  -2   7 137.161 83.6923   1
   3  -2   8 159.780 64.9045   3
   3  -2   9 246.456 232.964   3
   3  -2  10 193.355 93.8692   3
   3  -2  11 657.281 369.969   3
   3  -2  12 635.069 392.205   3
   3  -2  13 16.8376 212.179   3
   3  -2  14-3.62081 234.540   3
   3  -2  15 494.165 429.451   3
   3  -2  16 106.028 249.518   3
   3  -2  17 799.122 524.421   3
  -3  -1  20 660.962 509.273   3
  -3  -1  19 536.464 714.145   3
  -3  -1  18 221.442 305.290   3
  -3  -1  17 167.836 329.158   3
  -3  -1  16 194.346 285.757   3
  -3  -1  15 105.861 219.979   3
  -3  -1  14 74.4011 265.569   3
  -3  -1  13-33.0559 308.752   3
  -3  -1  12 1141.66 522.286   3
  -3  -1  11 142.545 262.358   3
  -3  -1  10 1788.23 602.214   3
  -3  -1   9 748.688 382.598   3
  -3  -1   8 2513.86 683.133   3
  -3  -1   7 232.332 135.901   3
  -3  -1   6 561.879 303.944   3
  -3  -1   5 3474.56 715.328   3
  -3  -1   4 3019.14 642.086   3
  -3  -1   3 2043.11 387.683   2
  -3  -1   3 2296.41 542.908   3
  -3  -1   2 5977.72 637.781   2
  -3  -1   2 4882.24 803.534   3
  -3  -1   1 2443.54 393.385   2
  -3  -1   0 12899.5 928.202   2
  -3  -1  -1 5944.95 649.646   2
  -3  -1  -2 3584.82 513.356   2
  -3  -1  -3 4017.35 581.635   2
  -3  -1  -4 376.534 175.348   2
  -3  -1  -5 236.652 205.017   2
  -3  -1  -6 210.707 142.613   2
  -3  -1  -7 643.709 356.613   2
   3  -1   8 14.8385 141.769   3
   3  -1   9 1406.61 526.084   3
   3  -1  10-37.9927 49.8223   3
   3  -1  11 717.947 417.164   3
   3  -1  12 481.981 420.435   3
   3  -1  13 68.9184 137.607   3
   3  -1  14 350.517 291.002   3
   3  -1  15 30.3802 180.170   3
   3  -1  16 402.870 330.612   3
   3  -1  17 880.217 535.087   3
   3  -1  18 501.803 487.274   3
  -3   0  21 135.570 169.638   3
  -3   0  20 469.471 312.184   3
  -3   0  19 12.8120 325.024   3
  -3   0  18 228.420 130.694   3
  -3   0  17 310.505 399.851   3
  -3   0  16 201.900 221.780   3
  -3   0  15-65.0736 202.766   3
  -3   0  14 36.0965 68.6558   3
  -3   0  13 172.067 259.497   3
  -3   0  12 30.8393 173.043   3
  -3   0  11 2443.44 667.698   3
  -3   0  10-78.2805 188.239   3
  -3   0   9 1358.04 472.558   3
  -3   0   8-68.4134 99.3498   3
  -3   0   7 1378.14 438.585   3
  -3   0   6 920.535 367.993   3
  -3   0   5 1486.32 431.254   3
  -3   0   4 28.3544 67.7224   3
  -3   0   3 10391.3 1077.68   3
  -3   0   2-45.3343 113.964   2
  -3   0   1 6513.87 751.414   2
  -3   0   0 1021.29 293.185   2
  -3   0  -1 3255.90 379.303   1
  -3   0  -1 3067.96 535.660   2
  -3   0  -2 54.7418 102.168   2
  -3   0  -3-12.7016 85.7727   2
  -3   0  -4 2973.70 561.002   2
   3   0   4 2676.15 335.535   1
  -3   0  -5 877.782 296.571   2
  -3   0  -6 321.771 240.805   2
  -3   0  -7 94.7172 158.062   2
  -3   0  -8 2473.38 638.742   2
  -3   0  -9 102.449 60.6717   2
  -3   0 -10 180.943 219.327   2
   3   0  10 243.634 216.714   3
   3   0  11 1440.45 561.837   3
   3   0  12 2267.97 711.431   3
   3   0  13 235.620 318.956   3
   3   0  14-53.8727 124.731   3
   3   0  15-385.267 324.653   3
   3   0  16 181.346 162.464   3
   3   0  17 323.777 319.256   3
   3   0  18-286.550 312.365   3
   3   0  19 110.705 307.248   3
  -3   1  19 24.2862 284.646   3
  -3   1  18-50.3614 144.045   3
  -3   1  17-460.006 347.528   3
  -3   1  16 581.163 374.768   3
  -3   1  15 226.991 303.547   3
  -3   1  14 31.9728 150.672   3
  -3   1  13 152.092 228.482   3
  -3   1  12 2873.00 826.315   3
  -3   1  11 215.145 154.575   3
  -3   1  10 1137.45 416.990   3
  -3   1   9 437.258 210.304   3
  -3   1   8 2425.01 552.082   3
  -3   1   7 284.735 158.384   3
  -3   1   6 276.836 177.997   3
  -3   1   5 2768.10 548.588   3
  -3   1   4 3785.16 607.542   3
  -3   1   3 1963.20 476.836   2
  -3   1   2 4444.05 716.700   2
  -3   1   1 2853.32 555.120   2
  -3   1   0 12792.0 1184.67   2
  -3   1  -1 5855.74 814.293   2
   3   1   2 3746.11 570.039   1
  -3   1  -2 3805.07 648.396   2
   3   1   3 4157.10 594.609   1
  -3   1  -3 4469.62 737.737   2
  -3   1  -4 132.439 71.8434   2
   3   1   4 161.553 148.344   1
  -3   1  -5 304.618 194.036   2
  -3   1  -6 329.933 196.109   2
  -3   1  -7 852.171 328.729   2
  -3   1  -8 14.9917 61.3380   2
  -3   1  -9 2026.59 616.245   2
  -3   1 -10 400.026 271.124   2
  -3   1 -11 959.508 410.301   2
   3   1  11 668.455 368.381   3
  -3   1 -12 329.729 261.052   2
   3   1  12 80.7689 78.2897   3
   3   1  13 189.879 218.392   3
   3   1  14-4.44639 111.815   3
   3   1  15 61.8171 186.368   3
   3   1  16 287.678 285.641   3
   3   1  17-35.1597 220.605   3
   3   1  18-306.467 402.462   3
   3   1  19 420.111 405.440   3
  -3   2  14 118.545 87.9531   3
  -3   2  13 454.238 321.049   3
  -3   2  12 172.207 203.765   3
  -3   2  11 1665.14 490.536   3
  -3   2  10 197.217 107.301   3
  -3   2   9-4.86566 51.1666   3
  -3   2   8 299.026 173.695   3
  -3   2   7 417.040 185.226   3
  -3   2   3 1949.44 523.569   2
  -3   2   2 179.395 129.078   2
  -3   2   1 4207.83 757.169   2
   3   2   0 1332.60 260.188   2
  -3   2   0 1309.54 404.733   2
   3   2   1 1149.16 273.804   2
  -3   2  -1 1502.81 441.204   2
  -3   2  -2 6429.52 914.132   2
  -3   2  -2 5226.34 482.653   1
  -3   2  -3 3139.78 643.855   2
  -3   2  -4 824.278 353.697   2
  -3   2  -5 439.005 170.142   2
  -3   2  -6-79.2881 89.5073   2
  -3   2  -7 198.092 219.889   2
  -3   2  -8-89.0051 106.482   2
  -3   2  -9-109.978 161.395   2
  -3   2 -10 519.620 308.166   2
  -3   2 -11 764.146 335.870   2
   3   2  12 625.037 399.077   3
  -3   2 -12 114.472 152.203   2
   3   2  13-157.556 122.266   3
  -3   2 -13-40.9363 89.2993   2
   3   2  14 203.771 222.799   3
   3   2  15 2057.88 741.191   3
   3   2  16-51.0313 182.105   3
   3   2  17 213.618 249.913   3
   3   2  18 12.4067 89.0029   3
   3   2  19-289.709 314.046   3
  -3   3   4 242.408 221.159   2
  -3   3   3 529.331 318.353   2
  -3   3   2 42.2516 72.3211   2
  -3   3   1 2552.76 631.981   2
  -3   3   0 1951.42 561.855   2
   3   3   1 1161.76 233.395   2
   3   3   1 2428.40 653.209   1
  -3   3  -1 1858.28 538.906   2
   3   3   2-1.17451 53.2059   2
   3   3   2 41.1647 163.683   1
  -3   3  -2 24.1876 87.6731   1
  -3   3  -3 397.359 253.613   2
   3   3   3 18.3242 176.297   1
  -3   3  -4 604.797 328.476   2
   3   3   4 342.421 249.216   1
  -3   3  -5 1381.52 471.706   2
   3   3   5 1568.96 537.919   1
  -3   3  -6 511.658 340.668   2
   3   3   6 336.721 261.332   1
  -3   3  -7 388.576 249.742   2
  -3   3  -8-68.9053 156.384   2
  -3   3  -9 449.327 311.957   2
  -3   3 -10-177.337 266.559   2
  -3   3 -11-216.800 166.297   2
  -3   3 -12 151.934 313.881   2
   3   3  13 139.084 190.533   3
  -3   3 -13 310.529 326.375   2
   3   3  14 417.770 354.054   3
  -3   3 -14-95.9208 281.757   2
   3   3  15 378.726 359.349   3
  -3   4   5 103.024 146.295   2
  -3   4   4 745.740 401.419   2
  -3   4   3 134.237 96.8630   2
  -3   4   2 51.7373 156.143   2
  -3   4   1 676.830 369.386   2
   3   4   0 2099.19 709.050   1
  -3   4   0 1881.47 603.978   2
  -3   4   0 1569.46 491.414   1
  -3   4  -1 93.7491 86.4697   1
  -3   4  -1 456.507 395.439   2
   3   4   1 374.651 399.590   1
  -3   4  -2 110.754 228.930   1
  -3   4  -2-181.628 249.348   2
   3   4   2 27.9478 145.946   1
   3   4   3 16.7974 170.756   1
  -3   4  -3 63.7303 229.308   2
  -3   4  -4 2097.81 594.741   2
   3   4   4 1226.70 545.286   1
  -3   4  -5-80.8021 204.506   2
   3   4   5 314.997 267.115   1
  -3   4  -6 776.709 392.677   2
   3   4   6 301.422 300.225   1
   3   4   7 14.9788 207.545   1
  -3   4  -7 357.993 309.804   2
   3   4   8-419.467 324.220   1
  -3   4  -8 409.879 290.880   2
  -3   4  -9-92.1175 223.451   2
  -3   4 -10 398.066 302.565   2
  -3   4 -11-196.052 282.947   2
  -3   4 -12-307.112 376.003   2
  -3   4 -13 161.515 283.620   2
  -3   4 -14 5.79789 187.666   2
  -3   5   7 353.694 413.846   2
  -3   5   6-84.2386 230.078   2
  -3   5   5 242.445 252.194   2
  -3   5   4 194.939 288.511   2
  -3   5   3-84.3308 172.137   2
  -3   5   2 358.577 237.089   2
  -3   5   1 299.667 259.940   2
  -3   5   1 295.260 318.888   1
  -3   5   0 152.331 300.599   1
  -3   5   0 124.086 209.762   2
  -3   5  -1-89.7588 198.445   2
   3   5   1-90.8574 239.074   1
  -3   5  -1-19.9779 82.4159   1
   3   5   2 693.569 393.524   1
  -3   5  -2 257.312 132.003   2
   3   5   3 202.492 219.094   1
  -3   5  -3-133.592 240.170   2
   3   5   4 231.273 221.661   1
  -3   5  -4 618.788 420.371   2
  -3   5  -5 72.0112 200.864   2
   3   5   5-184.121 231.824   1
  -3   5  -6-153.288 139.364   2
   3   5   6 122.518 192.398   1
   3   5   7 311.898 359.441   1
  -3   5  -7 376.324 347.430   2
   3   5   8 534.752 429.409   1
  -3   5  -8-519.343 343.678   2
   3   5   9 1019.48 567.172   1
  -3   5  -9-3.45741 231.381   2
  -3   5 -10 201.533 302.318   2
   3   5  10 25.3720 110.282   1
  -3   5 -11-253.405 260.991   2
   3   5  11 849.171 537.026   1
  -3   5 -12 357.659 292.803   2
  -3   5 -13-268.950 283.750   2
  -3   5 -14-201.049 255.342   2
  -3   6   9 28.1669 328.543   2
  -3   6   8-297.877 306.368   2
  -3   6   7-112.233 219.533   2
  -3   6   6 88.2400 170.505   2
  -3   6   5 567.971 331.646   2
  -3   6   4 7.56868 197.457   2
  -3   6   3 183.866 199.183   2
  -3   6   3-482.691 360.358   1
  -3   6   2 102.938 262.761   1
  -3   6   2 140.852 244.917   2
  -3   6   1 326.310 405.787   1
  -3   6   1 441.428 327.384   2
  -3   6   0 176.814 139.677   1
  -3   6   0 179.199 134.630   2
  -3   6  -1-36.4697 191.248   2
   3   6   1 36.0120 293.709   1
  -3   6  -1 15.7646 156.484   1
   3   6   2 484.204 397.206   1
  -3   6  -2 168.634 234.975   2
  -3   6  -3 385.712 354.820   2
   3   6   3 566.364 356.117   1
  -3   6  -4 683.348 477.145   2
   3   6   4 387.793 455.789   1
  -3   6  -5-779.700 423.437   2
   3   6   5-669.205 478.129   1
  -3   6  -6-69.7695 135.459   2
   3   6   6-195.663 363.527   1
   3   6   7 763.826 523.308   1
   3   6   8-1341.62 701.232   1
   3   6   9-170.008 260.465   1
  -3   7   6 1237.97 670.896   1
  -3   7   5 741.978 507.569   1
  -3   7   4 1079.94 600.388   1
  -3   7   3-60.2634 238.801   1
  -4  -6  10-296.047 419.339   3
  -4  -6   9 518.821 531.196   3
  -4  -6   8-51.9977 107.154   3
  -4  -6   7-154.777 237.332   3
  -4  -6   6 37.7736 127.229   3
  -4  -6   5 31.8946 145.721   3
  -4  -6   4 27.8192 109.267   3
  -4  -5  13 283.390 346.640   3
  -4  -5  12 653.391 592.908   3
  -4  -5  11 421.728 401.070   3
  -4  -5  10 594.866 680.600   3
  -4  -5   9 287.320 289.913   3
  -4  -5   8 450.998 383.683   3
  -4  -5   7-27.3259 265.957   3
  -4  -5   6-52.3146 115.771   3
  -4  -5   5 72.5509 191.729   3
  -4  -5   4 160.352 82.0763   3
  -4  -5   3 97.8204 177.990   3
   4  -5   7 585.641 362.654   3
   4  -5   8 580.519 431.190   3
   4  -5   9 113.454 98.5959   3
   4  -5  10 109.606 242.751   3
   4  -5  11-639.876 441.128   3
   4  -5  12-213.590 227.832   3
   4  -5  13 953.701 577.858   3
  -4  -4  15 344.950 380.720   3
  -4  -4  14 387.822 565.063   3
  -4  -4  13-74.1599 173.298   3
  -4  -4  12 417.121 500.677   3
  -4  -4  11 108.910 108.957   3
  -4  -4  10 361.064 381.865   3
  -4  -4   9 303.326 293.430   3
  -4  -4   8 505.349 338.828   3
  -4  -4   7 62.2239 154.005   3
  -4  -4   6 729.285 639.883   3
  -4  -4   5 93.5201 266.575   3
  -4  -4   4 358.780 326.442   3
  -4  -4   3-5.11037 116.566   3
  -4  -4   2-193.823 285.906   3
   4  -4   0 682.751 227.904   3
   4  -4   1 368.698 175.761   3
   4  -4   2 422.158 242.732   3
   4  -4   3 360.038 201.296   3
   4  -4   4 241.020 295.950   3
   4  -4   5-51.0408 237.357   3
   4  -4   6 285.123 58.5904   3
   4  -4   7 103.861 96.6256   3
   4  -4   8 214.550 189.611   3
   4  -4   9 285.745 369.324   3
   4  -4  10-205.915 224.560   3
   4  -4  11 496.021 391.093   3
   4  -4  12-240.578 273.238   3
   4  -4  13 416.795 407.760   3
   4  -4  14 456.016 357.287   3
  -4  -3  16 102.440 238.335   3
  -4  -3  15 662.672 608.139   3
  -4  -3  14 202.314 192.011   3
  -4  -3  13-194.115 258.149   3
  -4  -3  12-78.6681 271.470   3
  -4  -3  11-214.315 255.695   3
  -4  -3  10 143.778 328.155   3
  -4  -3   9 181.015 144.091   3
  -4  -3   8 482.699 390.834   3
  -4  -3   7 4.02523 165.377   3
  -4  -3   6 501.632 363.302   3
  -4  -3   5-29.3976 166.412   3
  -4  -3   4 521.052 398.012   3
  -4  -3   3 196.933 300.633   3
  -4  -3   2 226.236 253.437   3
   4  -3   4 883.523 414.520   3
   4  -3   5-50.0037 152.842   3
   4  -3   6-94.3582 191.657   3
   4  -3   7 311.210 277.331   3
   4  -3   8 101.152 157.798   3
   4  -3   9 43.9151 252.868   3
   4  -3  10 170.690 175.349   3
   4  -3  11 186.924 131.399   3
   4  -3  12 134.067 513.380   3
   4  -3  13 255.114 280.204   3
   4  -3  14 1000.39 572.594   3
   4  -3  15 57.3610 361.914   3
  -4  -2  18 274.109 309.424   3
  -4  -2  17 547.830 453.701   3
  -4  -2  16 260.281 286.056   3
  -4  -2  15 492.544 405.662   3
  -4  -2  14 357.507 409.381   3
  -4  -2  13 467.151 485.170   3
  -4  -2  12 183.605 256.145   3
  -4  -2  11 1114.97 615.285   3
  -4  -2  10 50.6764 179.848   3
  -4  -2   9 206.103 261.262   3
  -4  -2   8 28.3288 59.0573   3
  -4  -2   7 998.812 474.858   3
  -4  -2   6 277.854 258.859   3
  -4  -2   5 124.474 26.6981   2
  -4  -2   5 70.8776 51.8346   3
  -4  -2   4 971.924 469.864   3
  -4  -2   4 859.981 266.159   2
  -4  -2   3 3263.16 794.122   3
  -4  -2   3 3011.87 443.572   2
  -4  -2   2 1014.29 237.330   2
  -4  -2   2 777.829 420.026   3
  -4  -2   1 1184.13 273.259   2
  -4  -2   0 150.569 96.5476   2
  -4  -2  -1 2661.48 439.586   2
  -4  -2  -2 595.224 235.385   2
  -4  -2  -3 1234.08 327.933   2
  -4  -2  -4 1358.26 385.075   2
  -4  -2  -5 48.1507 175.932   2
   4  -2   8 389.191 332.431   3
   4  -2   9 388.206 374.575   3
   4  -2  10 318.440 310.597   3
   4  -2  11 21.1530 145.768   3
   4  -2  12 671.263 453.089   3
   4  -2  13 275.414 325.550   3
   4  -2  14 60.8738 399.601   3
   4  -2  15-0.60199 54.3744   3
   4  -2  16-324.929 338.338   3
  -4  -1  19 590.878 479.466   3
  -4  -1  18 539.969 503.606   3
  -4  -1  17 910.057 556.381   3
  -4  -1  16-357.336 341.032   3
  -4  -1  15 148.004 238.189   3
  -4  -1  14 722.322 480.668   3
  -4  -1  13-232.697 253.177   3
  -4  -1  12 175.105 229.543   3
  -4  -1  11 1114.74 436.400   3
  -4  -1  10 721.287 451.680   3
  -4  -1   9-24.1925 55.9544   3
  -4  -1   8 1097.01 485.231   3
  -4  -1   7 419.438 243.660   3
  -4  -1   6 3259.79 791.514   3
  -4  -1   5 116.011 122.686   3
  -4  -1   4 1870.86 454.521   2
  -4  -1   4 737.294 387.753   3
  -4  -1   3 3503.39 599.161   2
  -4  -1   3 2646.03 659.219   3
  -4  -1   2 2691.03 514.327   2
  -4  -1   1 229.515 151.854   2
  -4  -1   0 1141.30 320.434   2
  -4  -1  -1 4769.03 687.411   2
  -4  -1  -2 4386.78 691.076   2
  -4  -1  -3 2360.03 520.461   2
  -4  -1  -4 1049.19 363.924   2
  -4  -1  -5 1691.76 474.536   2
  -4  -1  -6 257.420 219.448   2
  -4  -1  -7 118.551 60.9518   2
  -4  -1  -8 580.626 309.553   2
  -4  -1  -9 537.586 377.535   2
   4  -1  10 459.880 282.369   3
   4  -1  11 757.195 516.506   3
   4  -1  12-138.989 151.019   3
   4  -1  13 280.458 367.718   3
   4  -1  14-286.543 291.865   3
   4  -1  15 3438.05 1221.10   3
   4  -1  16-74.6845 61.7991   3
   4  -1  17 174.848 204.744   3
  -4   0  20 328.061 304.129   3
  -4   0  19 1231.49 657.196   3
  -4   0  18 52.3308 177.497   3
  -4   0  17 477.467 459.725   3
  -4   0  16 519.193 346.442   3
  -4   0  15 661.587 508.409   3
  -4   0  14 197.714 225.295   3
  -4   0  13 510.854 395.050   3
  -4   0  12 269.939 249.300   3
  -4   0  11 189.262 304.722   3
  -4   0  10 378.430 286.877   3
  -4   0   9 2911.50 742.269   3
  -4   0   8 355.409 186.330   3
  -4   0   7 1828.76 566.882   3
  -4   0   6-11.6247 112.010   3
  -4   0   5 1151.95 458.080   3
  -4   0   4 596.474 331.096   3
  -4   0   4 296.427 202.369   2
  -4   0   3 1089.55 383.868   2
  -4   0   2 1063.93 359.841   2
  -4   0   1 38.5538 55.3014   2
  -4   0   0 298.628 163.597   2
  -4   0  -1 2316.99 522.857   2
  -4   0  -1 2603.37 408.602   1
  -4   0  -2 862.521 388.386   2
  -4   0  -3 640.282 338.502   2
  -4   0  -4 187.656 140.790   2
  -4   0  -5 107.704 291.031   2
   4   0   6 256.096 119.185   1
  -4   0  -6 344.248 207.152   2
   4   0   7 87.4280 90.6189   1
  -4   0  -7-62.4808 230.818   2
  -4   0  -8 185.913 297.570   2
  -4   0  -9 1420.28 506.516   2
  -4   0 -10 117.982 223.084   2
  -4   0 -11 80.0280 190.394   2
   4   0  12-50.3549 181.967   3
   4   0  13 130.296 219.519   3
   4   0  14 34.5361 164.760   3
   4   0  15-101.635 179.293   3
   4   0  16 621.450 445.961   3
   4   0  17-275.218 309.403   3
   4   0  18-146.075 237.576   3
  -4   1  17 549.435 391.767   3
  -4   1  16 157.548 220.652   3
  -4   1  15 420.246 313.485   3
  -4   1  14 425.379 343.197   3
  -4   1  13-69.2901 156.104   3
  -4   1  12 35.0215 111.249   3
  -4   1  11 715.857 385.798   3
  -4   1  10 890.877 415.749   3
  -4   1   9-62.1547 250.339   3
  -4   1   8 855.991 384.877   3
  -4   1   7-28.8435 73.0327   3
  -4   1   6 2529.91 591.493   3
  -4   1   4 1446.73 486.838   2
  -4   1   3 3803.06 774.260   2
  -4   1   2 2917.44 638.307   2
  -4   1   1-48.2313 57.8987   2
  -4   1   0 604.501 298.743   2
  -4   1  -1 4524.17 818.630   2
  -4   1  -2 4672.55 830.714   2
  -4   1  -3 2220.16 601.085   2
   4   1   4 942.899 308.698   1
  -4   1  -4 864.818 408.381   2
  -4   1  -5 1255.14 460.898   2
   4   1   5 1528.95 384.536   1
  -4   1  -6 61.2129 169.621   2
   4   1   6 159.228 147.181   1
   4   1   7-65.6872 111.378   1
  -4   1  -7-140.852 110.196   2
  -4   1  -8 661.348 380.665   2
  -4   1  -9 791.947 408.005   2
  -4   1 -10-26.7014 175.293   2
  -4   1 -11 1361.78 558.281   2
  -4   1 -12 292.502 367.202   2
   4   1  13 74.0046 82.7359   3
  -4   1 -13-41.3821 143.902   2
   4   1  14-18.5511 116.573   3
   4   1  15-266.554 281.063   3
   4   1  16 536.726 441.465   3
   4   1  17 372.317 353.007   3
   4   1  18 69.6286 171.325   3
  -4   2  12 996.200 584.640   3
  -4   2  11 525.138 304.744   3
  -4   2  10 42.4133 174.849   3
  -4   2   9 170.072 174.162   3
  -4   2   8-36.8722 64.6842   3
  -4   2   5 154.984 147.299   2
  -4   2   4 776.499 381.249   2
  -4   2   3 2665.68 686.508   2
  -4   2   2 1035.44 415.276   2
  -4   2   1 972.694 443.521   2
  -4   2   0 135.591 50.5317   2
  -4   2  -1 2566.46 635.892   2
  -4   2  -2 145.461 72.6656   1
  -4   2  -2 77.9543 143.568   2
  -4   2  -3 1244.40 494.555   2
  -4   2  -4 1347.86 516.562   2
  -4   2  -5 163.789 190.195   2
  -4   2  -6 227.863 199.277   2
   4   2   7 273.425 234.704   1
  -4   2  -7 569.868 317.328   2
  -4   2  -8 177.429 166.798   2
  -4   2  -9 366.235 349.094   2
  -4   2 -10 138.236 339.299   2
  -4   2 -11 164.666 247.796   2
  -4   2 -12 869.740 473.794   2
  -4   2 -13 258.284 374.003   2
   4   2  14-65.6526 218.768   3
  -4   2 -14 200.829 227.308   2
   4   2  15 313.039 379.960   3
   4   2  16-66.5780 161.055   3
   4   2  17 359.264 343.149   3
   4   2  18 133.369 222.096   3
  -4   3   5 162.659 273.910   2
  -4   3   4 28.1553 143.295   2
  -4   3   3 59.3191 140.445   2
  -4   3   2 221.820 214.826   2
  -4   3   1 75.8892 276.603   2
  -4   3   0 806.506 391.152   2
  -4   3  -1 329.304 338.132   2
   4   3   2 862.690 416.304   1
  -4   3  -2 321.587 147.749   1
  -4   3  -2 618.191 320.138   2
   4   3   3 327.516 305.980   1
  -4   3  -3 472.992 315.641   2
  -4   3  -4 958.065 470.774   2
   4   3   4 703.871 372.788   1
   4   3   5 210.943 276.161   1
  -4   3  -5 300.169 298.971   2
  -4   3  -6 88.9549 69.0639   2
   4   3   6 69.5271 161.184   1
  -4   3  -7 341.427 314.656   2
   4   3   7 125.549 249.090   1
   4   3   8 323.581 259.039   1
  -4   3  -8 74.4086 250.915   2
   4   3   9 206.079 280.121   1
  -4   3  -9 318.154 330.325   2
  -4   3 -10 275.832 501.177   2
  -4   3 -11 581.616 371.160   2
  -4   3 -12 423.111 309.026   2
  -4   3 -13 316.389 322.403   2
  -4   3 -14 202.375 399.488   2
   4   3  14 442.130 334.064   3
  -4   3 -15-495.074 401.093   2
   4   3  15 381.686 330.564   3
   4   3  16 505.906 441.732   3
  -4   4   7 175.007 211.901   2
  -4   4   6 266.473 261.778   2
  -4   4   5-196.940 154.410   2
  -4   4   4 362.426 280.825   2
  -4   4   3 3.75652 250.244   2
  -4   4   2-122.028 82.5682   2
  -4   4   1 1744.57 599.342   2
  -4   4   0 2072.40 666.907   2
  -4   4  -1 451.555 259.978   1
  -4   4  -1 293.027 292.853   2
   4   4   2 295.730 297.236   1
  -4   4  -2 261.151 303.311   2
  -4   4  -3 497.431 302.162   2
   4   4   3 231.207 305.476   1
  -4   4  -4 346.080 371.849   2
   4   4   4 180.236 49.6926   1
  -4   4  -5 476.806 289.956   2
   4   4   5 266.508 106.191   1
  -4   4  -6 418.662 305.035   2
   4   4   6 46.7472 207.843   1
  -4   4  -7 103.754 175.598   2
   4   4   7 0.45706 166.004   1
   4   4   8 453.360 301.009   1
  -4   4  -8-18.1110 153.334   2
   4   4   9 405.952 417.532   1
  -4   4  -9-544.639 368.302   2
   4   4  10 73.4753 153.368   1
  -4   4 -10 75.9244 292.489   2
  -4   4 -11-60.2810 422.784   2
   4   4  11 194.115 244.020   1
  -4   4 -12-162.857 74.2599   2
   4   4  12 278.222 295.026   1
  -4   4 -13 330.166 238.876   2
  -4   4 -14 230.265 248.092   2
  -4   4 -15 235.904 289.066   2
  -4   5   9 339.176 427.003   2
  -4   5   8 557.624 511.024   2
  -4   5   7 185.437 179.879   2
  -4   5   6 179.301 188.371   2
  -4   5   5-153.815 233.496   2
  -4   5   4-1.95343 192.144   2
  -4   5   3 292.756 334.986   2
  -4   5   2 70.0040 191.135   2
  -4   5   1 323.460 483.660   2
  -4   5   1-153.522 190.273   1
  -4   5   0 294.967 257.705   2
  -4   5  -1 97.7699 263.359   2
   4   5   2-61.4946 124.026   1
  -4   5  -2 472.571 291.507   2
   4   5   3 122.579 267.457   1
  -4   5  -3 507.152 291.436   2
  -4   5  -4 987.782 487.378   2
   4   5   4 131.675 202.860   1
  -4   5  -5 546.531 322.415   2
   4   5   5-280.806 289.961   1
  -4   5  -6 408.836 260.932   2
   4   5   6 253.511 284.786   1
  -4   5  -7-39.8765 137.116   2
   4   5   7 122.190 212.990   1
   4   5   8 83.1014 365.075   1
  -4   5  -8-44.2150 158.293   2
   4   5   9 1012.89 573.858   1
  -4   5  -9-226.494 386.064   2
   4   5  10 491.684 408.789   1
  -4   5 -10-152.412 439.501   2
   4   5  11 211.858 267.489   1
  -4   5 -11 10.3037 173.314   2
   4   5  12 764.896 524.939   1
  -4   5 -12 81.9691 170.048   2
   4   5  13 706.292 514.894   1
  -4   5 -13 870.034 673.526   2
  -4   6  10-38.6748 161.256   2
  -4   6   9 278.164 220.657   2
  -4   6   8 331.875 153.175   2
  -4   6   7-29.4627 291.590   2
  -4   6   6 191.243 300.620   2
  -4   6   5 23.4468 132.156   2
  -4   6   4-176.619 235.022   2
  -4   6   3 226.757 266.943   2
  -4   6   2 33.1760 113.914   2
  -4   6   1-244.957 349.900   2
  -4   6   0-91.7049 193.316   2
  -4   6  -1 411.450 363.239   2
  -4   6  -2 241.326 95.5377   2
   4   6   3-127.100 205.684   1
  -4   6  -3 317.596 297.806   2
  -4   6  -4 192.981 315.426   2
   4   6   4 778.535 538.701   1
  -4   6  -5 299.449 214.557   2
   4   6   5 888.752 648.706   1
  -4   6  -6 250.074 474.384   2
   4   6   6 94.9866 189.083   1
   4   6   7-402.952 390.752   1
  -4   6  -7 87.8227 245.984   2
   4   6   8-60.4554 226.249   1
  -4   6  -8 607.695 419.310   2
  -4   6  -9 437.225 364.462   2
  -5  -6   8 106.298 270.858   3
  -5  -6   7-420.670 404.979   3
  -5  -6   6 59.8552 309.320   3
  -5  -6   5 364.032 402.718   3
  -5  -5  11-767.679 561.510   3
  -5  -5  10 132.379 236.538   3
  -5  -5   9-134.009 235.494   3
  -5  -5   8 567.850 454.410   3
  -5  -5   7 278.134 293.007   3
  -5  -5   6 171.805 157.444   3
  -5  -5   5 180.145 168.479   3
  -5  -5   4 68.5847 351.646   3
   5  -5  10 24.7144 103.207   3
   5  -5  11 551.281 427.521   3
  -5  -4  13-192.248 283.256   3
  -5  -4  12 360.917 376.116   3
  -5  -4  11-197.693 92.7600   3
  -5  -4  10-1005.72 596.062   3
  -5  -4   9-112.821 309.973   3
  -5  -4   8-30.5188 194.238   3
  -5  -4   7 148.328 239.228   3
  -5  -4   6-218.175 260.284   3
  -5  -4   5-98.8689 173.846   3
  -5  -4   4 122.102 205.246   3
   5  -4   2 68.4832 161.960   3
   5  -4   3 144.726 162.428   3
   5  -4   4 257.406 292.100   3
   5  -4   5 5.65043 43.1870   3
   5  -4   6-76.2089 404.904   3
   5  -4   7-84.0135 239.220   3
   5  -4   8-71.3861 291.649   3
   5  -4   9 791.569 462.834   3
   5  -4  10-5.32896 312.388   3
   5  -4  11 773.765 488.717   3
   5  -4  12 155.852 96.0963   3
   5  -4  13 427.786 388.866   3
  -5  -3  15 279.541 461.164   3
  -5  -3  14-35.6006 281.094   3
  -5  -3  13 1054.43 600.185   3
  -5  -3  12 52.1482 148.272   3
  -5  -3  11 342.109 423.461   3
  -5  -3  10 138.183 218.133   3
  -5  -3   9 455.335 293.957   3
  -5  -3   8-208.871 250.674   3
  -5  -3   7 659.502 503.202   3
  -5  -3   6 582.466 453.696   3
  -5  -3   5 643.554 441.009   3
  -5  -3   4 786.057 461.899   3
  -5  -3   3-159.153 202.106   3
   5  -3   6-35.5359 197.835   3
   5  -3   7-53.9224 93.1205   3
   5  -3   8 184.378 164.549   3
   5  -3   9 345.462 120.161   3
   5  -3  10 451.638 354.114   3
   5  -3  11 52.9544 135.234   3
   5  -3  12 149.638 292.390   3
   5  -3  13-640.631 462.070   3
   5  -3  14 392.898 374.435   3
  -5  -2  17 56.9553 76.3352   3
  -5  -2  16-297.533 342.034   3
  -5  -2  15 455.030 412.893   3
  -5  -2  14-171.077 252.560   3
  -5  -2  13-41.6277 136.840   3
  -5  -2  12 342.218 413.741   3
  -5  -2  11 64.0472 212.172   3
  -5  -2  10 241.041 93.3105   3
  -5  -2   9 201.297 246.534   3
  -5  -2   8 401.310 331.649   3
  -5  -2   7 180.245 216.723   2
  -5  -2   7-211.659 232.975   3
  -5  -2   6 634.692 309.307   2
  -5  -2   6 1269.79 656.599   3
  -5  -2   5 669.385 456.772   3
  -5  -2   5 752.127 325.726   2
  -5  -2   4 941.161 477.575   3
  -5  -2   4 1236.17 374.294   2
  -5  -2   3 53.3676 112.992   2
  -5  -2   2 329.947 171.158   2
  -5  -2   1 222.403 155.369   2
  -5  -2   0 720.963 256.128   2
  -5  -2  -1 1005.25 322.809   2
  -5  -2  -2 1732.80 425.267   2
  -5  -2  -3 1669.79 440.597   2
  -5  -2  -4 40.1317 212.172   2
  -5  -2  -5 384.827 151.651   2
  -5  -2  -6 26.6190 68.4904   2
  -5  -2  -7-190.227 298.820   2
   5  -2   9 76.7709 159.092   3
   5  -2  10 352.608 354.960   3
   5  -2  11 520.472 354.625   3
   5  -2  12 319.672 497.454   3
   5  -2  13 91.1982 178.180   3
   5  -2  14 443.127 319.758   3
   5  -2  15 151.848 237.282   3
  -5  -1  18 271.780 100.405   3
  -5  -1  17 116.223 216.951   3
  -5  -1  16 103.393 244.798   3
  -5  -1  15 281.468 313.129   3
  -5  -1  14-450.394 379.224   3
  -5  -1  13 203.099 196.494   3
  -5  -1  12 1254.67 641.884   3
  -5  -1  11 919.798 543.139   3
  -5  -1  10 120.119 256.056   3
  -5  -1   9 1440.47 637.461   3
  -5  -1   8 437.845 451.272   3
  -5  -1   7 2002.78 681.615   3
  -5  -1   6 166.735 159.009   2
  -5  -1   6-39.1689 179.737   3
  -5  -1   5 610.446 324.018   2
  -5  -1   5 668.289 401.376   3
  -5  -1   4 178.949 199.850   2
  -5  -1   4 402.417 315.289   3
  -5  -1   3 2368.10 563.186   2
  -5  -1   2 161.162 110.573   2
  -5  -1   1 1002.59 343.160   2
  -5  -1   0 496.844 265.171   2
  -5  -1  -1 3417.74 708.706   2
  -5  -1  -2 2099.74 512.268   2
  -5  -1  -3 1907.99 504.952   2
  -5  -1  -4 1712.77 484.442   2
  -5  -1  -5 782.025 383.077   2
  -5  -1  -6 971.977 380.547   2
  -5  -1  -7 404.057 194.643   2
  -5  -1  -8 570.497 360.598   2
  -5  -1  -9 604.443 322.619   2
  -5  -1 -10 3.63532 229.415   2
   5  -1  11-300.051 287.210   3
   5  -1  12 858.992 493.893   3
   5  -1  13-237.179 272.024   3
   5  -1  14 393.737 346.116   3
   5  -1  15 590.551 453.169   3
   5  -1  16 458.179 447.758   3
  -5   0  19-438.274 414.102   3
  -5   0  18-902.939 570.664   3
  -5   0  17 230.096 288.182   3
  -5   0  16 97.2850 184.950   3
  -5   0  15 110.802 192.732   3
  -5   0  14 595.060 414.099   3
  -5   0  13 289.614 379.401   3
  -5   0  12 322.689 263.161   3
  -5   0  11 476.040 305.177   3
  -5   0  10 2504.23 806.906   3
  -5   0   9 224.047 264.742   3
  -5   0   8 1366.48 534.709   3
  -5   0   7 211.056 257.585   3
  -5   0   6 3368.83 832.087   3
  -5   0   6 3316.23 805.280   2
  -5   0   5-88.0790 197.046   2
  -5   0   4 444.567 265.184   2
  -5   0   3 55.5003 202.760   2
  -5   0   2 6118.36 977.484   2
  -5   0   1 1939.15 564.525   2
  -5   0   0 2343.64 584.150   2
  -5   0  -1 174.345 147.251   2
  -5   0  -2 560.924 307.662   2
  -5   0  -3 2571.82 641.812   2
  -5   0  -4 5109.17 919.143   2
  -5   0  -5 1207.28 481.672   2
  -5   0  -6 551.567 320.980   2
  -5   0  -7 510.837 286.602   2
  -5   0  -8 2129.06 647.901   2
  -5   0  -9 155.266 254.381   2
  -5   0 -10 27.2960 175.935   2
  -5   0 -11 454.912 315.285   2
  -5   0 -12 267.685 315.349   2
   5   0  13 124.971 161.797   3
   5   0  14-141.808 217.987   3
   5   0  15 269.461 324.779   3
   5   0  16-448.739 401.774   3
  -5   1  16 141.348 358.946   3
  -5   1  15 125.765 150.121   3
  -5   1  14-38.2166 111.471   3
  -5   1  13-282.274 264.797   3
  -5   1  12 401.288 351.828   3
  -5   1  11 35.3214 238.860   3
  -5   1  10 92.9056 165.489   3
  -5   1   9 1760.54 607.349   3
  -5   1   8 95.5333 89.9846   3
  -5   1   6 236.001 293.553   2
  -5   1   5 1024.96 420.202   2
  -5   1   4-80.2280 195.532   2
  -5   1   3 1309.69 488.135   2
  -5   1   2 211.785 158.150   2
  -5   1   1 1037.90 656.627   2
  -5   1   0 379.533 342.080   2
  -5   1  -1 3386.64 762.269   2
  -5   1  -2 1684.60 562.289   2
  -5   1  -3 2291.09 655.320   2
  -5   1  -4 2050.29 633.367   2
  -5   1  -5 443.296 284.133   2
  -5   1  -6 443.237 345.329   2
   5   1   7 544.285 240.828   1
  -5   1  -7 360.387 182.242   2
  -5   1  -8 311.190 225.882   2
  -5   1  -9 977.415 501.762   2
  -5   1 -10 206.020 195.190   2
  -5   1 -11 31.4926 100.442   2
  -5   1 -12 556.631 463.281   2
  -5   1 -13 230.851 262.870   2
   5   1  14-264.189 286.812   3
  -5   1 -14-349.294 329.934   2
   5   1  15 25.8487 105.560   3
   5   1  16-819.001 531.533   3
  -5   2  11 207.831 237.206   3
  -5   2  10 206.559 192.583   3
  -5   2   7-6.37714 268.602   2
  -5   2   6 1417.94 561.547   2
  -5   2   5 745.786 465.997   2
  -5   2   4 973.706 385.977   2
  -5   2   3-127.558 238.732   2
  -5   2   2 348.893 289.949   2
  -5   2   1 281.510 325.674   2
  -5   2   0 942.742 375.816   2
  -5   2  -1 300.312 128.366   2
  -5   2  -2 1899.05 594.087   2
  -5   2  -3 2297.13 690.144   2
  -5   2  -4 291.719 339.844   2
   5   2   5 493.843 289.061   1
  -5   2  -5 713.685 427.073   2
  -5   2  -6 95.0546 257.896   2
   5   2   6 246.838 241.676   1
  -5   2  -7-197.340 306.913   2
   5   2   7 133.679 158.394   1
   5   2   8-48.6738 72.2690   1
  -5   2  -8 166.645 245.269   2
   5   2   9-241.399 204.367   1
  -5   2  -9-5.38092 295.011   2
  -5   2 -10-131.699 99.7278   2
  -5   2 -11 474.625 421.579   2
  -5   2 -12 356.560 483.447   2
  -5   2 -13 114.743 223.893   2
  -5   2 -14 186.764 386.627   2
  -5   2 -15 663.597 466.868   2
   5   2  15 109.878 341.988   3
   5   2  16-47.5418 379.003   3
  -5   3   8 321.572 369.242   2
  -5   3   7 681.826 472.838   2
  -5   3   6-175.979 214.395   2
  -5   3   5 220.825 281.938   2
  -5   3   4 799.361 402.507   2
  -5   3   3 469.395 288.419   2
  -5   3   2 101.801 260.393   2
  -5   3   1 176.900 366.954   2
  -5   3   0 890.618 503.041   2
  -5   3  -1 1319.95 580.448   2
  -5   3  -2 878.038 438.473   2
  -5   3  -3 204.530 425.376   2
  -5   3  -4 246.002 287.619   2
  -5   3  -5-28.6473 105.759   2
   5   3   5 556.165 331.363   1
  -5   3  -6-122.256 308.568   2
   5   3   6-290.019 243.879   1
  -5   3  -7 275.385 209.140   2
   5   3   7-429.258 299.550   1
   5   3   8 40.5256 306.129   1
  -5   3  -8 529.262 277.787   2
   5   3   9 59.0260 253.358   1
  -5   3  -9 79.5749 199.653   2
   5   3  10 146.426 187.785   1
  -5   3 -10-366.075 320.317   2
  -5   3 -11 734.216 407.587   2
  -5   3 -12 7.26116 65.2351   2
  -5   3 -13 1641.77 748.400   2
  -5   3 -14 381.007 394.946   2
   5   3  15-79.6187 433.682   3
  -5   4   9-89.2170 300.770   2
  -5   4   8 675.046 528.983   2
  -5   4   7 246.207 95.4779   2
  -5   4   6 193.047 213.411   2
  -5   4   5 334.962 307.534   2
  -5   4   4 172.361 270.434   2
  -5   4   3-93.7447 312.393   2
  -5   4   2-264.394 392.818   2
  -5   4   1 11.3415 221.029   2
  -5   4   0 1173.86 537.076   2
  -5   4  -1-173.829 280.930   2
  -5   4  -2-180.888 315.635   2
  -5   4  -3-103.620 144.396   2
  -5   4  -4-389.439 318.525   2
   5   4   4 413.637 320.930   1
  -5   4  -5 275.517 329.516   2
   5   4   5 563.305 398.331   1
  -5   4  -6 616.191 402.152   2
   5   4   6 260.962 262.340   1
  -5   4  -7 493.872 324.428   2
   5   4   7-18.2619 226.670   1
   5   4   8 269.710 272.759   1
  -5   4  -8 532.213 594.042   2
  -5   4  -9 465.282 366.631   2
   5   4   9-34.1856 110.429   1
   5   4  10 15.2705 91.6114   1
  -5   4 -10 54.4883 139.898   2
   5   4  11-79.3952 165.019   1
  -5   4 -11 645.253 499.457   2
  -5   4 -12-290.761 311.873   2
  -5   5  11 717.715 471.233   2
  -5   5  10 129.920 193.251   2
  -5   5   9-195.174 288.444   2
  -5   5   8 404.636 491.197   2
  -5   5   7 7.85925 81.3389   2
  -5   5   6-508.193 405.320   2
  -5   5   5 278.529 298.052   2
  -5   5   4 326.283 316.596   2
  -5   5   3 345.910 373.635   2
  -5   5   2-639.682 434.331   2
  -5   5   1 8.55650 421.641   2
  -5   5   0 418.343 424.737   2
  -5   5  -1 77.7874 222.378   2
  -5   5  -2 40.7433 260.405   2
  -5   5  -3-186.378 233.594   2
  -5   5  -4 505.889 379.982   2
  -5   5  -5-185.336 404.881   2
   5   5   5 5.13985 209.172   1
  -5   5  -6-923.816 519.197   2
   5   5   6 463.369 385.495   1
  -5   5  -7 256.972 598.937   2
   5   5   7-130.833 213.502   1
   5   5   8 790.501 512.282   1
  -5   5  -8-361.825 336.280   2
   5   5   9-894.166 551.018   1
  -5   5  -9 169.303 205.326   2
   5   5  10-589.740 455.272   1
  -5   5 -10-12.5350 302.085   2
   5   5  11 486.236 420.563   1
  -5   6   8 379.567 383.415   2
  -5   6   7-167.946 258.385   2
  -5   6   6-402.254 380.936   2
  -5   6   5 266.311 497.595   2
  -5   6   4 865.077 675.575   2
  -5   6   3 607.938 596.635   2
  -5   6   2 159.564 229.250   2
  -5   6   1 672.005 497.227   2
  -5   6   0 333.314 328.593   2
  -5   6  -1 183.350 402.629   2
  -5   6  -2 30.4434 117.680   2
  -5   6  -3 135.008 216.330   2
  -5   6  -4 1365.77 653.371   2
  -5   6  -5-38.1886 284.110   2
  -5   6  -6 139.861 362.288   2
  -5   6  -7-285.295 310.483   2
  -5   6  -8-746.502 500.548   2
  -6  -5   8 367.516 388.937   3
  -6  -5   7 92.6848 201.530   3
  -6  -5   6 272.929 384.523   3
  -6  -4  11 366.378 390.713   3
  -6  -4  10 1902.92 864.050   3
  -6  -4   9 113.604 352.654   3
  -6  -4   8 382.718 376.466   3
  -6  -4   7 7.15780 155.604   3
  -6  -4   6 379.322 362.839   3
   6  -4   4 420.897 336.513   3
   6  -4   5 316.656 275.414   3
   6  -4   6 62.9207 196.122   3
   6  -4   7 194.749 233.767   3
   6  -4   8 161.342 246.451   3
   6  -4   9 633.104 438.829   3
   6  -4  10-66.3672 350.450   3
   6  -4  11 212.818 275.199   3
  -6  -3  13 237.559 264.349   3
  -6  -3  12-863.438 579.640   3
  -6  -3  11-891.637 576.796   3
  -6  -3  10 426.893 466.552   3
  -6  -3   9 107.955 286.484   3
  -6  -3   8-63.3122 153.770   3
  -6  -3   7-409.277 364.692   3
  -6  -3   6 170.850 117.789   3
  -6  -3   5 181.602 188.017   3
   6  -3   7 1534.63 818.800   3
   6  -3   8 0.50397 228.891   3
   6  -3   9-27.8828 101.519   3
   6  -3  10-71.5689 215.147   3
   6  -3  11 497.026 405.385   3
   6  -3  12 130.421 133.363   3
  -6  -2  15-376.090 392.577   3
  -6  -2  14-501.975 442.039   3
  -6  -2  13-755.479 528.365   3
  -6  -2  12 187.262 127.847   3
  -6  -2  11 142.184 131.564   3
  -6  -2  10 299.811 906.069   3
  -6  -2   9-661.944 455.372   3
  -6  -2   8 22.6194 213.504   3
  -6  -2   7 164.948 284.708   3
  -6  -2   6 351.976 405.700   3
  -6  -2   4 493.890 281.934   2
  -6  -2   3 108.921 83.1060   2
  -6  -2   2 509.489 247.599   2
  -6  -2   1 884.053 350.911   2
  -6  -2   0 392.135 123.619   2
  -6  -2  -1 1517.94 452.603   2
  -6  -2  -2 616.632 296.113   2
  -6  -2  -3 101.523 133.732   2
  -6  -2  -4 696.029 327.285   2
  -6  -2  -5-32.2108 169.645   2
  -6  -2  -6 331.246 181.720   2
  -6  -2  -7 361.219 310.311   2
  -6  -2  -8 286.712 80.2851   2
   6  -2  10-635.852 435.993   3
   6  -2  11 565.252 542.651   3
   6  -2  12 233.466 282.166   3
   6  -2  13 265.024 213.907   3
  -6  -1  17-190.767 287.403   3
  -6  -1  16 386.110 391.418   3
  -6  -1  15 795.265 543.626   3
  -6  -1  14-311.410 333.613   3
  -6  -1  13 225.863 281.200   3
  -6  -1  12-121.338 204.686   3
  -6  -1  11-390.805 348.222   3
  -6  -1  10 71.1603 289.011   3
  -6  -1   9 96.0382 296.188   3
  -6  -1   9 373.341 355.429   2
  -6  -1   8 156.030 248.512   2
  -6  -1   8 252.937 301.981   3
  -6  -1   7 506.672 297.250   2
  -6  -1   7 150.367 387.170   3
  -6  -1   6 169.917 183.899   2
  -6  -1   5 1205.45 444.333   2
  -6  -1   4 491.872 301.416   2
  -6  -1   3 60.2146 129.728   2
  -6  -1   2-49.2511 202.571   2
  -6  -1   1 1126.82 389.346   2
  -6  -1   0 49.8498 306.822   2
  -6  -1  -1 1129.69 468.198   2
  -6  -1  -2-102.569 185.253   2
  -6  -1  -3 1503.38 491.926   2
  -6  -1  -4 105.281 45.2054   2
  -6  -1  -5 209.787 229.228   2
  -6  -1  -6 475.658 304.514   2
  -6  -1  -7 112.749 100.423   2
  -6  -1  -8-98.0859 72.0426   2
  -6  -1  -9 528.147 341.366   2
  -6  -1 -10-8.24976 69.5536   2
  -6  -1 -11 23.4203 98.3008   2
   6  -1  12 399.947 335.434   3
   6  -1  13-438.611 387.119   3
   6  -1  14 720.953 510.748   3
  -6   0  18 148.835 96.2437   3
  -6   0  17-549.238 454.865   3
  -6   0  16-506.763 425.304   3
  -6   0  15 17.9469 191.313   3
  -6   0  14-116.224 199.565   3
  -6   0  13 220.408 190.218   3
  -6   0  12-77.8249 160.428   3
  -6   0  11-9.24174 75.6847   3
  -6   0  10 386.596 300.710   3
  -6   0   9 906.477 564.890   3
  -6   0   9 455.463 297.417   2
  -6   0   8-39.7470 143.876   3
  -6   0   8 299.051 311.284   2
  -6   0   7-173.296 264.499   2
  -6   0   6 259.090 74.2084   2
  -6   0   5 16.0959 138.378   2
  -6   0   4 908.510 407.401   2
  -6   0   3 508.230 384.217   2
  -6   0   2 322.739 221.875   2
  -6   0   1-4.75535 168.273   2
  -6   0   0 2341.53 676.014   2
  -6   0  -1 186.177 193.336   2
  -6   0  -2 577.191 369.996   2
  -6   0  -3 1313.77 498.432   2
  -6   0  -4 441.184 331.964   2
  -6   0  -5-84.2038 166.310   2
  -6   0  -6 225.354 213.964   2
  -6   0  -7 104.500 220.727   2
  -6   0  -8 50.8039 255.898   2
  -6   0  -9 71.2831 191.559   2
  -6   0 -10 444.263 352.749   2
  -6   0 -11 161.918 314.477   2
  -6   0 -12-523.780 394.308   2
   6   0  13 22.1904 129.732   3
  -6   0 -13 994.356 555.121   2
   6   0  14 77.9578 274.635   3
  -6   1  14 39.2243 122.141   3
  -6   1  13 283.592 133.302   3
  -6   1  12 463.395 379.551   3
  -6   1  11 8.25614 71.6073   3
  -6   1  10 240.646 295.185   3
  -6   1   9 647.396 278.113   2
  -6   1   8-98.8529 282.890   2
  -6   1   7 160.037 285.090   2
  -6   1   6 224.555 154.508   2
  -6   1   5 924.126 541.482   2
  -6   1   4 98.7074 295.153   2
  -6   1   3 175.783 217.390   2
  -6   1   2 402.807 263.884   2
  -6   1   1 729.333 365.638   2
  -6   1   0-155.399 328.563   2
  -6   1  -1 843.435 403.994   2
  -6   1  -2-152.579 121.517   2
  -6   1  -3 786.996 417.076   2
  -6   1  -4-142.806 224.360   2
  -6   1  -5 236.289 138.804   2
  -6   1  -6-8.43458 116.935   2
  -6   1  -7-56.4259 304.175   2
  -6   1  -8-220.630 357.870   2
  -6   1  -9 180.226 267.985   2
  -6   1 -10 694.603 537.363   2
  -6   1 -11 58.5225 195.103   2
  -6   1 -12-55.7830 138.578   2
  -6   1 -13 206.419 262.113   2
  -6   1 -14 100.805 130.396   2
  -6   2   9 590.863 411.997   2
  -6   2   8 202.897 259.474   2
  -6   2   7 1028.77 565.433   2
  -6   2   6-533.926 371.532   2
  -6   2   5 350.733 285.940   2
  -6   2   4 344.970 193.658   2
  -6   2   3 123.874 290.028   2
  -6   2   2 232.132 287.660   2
  -6   2   1 973.187 491.070   2
  -6   2   0 180.514 253.871   2
  -6   2  -1 941.665 499.651   2
  -6   2  -2 830.922 481.739   2
  -6   2  -3 460.915 355.071   2
  -6   2  -4 361.338 295.629   2
  -6   2  -5 187.052 276.530   2
  -6   2  -6-241.350 250.538   2
  -6   2  -7 167.685 228.782   2
  -6   2  -8 586.602 296.139   2
  -6   2  -9-186.473 279.182   2
  -6   2 -10-9.73623 117.074   2
  -6   2 -11 129.882 269.815   2
  -6   2 -12 4.15173 120.255   2
  -6   2 -13 542.070 393.403   2
  -6   3  10 153.851 138.058   2
  -6   3   9-186.585 333.029   2
  -6   3   8 938.533 454.944   2
  -6   3   7 336.300 294.254   2
  -6   3   6 934.202 567.418   2
  -6   3   5 139.720 351.839   2
  -6   3   4 581.515 396.069   2
  -6   3   3 593.860 427.037   2
  -6   3   2-576.292 394.688   2
  -6   3   1-373.376 392.564   2
  -6   3   0 1094.42 535.603   2
  -6   3  -1 517.264 400.375   2
  -6   3  -2 29.6441 243.494   2
  -6   3  -3 804.900 526.420   2
  -6   3  -4 252.460 81.1936   2
  -6   3  -5 271.200 405.834   2
  -6   3  -6 516.796 383.145   2
  -6   3  -7 229.240 324.276   2
  -6   3  -8-115.079 265.576   2
  -6   3  -9 320.659 521.088   2
  -6   3 -10 67.9940 207.383   2
  -6   3 -11 222.227 274.635   2
  -6   3 -12 615.583 434.127   2
  -6   4  11 65.4232 171.688   2
  -6   4  10 207.681 284.587   2
  -6   4   9-180.493 262.125   2
  -6   4   8 158.472 242.979   2
  -6   4   7 492.692 475.698   2
  -6   4   6 414.601 506.106   2
  -6   4   5-179.414 191.721   2
  -6   4   4-477.825 383.593   2
  -6   4   3 391.703 189.284   2
  -6   4   2 67.6121 230.417   2
  -6   4   1 512.104 248.604   2
  -6   4   0-436.392 365.004   2
  -6   4  -1-459.726 368.584   2
  -6   4  -2 153.127 174.639   2
  -6   4  -3 388.935 354.348   2
  -6   4  -4-40.6298 295.634   2
  -6   4  -5 296.857 294.360   2
  -6   4  -6-238.266 274.244   2
  -6   4  -7-28.2760 247.517   2
  -6   4  -8 91.8632 181.672   2
  -6   4  -9 16.4547 304.434   2
  -6   4 -10 52.0798 147.013   2
  -6   5   8-251.802 167.236   2
  -6   5   7-17.0931 326.912   2
  -6   5   6 593.401 463.244   2
  -6   5   5 247.785 174.480   2
  -6   5   4 465.216 403.518   2
  -6   5   3 298.211 338.935   2
  -6   5   2 228.727 281.775   2
  -6   5   1 188.718 256.526   2
  -6   5   0-2.39800 68.7690   2
  -6   5  -1 133.551 263.581   2
  -6   5  -2-2.38108 310.530   2
  -6   5  -3 1064.34 618.551   2
  -6   5  -4 311.855 322.696   2
  -6   5  -5 176.267 273.622   2
  -6   5  -6-89.4741 183.826   2
  -6   5  -7 845.586 539.365   2
   6   5   8 643.531 476.152   1
  -7  -4   8 81.9069 315.548   3
   7  -4   7 139.500 213.422   3
   7  -4   8 626.285 438.583   3
   7  -4   9-434.173 387.366   3
  -7  -3  11 543.208 477.843   3
  -7  -3  10-209.572 296.025   3
  -7  -3   9 384.431 306.051   3
  -7  -3   8 359.437 507.273   3
   7  -3   8 138.300 167.990   3
   7  -3   9 172.805 138.410   3
   7  -3  10-457.584 401.402   3
  -7  -2  13-759.207 561.373   3
  -7  -2  12 443.481 445.346   3
  -7  -2  11 310.573 377.556   3
  -7  -2  10-73.8375 176.659   3
  -7  -2   9 519.617 138.668   3
  -7  -2   8 883.723 554.540   3
  -7  -2  -4 875.681 445.190   2
  -7  -2  -5 356.287 308.315   2
  -7  -2  -6-321.588 263.750   2
  -7  -2  -7 299.685 355.995   2
  -7  -2  -8-182.404 218.304   2
  -7  -2  -9-48.9219 131.691   2
   7  -2  11 421.183 510.080   3
  -7  -1  15-0.75487 69.9875   3
  -7  -1  14-142.008 248.761   3
  -7  -1  13 255.286 304.193   3
  -7  -1  12 220.385 313.499   3
  -7  -1  11 31.4586 96.1239   3
  -7  -1  10 493.192 356.026   2
  -7  -1  10 425.037 385.638   3
  -7  -1   9 103.175 177.277   2
  -7  -1   9-823.167 519.918   3
  -7  -1   8 35.6249 123.223   2
  -7  -1   7 364.958 279.373   2
  -7  -1   6 550.144 416.949   2
  -7  -1   5 303.882 173.299   2
  -7  -1   4 330.589 250.684   2
  -7  -1   3-112.675 184.965   2
  -7  -1   2 130.685 184.191   2
  -7  -1   1 327.443 264.675   2
  -7  -1   0 511.182 328.480   2
  -7  -1  -1 313.622 249.545   2
  -7  -1  -2 490.331 249.855   2
  -7  -1  -3 261.736 232.180   2
  -7  -1  -4 759.944 429.011   2
  -7  -1  -5 93.7286 248.685   2
  -7  -1  -6 44.9692 113.763   2
  -7  -1  -7 455.377 360.726   2
  -7  -1  -8 549.686 440.977   2
  -7  -1  -9-115.423 309.298   2
  -7  -1 -10 222.683 120.763   2
  -7  -1 -11-28.5963 105.959   2
  -7   0  16 286.900 335.903   3
  -7   0  15 579.032 466.229   3
  -7   0  14-295.320 328.187   3
  -7   0  13 320.497 373.584   3
  -7   0  12-171.024 240.180   3
  -7   0  12-45.6031 166.596   2
  -7   0  11 669.472 502.878   3
  -7   0  11-368.146 327.289   2
  -7   0  10-168.099 210.733   2
  -7   0   9 398.217 451.722   2
  -7   0   8-408.092 336.645   2
  -7   0   7 4.02284 237.345   2
  -7   0   6 731.126 397.401   2
  -7   0   5 542.047 340.366   2
  -7   0   4 188.847 149.056   2
  -7   0   3-50.4520 119.860   2
  -7   0   2-111.006 221.906   2
  -7   0   1 1252.21 622.116   2
  -7   0   0 1399.98 625.023   2
  -7   0  -1 127.626 284.133   2
  -7   0  -2 96.7849 226.315   2
  -7   0  -3-65.2473 149.147   2
  -7   0  -4 206.673 265.326   2
  -7   0  -5 470.229 400.582   2
  -7   0  -6 647.840 369.464   2
  -7   0  -7 200.293 95.7137   2
  -7   0  -8 299.108 386.240   2
  -7   0  -9 323.699 305.742   2
  -7   0 -10 179.217 338.629   2
  -7   0 -11 213.275 196.756   2
  -7   0 -12-480.150 400.420   2
  -7   1  12 85.0578 179.620   2
  -7   1  11 512.331 521.303   2
  -7   1  10-131.731 199.702   2
  -7   1   9-159.508 223.791   2
  -7   1   8 316.807 302.451   2
  -7   1   7 259.128 283.453   2
  -7   1   6 255.639 155.304   2
  -7   1   5 213.796 235.910   2
  -7   1   4 391.447 395.686   2
  -7   1   3-332.931 284.258   2
  -7   1   2 7.36190 126.429   2
  -7   1   1 826.460 530.019   2
  -7   1   0 875.164 511.946   2
  -7   1  -1-134.581 153.945   2
  -7   1  -2 357.843 336.446   2
  -7   1  -3 292.130 262.313   2
  -7   1  -4 622.563 425.712   2
  -7   1  -5 131.521 209.974   2
  -7   1  -6 172.672 220.887   2
  -7   1  -7 1077.07 549.913   2
  -7   1  -8 471.866 370.107   2
  -7   1  -9 1.66080 60.8109   2
  -7   1 -10 628.840 439.590   2
  -7   1 -11 32.6061 353.803   2
  -7   1 -12-106.798 199.309   2
  -7   2  13-321.128 353.517   2
  -7   2  12-210.093 281.488   2
  -7   2  11-11.5907 145.180   2
  -7   2  10 303.128 306.823   2
  -7   2   9-241.541 441.908   2
  -7   2   8 88.6620 202.129   2
  -7   2   7-377.279 341.900   2
  -7   2   6 567.321 338.962   2
  -7   2   5 582.811 368.959   2
  -7   2   4 312.330 300.549   2
  -7   2   3 159.361 163.386   2
  -7   2   2-645.877 425.405   2
  -7   2   1-202.689 243.094   2
  -7   2   0 396.578 294.949   2
  -7   2  -1 461.916 212.298   2
  -7   2  -2 422.104 502.623   2
  -7   2  -3 576.005 382.140   2
  -7   2  -4 496.370 374.872   2
  -7   2  -5 235.852 314.485   2
  -7   2  -6-325.513 311.571   2
  -7   2  -7-18.8277 94.6685   2
  -7   2  -8-265.319 496.714   2
  -7   2  -9-11.8518 192.950   2
  -7   2 -10 438.219 385.369   2
  -7   3  11-270.004 326.001   2
  -7   3  10-243.998 307.944   2
  -7   3   9-332.594 348.965   2
  -7   3   8-260.515 304.215   2
  -7   3   7 844.852 534.872   2
  -7   3   6-76.3978 167.744   2
  -7   3   5 244.103 295.456   2
  -7   3   4 1085.73 616.854   2
  -7   3   3 565.729 611.659   2
  -7   3   2 164.132 429.363   2
  -7   3   1 1054.38 603.662   2
  -7   3   0 513.634 464.208   2
  -7   3  -1-153.428 112.898   2
  -7   3  -2 260.317 387.851   2
  -7   3  -3 815.630 502.023   2
  -7   3  -4 426.384 367.495   2
  -7   3  -5-13.4019 338.102   2
  -7   3  -6-791.693 505.036   2
  -7   3  -7-143.063 181.872   2
  -7   3  -8 425.849 381.917   2
  -7   3  -9 588.752 474.663   2
  -7   4   8-125.124 130.353   2
  -7   4   7-179.144 319.226   2
  -7   4   6-146.787 300.734   2
  -7   4   5 602.493 567.852   2
  -7   4   4 182.279 345.729   2
  -7   4   3 9.67215 564.927   2
  -7   4   2 231.059 177.533   2
  -7   4   1 468.880 319.206   2
  -7   4   0-532.328 424.630   2
  -7   4  -1-199.678 265.527   2
  -7   4  -2-61.8737 304.469   2
  -7   4  -3-235.092 288.377   2
  -7   4  -4-41.9950 132.327   2
  -7   4  -5-281.963 317.238   2
  -7   4  -6 152.321 238.200   2
  -8  -1   3 30.8883 205.289   2
  -8  -1   2 275.394 417.387   2
  -8  -1   1 410.591 293.272   2
  -8  -1   0 657.066 386.675   2
  -8  -1  -1 123.605 228.013   2
  -8  -1  -2 571.464 367.339   2
  -8  -1  -3 45.2006 119.129   2
  -8  -1  -4 166.034 81.7432   2
  -8  -1  -5-202.082 248.980   2
  -8  -1  -6 506.780 377.678   2
  -8  -1  -7-268.764 277.058   2
  -8  -1  -8 20.2847 224.800   2
  -8  -1  -9 371.526 178.962   2
  -8  -1 -10-102.161 193.972   2
  -8  -1 -11-242.378 291.780   2
  -8   0  13 727.012 503.363   2
  -8   0  12 400.566 370.914   2
  -8   0  11-396.931 359.177   2
  -8   0  10 277.680 297.999   2
  -8   0   9 91.6813 313.066   2
  -8   0   8 778.763 471.066   2
  -8   0   7-154.619 144.316   2
  -8   0   6 386.844 341.161   2
  -8   0   5-148.003 277.569   2
  -8   0   4 696.865 420.781   2
  -8   0   3-1.41668 68.9847   2
  -8   0   2-129.486 131.085   2
  -8   0   1-42.0277 260.498   2
  -8   0   0 909.520 496.448   2
  -8   0  -1 453.050 356.338   2
  -8   0  -2 267.422 400.094   2
  -8   0  -3 552.781 384.378   2
  -8   0  -4 277.282 187.345   2
  -8   0  -5 1190.79 574.773   2
  -8   0  -6 44.7959 124.207   2
  -8   0  -7-72.2687 372.629   2
  -8   0  -8-706.943 468.395   2
  -8   0  -9-78.1217 172.518   2
  -8   0 -10 10.5512 83.2092   2
  -8   1  13 373.191 359.711   2
  -8   1  12-634.512 487.094   2
  -8   1  11-713.588 502.362   2
  -8   1  10-346.731 347.518   2
  -8   1   9 977.075 569.352   2
  -8   1   8 1241.84 626.093   2
  -8   1   7 328.623 322.849   2
  -8   1   6 402.943 280.956   2
  -8   1   5-310.772 288.758   2
  -8   1   4 297.225 301.798   2
  -8   1   3 22.2701 100.419   2
  -8   1   2 597.947 443.119   2
  -8   1   1-379.413 333.254   2
  -8   1   0 561.654 359.814   2
  -8   1  -1-23.2768 268.028   2
  -8   1  -2 301.519 362.820   2
  -8   1  -3 182.001 359.077   2
  -8   1  -4-282.838 292.781   2
  -8   1  -5 540.668 419.188   2
  -8   1  -6 553.537 200.779   2
  -8   1  -7 335.075 412.187   2
  -8   1  -8 300.950 447.269   2
  -8   1  -9-450.566 395.624   2
  -8   2  10-119.932 225.768   2
  -8   2   9 1.34884 82.6432   2
  -8   2   8 871.599 553.075   2
  -8   2   7 472.783 406.010   2
  -8   2   6 1194.36 634.305   2
  -8   2   5 1035.01 709.463   2
  -8   2   4 18.8298 81.3863   2
  -8   2   3-656.066 464.155   2
  -8   2   2 189.898 178.471   2
  -8   2   1-5.83499 276.337   2
  -8   2   0 503.520 323.817   2
  -8   2  -1 661.805 458.530   2
  -8   2  -2 135.714 411.428   2
  -8   2  -3 694.898 472.937   2
  -8   2  -4 460.569 465.901   2
  -8   2  -5-34.1193 239.966   2
  -8   2  -6 124.572 213.804   2
  -8   2  -7 528.478 441.986   2
  -8   3   7 1154.63 777.229   2
  -8   3   6 274.445 502.105   2
  -8   3   5 864.959 699.826   2
  -8   3   4 463.607 415.245   2
  -8   3   3 23.3487 203.726   2
  -8   3   2-125.661 221.753   2
  -8   3   1-172.791 252.273   2
  -8   3   0-378.689 368.897   2
  -8   3  -1 383.134 525.786   2
  -8   3  -2 737.951 684.774   2
  -8   3  -3 380.767 368.185   2
  -8   3  -4 502.773 502.174   2
  -9   0   7 819.967 505.010   2
  -9   0   6 16.2761 377.342   2
  -9   0   5 44.8650 384.625   2
  -9   0   4-237.690 274.801   2
  -9   0   3 98.4186 119.690   2
  -9   0   2 111.040 216.511   2
  -9   0   1 180.809 306.165   2
  -9   0   0-198.787 250.791   2
  -9   0  -1 238.238 273.090   2
  -9   0  -2 387.823 442.841   2
  -9   0  -3-631.724 443.006   2
  -9   0  -4 254.624 440.391   2
  -9   0  -5-474.149 393.384   2
  -9   0  -6-4.85525 73.9626   2
  -9   1   9 565.350 460.973   2
  -9   1   8 153.039 202.829   2
  -9   1   7 1434.37 714.503   2
  -9   1   6 86.6958 331.807   2
  -9   1   5 513.647 425.387   2
  -9   1   4 269.536 313.782   2
  -9   1   3 125.589 358.254   2
  -9   1   2 147.691 220.666   2
  -9   1   1 414.046 349.933   2
  -9   1   0 904.797 586.782   2
  -9   1  -1 840.174 561.079   2
  -9   1  -2 110.788 373.487   2
  -9   1  -3 1644.34 741.130   2
  -9   1  -4-160.584 240.790   2
  -9   2   4 565.680 541.747   2
  -9   2   3 444.053 236.379   2
  -9   2   2-322.272 258.444   2
  -9   2   1 67.5908 374.874   2
  -9   2   0 321.237 395.154   2
   0   0   0    0.00    0.00   0
TITL wangyj_0425 in P2(1)
REM P2(1) (#4 in standard setting)
CELL 0.71073   7.322262   5.911244  16.223973  90.0000  93.7877  90.0000
ZERR    3.00   0.001273   0.000873   0.005217   0.0000   0.0249   0.0000
LATT -1
SYMM -x, y+1/2,-z
SFAC C H N O
UNIT 33.00 30.00 3.00 3.00
TREF
HKLF 4
END
;
_shelx_hkl_checksum              11690
_olex2_date_sample_data_collection 2017-04-26
_olex2_submission_special_instructions 'No special instructions were received'
loop_
_space_group_symop_operation_xyz
'x, y, z'
'-x, y+1/2, -z'
loop_
_atom_site_label
_atom_site_type_symbol
_atom_site_fract_x
_atom_site_fract_y
_atom_site_fract_z
_atom_site_U_iso_or_equiv
_atom_site_adp_type
_atom_site_occupancy
_atom_site_site_symmetry_order
_atom_site_calc_flag
_atom_site_refinement_flags_posn
_atom_site_refinement_flags_adp
S1 S 0.1784(8) 0.3270(9) 0.2387(3) 0.0888(19) Uani 1 1 d . .
O1 O 0.596(2) 0.206(2) 0.2353(9) 0.109(5) Uani 1 1 d D U
O2 O 0.226(2) 0.562(2) 0.2592(10) 0.120(6) Uani 1 1 d . .
O3 O -0.0008(16) 0.237(3) 0.2519(9) 0.113(6) Uani 1 1 d . .
C1 C 0.646(3) 0.148(3) 0.4562(14) 0.085(6) Uani 1 1 d . U
H1A H 0.588134 0.280819 0.470921 0.102 Uiso 1 1 calc R .
C2 C 0.752(3) 0.030(3) 0.5122(13) 0.072(6) Uani 1 1 d . .
H2 H 0.771302 0.089590 0.565125 0.087 Uiso 1 1 calc R .
C3 C 0.833(2) -0.175(4) 0.4952(12) 0.079(6) Uani 1 1 d . .
H3 H 0.900308 -0.256234 0.535934 0.095 Uiso 1 1 calc R .
C4 C 0.810(3) -0.252(4) 0.4154(14) 0.091(7) Uani 1 1 d . .
H4 H 0.870673 -0.382699 0.400604 0.109 Uiso 1 1 calc R .
C5 C 0.697(2) -0.139(3) 0.3557(12) 0.077(6) Uani 1 1 d . U
H5 H 0.670669 -0.200117 0.303519 0.093 Uiso 1 1 calc R .
C6 C 0.627(3) 0.067(3) 0.3773(14) 0.084(6) Uani 1 1 d . U
C7 C 0.515(3) 0.219(4) 0.3136(14) 0.100(7) Uani 1 1 d . U
H7 H 0.508947 0.375317 0.332936 0.119 Uiso 1 1 calc R .
C8 C 0.329(2) 0.122(3) 0.2979(12) 0.079(6) Uani 1 1 d . U
H8A H 0.277808 0.087757 0.350039 0.095 Uiso 1 1 calc R .
H8B H 0.336404 -0.017213 0.266840 0.095 Uiso 1 1 calc R .
C9 C 0.216(2) 0.286(4) 0.1332(11) 0.064(5) Uani 1 1 d . .
C10 C 0.290(2) 0.448(3) 0.0882(13) 0.065(5) Uani 1 1 d . .
H10 H 0.328473 0.582398 0.113534 0.078 Uiso 1 1 calc R .
C11 C 0.310(3) 0.419(3) 0.0060(15) 0.077(7) Uani 1 1 d . .
H11 H 0.366961 0.531878 -0.022870 0.092 Uiso 1 1 calc R .
C12 C 0.249(3) 0.229(4) -0.0356(13) 0.074(6) Uani 1 1 d . .
C13 C 0.176(2) 0.059(3) 0.0115(14) 0.070(6) Uani 1 1 d . .
H13 H 0.140370 -0.075291 -0.014548 0.083 Uiso 1 1 calc R .
C14 C 0.154(3) 0.080(3) 0.0938(13) 0.073(6) Uani 1 1 d . .
H14 H 0.100747 -0.034387 0.123284 0.088 Uiso 1 1 calc R .
C15 C 0.257(3) 0.194(4) -0.1271(11) 0.108(8) Uani 1 1 d . .
H15A H 0.267981 0.035029 -0.138402 0.163 Uiso 1 1 calc GR .
H15B H 0.361171 0.272202 -0.146018 0.163 Uiso 1 1 calc GR .
H15C H 0.147357 0.251359 -0.155163 0.163 Uiso 1 1 calc GR .
H1 H 0.752(8) 0.23(2) 0.243(7) 0.04(4) Uiso 1 1 d D .
loop_
_atom_site_aniso_label
_atom_site_aniso_U_11
_atom_site_aniso_U_22
_atom_site_aniso_U_33
_atom_site_aniso_U_23
_atom_site_aniso_U_13
_atom_site_aniso_U_12
S1 0.073(4) 0.118(5) 0.076(4) 0.005(4) 0.005(3) 0.027(4)
O1 0.097(8) 0.123(8) 0.106(9) 0.031(7) -0.004(7) 0.009(7)
O2 0.143(15) 0.079(9) 0.134(15) -0.020(10) -0.018(12) 0.023(11)
O3 0.046(8) 0.174(14) 0.121(13) 0.034(10) 0.013(8) 0.029(9)
C1 0.083(9) 0.083(9) 0.088(9) -0.001(7) 0.006(7) 0.002(7)
C2 0.075(15) 0.070(13) 0.073(15) -0.004(12) 0.016(12) -0.026(13)
C3 0.058(12) 0.112(17) 0.065(15) 0.038(16) -0.024(11) -0.004(14)
C4 0.073(14) 0.094(17) 0.105(19) 0.033(16) -0.008(14) -0.001(12)
C5 0.078(8) 0.078(8) 0.076(8) 0.002(7) 0.003(6) 0.005(7)
C6 0.085(9) 0.087(9) 0.079(9) 0.009(7) 0.000(7) 0.009(7)
C7 0.100(9) 0.100(9) 0.100(9) -0.005(7) 0.018(7) -0.004(7)
C8 0.070(8) 0.090(9) 0.076(8) -0.001(7) 0.001(6) -0.007(7)
C9 0.052(11) 0.072(14) 0.070(13) -0.007(13) 0.012(10) 0.011(11)
C10 0.070(14) 0.055(11) 0.069(15) -0.015(12) -0.001(12) -0.023(11)
C11 0.067(15) 0.043(12) 0.12(2) 0.012(14) 0.025(15) -0.002(11)
C12 0.063(13) 0.081(15) 0.079(17) 0.000(14) 0.016(13) 0.022(13)
C13 0.065(13) 0.063(13) 0.078(16) -0.021(13) -0.017(12) 0.003(12)
C14 0.075(14) 0.062(13) 0.083(17) 0.021(13) -0.002(13) 0.000(12)
C15 0.13(2) 0.145(18) 0.053(15) 0.003(14) -0.006(14) 0.012(17)
loop_
_atom_type_symbol
_atom_type_description
_atom_type_scat_dispersion_real
_atom_type_scat_dispersion_imag
_atom_type_scat_source
C C 0.0033 0.0016 'International Tables Vol C Tables 4.2.6.8 and 6.1.1.4'
H H 0.0000 0.0000 'International Tables Vol C Tables 4.2.6.8 and 6.1.1.4'
O O 0.0106 0.0060 'International Tables Vol C Tables 4.2.6.8 and 6.1.1.4'
S S 0.1246 0.1234 'International Tables Vol C Tables 4.2.6.8 and 6.1.1.4'
loop_
_geom_angle_atom_site_label_1
_geom_angle_atom_site_label_2
_geom_angle_atom_site_label_3
_geom_angle
O2 S1 C8 112.0(9)
O2 S1 C9 107.4(10)
O3 S1 O2 121.4(10)
O3 S1 C8 101.5(8)
O3 S1 C9 107.1(9)
C9 S1 C8 106.6(9)
C7 O1 H1 112(6)
C2 C1 H1A 121.0
C2 C1 C6 118(2)
C6 C1 H1A 121.0
C1 C2 H2 118.2
C1 C2 C3 124(2)
C3 C2 H2 118.2
C2 C3 H3 121.6
C4 C3 C2 116.7(18)
C4 C3 H3 121.6
C3 C4 H4 119.2
C3 C4 C5 122(2)
C5 C4 H4 119.2
C4 C5 H5 121.3
C6 C5 C4 117.4(19)
C6 C5 H5 121.3
C1 C6 C5 122(2)
C1 C6 C7 116.0(19)
C5 C6 C7 122(2)
O1 C7 C6 108.8(17)
O1 C7 H7 111.2
O1 C7 C8 105.0(18)
C6 C7 H7 111.2
C8 C7 C6 109.3(17)
C8 C7 H7 111.2
S1 C8 H8A 109.6
S1 C8 H8B 109.6
C7 C8 S1 110.2(14)
C7 C8 H8A 109.6
C7 C8 H8B 109.6
H8A C8 H8B 108.1
C10 C9 S1 121.6(17)
C10 C9 C14 119.3(17)
C14 C9 S1 118.9(17)
C9 C10 H10 119.4
C9 C10 C11 121.2(18)
C11 C10 H10 119.4
C10 C11 H11 118.9
C10 C11 C12 122(2)
C12 C11 H11 118.9
C11 C12 C13 117(2)
C11 C12 C15 124(2)
C13 C12 C15 119(2)
C12 C13 H13 118.4
C14 C13 C12 123.3(18)
C14 C13 H13 118.4
C9 C14 H14 121.3
C13 C14 C9 117.4(18)
C13 C14 H14 121.3
C12 C15 H15A 109.5
C12 C15 H15B 109.5
C12 C15 H15C 109.5
H15A C15 H15B 109.5
H15A C15 H15C 109.5
H15B C15 H15C 109.5
loop_
_geom_bond_atom_site_label_1
_geom_bond_atom_site_label_2
_geom_bond_distance
S1 O2 1.465(14)
S1 O3 1.444(13)
S1 C8 1.861(17)
S1 C9 1.768(18)
O1 C7 1.44(2)
O1 H1 1.15(6)
C1 H1A 0.9300
C1 C2 1.35(2)
C1 C6 1.37(2)
C2 H2 0.9300
C2 C3 1.39(2)
C3 H3 0.9300
C3 C4 1.37(3)
C4 H4 0.9300
C4 C5 1.40(2)
C5 H5 0.9300
C5 C6 1.38(2)
C6 C7 1.56(2)
C7 H7 0.9800
C7 C8 1.48(2)
C8 H8A 0.9700
C8 H8B 0.9700
C9 C10 1.34(2)
C9 C14 1.43(2)
C10 H10 0.9300
C10 C11 1.36(2)
C11 H11 0.9300
C11 C12 1.37(2)
C12 C13 1.39(2)
C12 C15 1.50(2)
C13 H13 0.9300
C13 C14 1.36(2)
C14 H14 0.9300
C15 H15A 0.9600
C15 H15B 0.9600
C15 H15C 0.9600
loop_
_geom_torsion_atom_site_label_1
_geom_torsion_atom_site_label_2
_geom_torsion_atom_site_label_3
_geom_torsion_atom_site_label_4
_geom_torsion
S1 C9 C10 C11 -176.7(15)
S1 C9 C14 C13 176.5(14)
O1 C7 C8 S1 -74.5(18)
O2 S1 C8 C7 -32.2(18)
O2 S1 C9 C10 5.0(18)
O2 S1 C9 C14 -170.8(13)
O3 S1 C8 C7 -163.1(15)
O3 S1 C9 C10 136.8(15)
O3 S1 C9 C14 -39.0(15)
C1 C2 C3 C4 3(3)
C1 C6 C7 O1 143.1(19)
C1 C6 C7 C8 -103(2)
C2 C1 C6 C5 6(3)
C2 C1 C6 C7 -175.8(17)
C2 C3 C4 C5 -5(3)
C3 C4 C5 C6 7(3)
C4 C5 C6 C1 -8(3)
C4 C5 C6 C7 174.3(17)
C5 C6 C7 O1 -39(3)
C5 C6 C7 C8 75(3)
C6 C1 C2 C3 -4(3)
C6 C7 C8 S1 168.9(14)
C8 S1 C9 C10 -115.2(15)
C8 S1 C9 C14 69.0(15)
C9 S1 C8 C7 85.0(17)
C9 C10 C11 C12 3(3)
C10 C9 C14 C13 1(2)
C10 C11 C12 C13 -4(3)
C10 C11 C12 C15 176.1(19)
C11 C12 C13 C14 4(3)
C12 C13 C14 C9 -2(3)
C14 C9 C10 C11 -1(3)
C15 C12 C13 C14 -176.4(18)
