#------------------------------------------------------------------------------
#$Date: 2017-07-01 11:43:35 +0300 (Sat, 01 Jul 2017) $
#$Revision: 198310 $
#$URL: file:///home/coder/svn-repositories/cod/cif/4/03/26/4032607.cif $
#------------------------------------------------------------------------------
#
# This file is available in the Crystallography Open Database (COD),
# http://www.crystallography.net/
#
# All data on this site have been placed in the public domain by the
# contributors.
#
data_4032607
loop_
_publ_author_name
'N.N. Golovnev'
'M.S. Molokeev'
'M.K. Lesnikov'
'S.N. Vereshchagin'
_publ_section_title
;
 Polymeric Lithium(I) Diaquabarbiturate: Crystal Structure
;
_journal_issue                   6
_journal_name_full               'Russian Journal of Inorganic Chemistry'
_journal_page_first              746
_journal_page_last               750
_journal_paper_doi               10.1134/S0036023617060092
_journal_volume                  62
_journal_year                    2017
_chemical_formula_moiety         'C4 H7 Li N2 O5'
_chemical_formula_sum            'C4 H7 Li N2 O5'
_chemical_formula_weight         170.06
_chemical_name_systematic
;
Catena-diaquabarbiturate lithium(I)
;
_space_group_crystal_system      monoclinic
_space_group_IT_number           14
_space_group_name_Hall           '-P 2ybc'
_space_group_name_H-M_alt        'P 1 21/c 1'
_symmetry_space_group_name_Hall  '-P 2ybc'
_symmetry_space_group_name_H-M   'P 1 21/c 1'
_atom_sites_solution_hydrogens   mixed
_audit_creation_method           SHELXL-2014/7
_cell_angle_alpha                90
_cell_angle_beta                 108.253(4)
_cell_angle_gamma                90
_cell_formula_units_Z            4
_cell_length_a                   6.4306(7)
_cell_length_b                   16.7199(14)
_cell_length_c                   7.1732(8)
_cell_measurement_reflns_used    6236
_cell_measurement_temperature    150(2)
_cell_measurement_theta_max      27.563
_cell_measurement_theta_min      2.436
_cell_volume                     732.45(13)
_computing_cell_refinement       'APEX2 (Bruker, 2003-2008)'
_computing_data_collection       'APEX2 (Bruker, 2003-2008)'
_computing_data_reduction        'SAINT (Bruker, 2009)'
_computing_molecular_graphics    'DIAMOND (Brandenburg, 2005)'
_computing_publication_material  'publCIF (Westrip, 2009)'
_computing_structure_refinement  'SHELXL-2014/7 (Sheldrick, 2014)'
_computing_structure_solution    'SHELXS-97 (Sheldrick, 2008)'
_diffrn_ambient_temperature      150(2)
_diffrn_measured_fraction_theta_full 1.000
_diffrn_measured_fraction_theta_max 0.998
_diffrn_measurement_device_type  'Bruker APEX-II CCD'
_diffrn_measurement_method       '\f and \w scans'
_diffrn_radiation_monochromator  graphite
_diffrn_radiation_source         'fine-focus sealed tube'
_diffrn_radiation_type           MoK\a
_diffrn_radiation_wavelength     0.71073
_diffrn_reflns_av_unetI/netI     0.0328
_diffrn_reflns_Laue_measured_fraction_full 1.000
_diffrn_reflns_Laue_measured_fraction_max 0.998
_diffrn_reflns_limit_h_max       5
_diffrn_reflns_limit_h_min       -8
_diffrn_reflns_limit_k_max       19
_diffrn_reflns_limit_k_min       -21
_diffrn_reflns_limit_l_max       9
_diffrn_reflns_limit_l_min       -8
_diffrn_reflns_number            6236
_diffrn_reflns_point_group_measured_fraction_full 1.000
_diffrn_reflns_point_group_measured_fraction_max 0.998
_diffrn_reflns_theta_full        25.000
_diffrn_reflns_theta_max         27.563
_diffrn_reflns_theta_min         2.436
_exptl_absorpt_coefficient_mu    0.139
_exptl_absorpt_correction_T_max  0.7459
_exptl_absorpt_correction_T_min  0.6281
_exptl_absorpt_correction_type   multi-scan
_exptl_absorpt_process_details   'SADABS (Bruker, 2004)'
_exptl_crystal_colour            colourless
_exptl_crystal_density_diffrn    1.542
_exptl_crystal_description       block
_exptl_crystal_F_000             352
_exptl_crystal_size_max          0.48
_exptl_crystal_size_mid          0.32
_exptl_crystal_size_min          0.26
_refine_diff_density_max         0.290
_refine_diff_density_min         -0.309
_refine_diff_density_rms         0.051
_refine_ls_extinction_coef       .
_refine_ls_extinction_method     none
_refine_ls_goodness_of_fit_ref   1.027
_refine_ls_hydrogen_treatment    mixed
_refine_ls_matrix_type           full
_refine_ls_number_parameters     121
_refine_ls_number_reflns         6236
_refine_ls_number_restraints     0
_refine_ls_restrained_S_all      1.027
_refine_ls_R_factor_all          0.0417
_refine_ls_R_factor_gt           0.0363
_refine_ls_shift/su_max          0.000
_refine_ls_shift/su_mean         0.000
_refine_ls_structure_factor_coef Fsqd
_refine_ls_weighting_details
'w=1/[\s^2^(Fo^2^)+(0.0496P)^2^+0.1448P] where P=(Fo^2^+2Fc^2^)/3'
_refine_ls_weighting_scheme      calc
_refine_ls_wR_factor_gt          0.0935
_refine_ls_wR_factor_ref         0.0974
_reflns_Friedel_coverage         0.000
_reflns_Friedel_fraction_full    .
_reflns_Friedel_fraction_max     .
_reflns_number_gt                5492
_reflns_number_total             6236
_reflns_threshold_expression     'I > 2\s(I)'
_cod_data_source_file            LiHbarH2O2.cif
_cod_data_source_block           z
_cod_database_code               4032607
_shelx_shelxl_version_number     2014/7
_shelx_space_group_comment
;
The symmetry employed for this shelxl refinement is uniquely defined
by the following loop, which should always be used as a source of
symmetry information in preference to the above space-group names.
They are only intended as comments.
;
_shelx_res_file
;

    z.res created by SHELXL-2014/7

TITL z in P2(1)/c
CELL 0.71073   6.4306  16.7199   7.1732  90.000 108.253  90.000
ZERR    4.00   0.0007   0.0014   0.0008   0.000   0.004   0.000
LATT  1
SYMM -X, 0.5+Y, 0.5-Z
SFAC C H LI N O
UNIT 16 28 4 8 20
TEMP 23.000

ACTA 50
HTAB
CONF
BOND $H

L.S. 4
BOND
FMAP 2
PLAN 20

WGHT    0.049600    0.144800
FVAR       0.89474
LI    3    0.738069    0.415810    0.510267    11.00000    0.01626    0.01537 =
         0.02544    0.00066    0.00220    0.00086
N1    4   -0.053060    0.257636    0.100111    11.00000    0.01045    0.01403 =
         0.02028   -0.00163    0.00025   -0.00088
AFIX  43
H1    2   -0.184487    0.244246    0.033546    11.00000   -1.20000
AFIX   0
O1    5   -0.148780    0.388804    0.059654    11.00000    0.02100    0.01845 =
         0.02221    0.00156    0.00286    0.00745
C2    1   -0.006666    0.336448    0.126584    11.00000    0.01558    0.01599 =
         0.01427   -0.00038    0.00400    0.00163
N3    4    0.202836    0.355161    0.231222    11.00000    0.01672    0.00913 =
         0.02136   -0.00140    0.00225   -0.00098
AFIX  43
H3    2    0.235965    0.404999    0.249664    11.00000   -1.20000
AFIX   0
C4    1    0.368190    0.299490    0.310962    11.00000    0.01386    0.01643 =
         0.01606   -0.00004    0.00339   -0.00031
O2    5    0.555567    0.326035    0.403002    11.00000    0.01350    0.01741 =
         0.02880   -0.00093   -0.00085   -0.00404
C5    1    0.309851    0.218946    0.280922    11.00000    0.01265    0.01253 =
         0.02066    0.00077    0.00227    0.00106
AFIX  43
H5    2    0.414304    0.179724    0.333546    11.00000   -1.20000
AFIX   0
C6    1    0.098312    0.196539    0.173703    11.00000    0.01487    0.01359 =
         0.01664   -0.00022    0.00528    0.00064
O3    5    0.027220    0.125838    0.135680    11.00000    0.01390    0.01208 =
         0.03248   -0.00107    0.00182   -0.00062
O1W   5    0.684896    0.475422    0.724390    11.00000    0.01600    0.01797 =
         0.02262    0.00358    0.00311    0.00433
H11   2    0.546833    0.482414    0.722793    11.00000   -1.50000
H12   2    0.754963    0.446252    0.831358    11.00000   -1.50000
O2W   5    0.735983    0.492480    0.303709    11.00000    0.01802    0.01353 =
         0.02524   -0.00228    0.00729   -0.00175
H21   2    0.773395    0.464632    0.221684    11.00000   -1.50000
H22   2    0.813168    0.539199    0.316365    11.00000   -1.50000
HKLF 5

REM  z in P2(1)/c
REM R1 =  0.0363 for    5492 Fo > 4sig(Fo)  and  0.0417 for all    6236 data
REM    121 parameters refined using      0 restraints

END

WGHT      0.0453      0.1603

REM Instructions for potential hydrogen bonds
EQIV $1 x-1, -y+1/2, z-1/2
HTAB N1 O2_$1
EQIV $2 -x+1, -y+1, -z+1
HTAB N3 O1W_$2
HTAB O1W O2W_$2
EQIV $3 -x+1, y+1/2, -z+1/2
HTAB O2W O3_$3

REM Highest difference peak  0.290,  deepest hole -0.309,  1-sigma level  0.051
Q1    1   0.3389  0.2574  0.2624  11.00000  0.05    0.29
Q2    1   0.1921  0.2068  0.2737  11.00000  0.05    0.27
Q3    1   0.2282  0.2095  0.1985  11.00000  0.05    0.24
Q4    1   0.2690  0.3240  0.2745  11.00000  0.05    0.21
Q5    1   0.3490  0.2053  0.3109  11.00000  0.05    0.19
Q6    1   0.0367  0.2283  0.1475  11.00000  0.05    0.19
Q7    1  -0.0959  0.4339  0.0628  11.00000  0.05    0.18
Q8    1   0.0867  0.3428  0.2204  11.00000  0.05    0.17
Q9    1  -0.1210  0.1241  0.0509  11.00000  0.05    0.17
Q10   1   0.1253  0.3411  0.1398  11.00000  0.05    0.17
Q11   1  -0.0053  0.2956  0.0748  11.00000  0.05    0.16
Q12   1   0.6873  0.4379  0.6216  11.00000  0.05    0.16
Q13   1   0.7255  0.5013  0.6180  11.00000  0.05    0.16
Q14   1   0.1561  0.3483  0.3578  11.00000  0.05    0.15
Q15   1  -0.0398  0.2971  0.1642  11.00000  0.05    0.14
Q16   1   0.8447  0.4644  0.4123  11.00000  0.05    0.14
Q17   1   0.6302  0.3711  0.4123  11.00000  0.05    0.14
Q18   1  -0.2814  0.3776 -0.0320  11.00000  0.05    0.14
Q19   1   0.6955  0.4695  0.3972  11.00000  0.05    0.13
Q20   1   0.5836  0.4181  0.6948  11.00000  0.05    0.13
;
_shelx_res_checksum              15116
_shelx_hkl_file
;
   1   0   0 879.588 18.4312   1
  -1   0   0 882.354 17.8848   2
  -1   0   0 871.681 18.3291   1
  -2   0   0 67.6924 2.05381   2
   2   0   0 67.4879 2.10044   1
  -2   0   0 69.6325 2.11301   1
  -3   0   0 442.553 9.76127   2
   3   0   0 393.205 9.61663   2
  -3   0   0 447.280 10.0309   1
   4   0   0 173.097 5.06684   1
  -4   0   0 167.010 4.90560   2
  -4   0   0 176.203 5.09345   1
  -5   0   0 0.89626 0.48478   1
  -5   0   0 0.21123 0.43972   2
  -6   0   0 8.69245 1.31381   2
  -6   0   0 9.23829 1.45345   1
  -7   0   0 40.5347 2.69881   2
  -7   0   0 33.8077 2.54974   1
   0  -1   0 -0.8267 0.02695   2
   0  -1   0 -0.8849 0.01458   1
   0  -1   0 -0.8266 0.02430   1
   0   1   0 -0.8950 0.01214   1
   0   1   0 -0.8829 0.01085   2
   0   1   0 -0.7796 0.03203   1
   1  -1   0 200.689 4.36292   2
   1  -1   0 198.430 4.47525   1
  -1  -1   0 197.164 4.58425   1
  -1  -1   0 206.628 4.49749   2
   1   1   0 202.188 4.47990   2
  -1   1   0 197.364 4.47959   1
  -1   1   0 194.211 4.35848   2
  -2  -1   0 43.8209 1.55408   2
  -2  -1   0 44.9720 1.61463   1
   2  -1   0 42.8579 1.51168   1
   2   1   0 47.4973 1.64320   1
   2   1   0 37.2778 1.47291   2
  -2   1   0 45.3717 1.53933   1
  -2   1   0 45.4318 1.49783   2
   3  -1   0 95.8862 2.91353   1
  -3  -1   0 87.7658 2.92748   1
  -3  -1   0 90.6919 2.88870   2
   3  -1   0 97.8322 2.83384   2
  -3   1   0 91.5765 2.88477   1
  -3   1   0 89.0912 2.78622   2
   3   1   0 83.6960 2.90381   1
   3   1   0 88.2170 2.84864   2
  -4  -1   0 87.9408 3.21842   1
   4  -1   0 93.1272 3.21117   1
  -4  -1   0 83.5642 3.07600   2
  -4   1   0 84.2391 3.10366   1
   4   1   0 94.7194 3.61899   1
  -4   1   0 82.8302 2.99115   2
  -5  -1   0 82.5445 3.31512   2
  -5  -1   0 82.7414 3.42483   1
  -5   1   0 81.1388 3.30610   1
  -5   1   0 82.6239 3.24754   2
  -6  -1   0 35.5008 2.35107   2
  -6  -1   0 42.7019 2.61563   1
  -6   1   0 38.8237 2.41678   1
  -6   1   0 40.5393 2.38838   2
  -7  -1   0 11.1922 1.80229   2
  -7  -1   0 10.6046 1.75003   1
  -7   1   0 11.3401 1.77648   1
  -7   1   0 10.7129 1.66880   2
   0  -2   0 597.281 12.2551   1
   0  -2   0 585.909 12.2321   1
   0  -2   0 592.887 11.9372   2
   0  -2   0 586.537 11.9024   2
   0   2   0 578.795 11.9313   2
  -1  -2   0 220.801 4.86702   2
  -1  -2   0 214.026 4.97852   1
   1  -2   0 219.804 4.76726   1
   1  -2   0 217.430 4.63185   2
  -1   2   0 215.504 4.75529   1
   1   2   0 219.141 4.86374   2
  -1   2   0 214.463 4.63745   2
   1   2   0 215.009 4.97401   1
   2  -2   0 1785.56 35.9419   2
  -2  -2   0 1739.01 37.2109   1
  -2  -2   0 1730.05 36.0231   2
   2  -2   0 1767.63 36.7016   1
  -2   2   0 1766.30 35.8110   2
  -2   2   0 1735.24 37.2005   1
   2   2   0 1810.08 36.9908   1
   2   2   0 1768.76 36.0540   2
   3  -2   0 3.90601 0.56944   2
  -3  -2   0 3.27106 0.60940   1
  -3  -2   0 3.36995 0.62427   2
   3  -2   0 3.12856 0.53375   1
   3   2   0 4.80243 0.69586   1
  -3   2   0 3.00130 0.51428   2
  -3   2   0 3.50198 0.56783   1
   3   2   0 2.60966 0.52012   2
  -4  -2   0 89.5391 3.24232   2
  -4  -2   0 98.5911 3.44322   1
   4  -2   0 93.2098 3.20687   1
  -4   2   0 88.9607 3.15396   1
  -4   2   0 89.8167 3.07133   2
  -5  -2   0 40.3772 2.26017   2
  -5  -2   0 40.9672 2.33021   1
  -5   2   0 40.0132 2.16842   1
  -5   2   0 41.4408 2.15611   2
  -6  -2   0 -0.1290 0.46112   2
  -6  -2   0 0.87181 0.68197   1
  -6   2   0 1.06920 0.55521   2
  -6   2   0 0.81979 0.60545   1
  -7  -2   0 33.1613 2.56242   1
  -7  -2   0 33.2399 2.48417   2
  -7   2   0 26.6224 2.62154   1
  -7   2   0 27.6633 2.24342   2
   0  -3   0 -0.7998 0.15314   1
   0  -3   0 -1.1972 0.11881   2
   0  -3   0 -0.8658 0.13661   1
   0  -3   0 -1.0319 0.12538   2
   0   3   0 -0.9780 0.13833   2
  -1  -3   0 918.838 18.8464   2
   1  -3   0 916.124 18.5727   2
  -1  -3   0 907.269 19.3185   1
   1  -3   0 912.242 19.0322   1
  -1   3   0 905.513 18.6067   2
  -1   3   0 944.133 19.0939   1
   1   3   0 908.897 18.8320   2
  -2  -3   0 191.361 4.83433   2
  -2  -3   0 196.252 4.97496   1
   2  -3   0 203.928 4.56684   2
   2  -3   0 200.262 4.67447   1
   2   3   0 200.503 4.87359   2
  -2   3   0 192.733 4.54618   2
  -2   3   0 193.600 4.65671   1
   3  -3   0 94.1020 2.72585   2
  -3  -3   0 87.3111 3.02764   1
   3  -3   0 94.8758 2.82509   1
  -3  -3   0 88.5856 2.95901   2
  -3   3   0 91.5064 2.79451   1
  -3   3   0 88.8220 2.72173   2
   3   3   0 94.1732 3.09063   1
   3   3   0 91.6288 2.98060   2
  -4  -3   0 4.80958 0.89164   1
  -4  -3   0 4.63598 0.80741   2
  -4   3   0 5.40058 0.83767   1
  -4   3   0 4.09378 0.69259   2
  -5  -3   0 214.980 6.36548   2
  -5  -3   0 211.925 6.50807   1
   5  -3   0 215.992 6.17613   1
  -5   3   0 199.857 5.92197   2
  -5   3   0 215.959 6.18117   1
  -6  -3   0 173.402 5.82142   2
  -6  -3   0 167.512 5.98533   1
  -6   3   0 169.670 5.60153   1
  -6   3   0 162.299 5.45048   2
  -7  -3   0 21.9488 2.38864   2
  -7  -3   0 26.0839 2.75121   1
  -7   3   0 26.3677 2.09391   2
   0  -4   0 5.65868 0.35961   2
   0  -4   0 5.74088 0.38417   1
   0  -4   0 6.26599 0.36774   2
   0  -4   0 5.12266 0.36383   1
   1  -4   0 709.530 14.8766   1
  -1  -4   0 720.725 15.3275   1
   1  -4   0 718.865 14.4760   2
  -1  -4   0 701.994 14.9097   2
   1   4   0 740.347 14.9501   2
  -1   4   0 709.720 14.8680   1
  -1   4   0 709.732 14.6220   2
   2  -4   0 613.965 13.0030   1
  -2  -4   0 609.575 13.4739   1
  -2  -4   0 623.909 13.1493   2
   2  -4   0 612.477 12.6530   2
   2   4   0 625.442 13.1507   2
  -2   4   0 599.608 12.9799   1
   2   4   0 554.500 13.3931   1
  -2   4   0 607.694 12.6935   2
  -3  -4   0 532.407 12.2811   2
   3  -4   0 546.451 12.1485   1
   3  -4   0 547.307 11.8025   2
  -3  -4   0 542.256 12.6344   1
   3   4   0 560.272 12.3435   2
  -3   4   0 526.598 11.8400   2
   3   4   0 580.591 13.1764   1
  -3   4   0 524.779 12.1072   1
  -4  -4   0 1.26344 0.54299   2
   4  -4   0 1.62463 0.51981   1
  -4  -4   0 1.89528 0.58269   1
  -4   4   0 0.71783 0.37771   2
  -4   4   0 0.88815 0.39210   1
   5  -4   0 342.657 8.87973   1
  -5  -4   0 349.196 9.44228   1
  -5  -4   0 334.444 9.10513   2
  -5   4   0 354.707 8.90773   1
  -5   4   0 334.203 8.66883   2
  -6  -4   0 49.2961 2.85727   2
  -6  -4   0 54.1386 3.08109   1
  -6   4   0 48.5229 2.61549   1
  -6   4   0 44.8539 2.48626   2
  -7  -4   0 16.7765 2.26314   1
  -7  -4   0 17.0270 2.22624   2
  -7   4   0 15.5262 1.92465   2
   0  -5   0 -0.0697 0.13911   2
   0  -5   0 0.30811 0.16969   1
   0  -5   0 0.18250 0.15677   1
   0  -5   0 0.29176 0.15328   2
  -1  -5   0 511.075 10.9218   2
  -1  -5   0 507.118 11.2236   1
   1  -5   0 505.128 10.7256   1
   1  -5   0 514.955 10.4011   2
   1   5   0 518.603 10.9468   2
  -1   5   0 510.690 10.7098   1
  -1   5   0 506.632 10.4673   2
   1   5   0 518.305 11.2195   1
  -2  -5   0 166.455 4.48909   1
  -2  -5   0 165.478 4.36351   2
   2  -5   0 172.187 4.00655   1
   2  -5   0 155.868 3.80496   2
   2   5   0 167.765 4.38286   2
   2   5   0 176.551 4.53597   1
  -2   5   0 165.092 3.89038   2
  -2   5   0 172.148 3.99653   1
  -3  -5   0 43.3621 1.98883   1
   3  -5   0 42.6745 1.60929   1
   3  -5   0 45.7008 1.57067   2
  -3  -5   0 36.9460 1.80675   2
  -3   5   0 40.6226 1.57476   1
   3   5   0 38.6000 1.85836   2
  -3   5   0 40.1401 1.54559   2
  -4  -5   0 171.056 5.06030   2
  -4  -5   0 155.924 5.04449   1
   4  -5   0 163.897 4.60870   1
  -4   5   0 164.482 4.59104   1
  -4   5   0 154.306 4.45064   2
  -5  -5   0 46.8360 2.57153   2
   5  -5   0 48.8460 2.33850   1
  -5  -5   0 50.7069 2.74027   1
  -5   5   0 49.9321 2.29157   2
  -5   5   0 53.2226 2.40164   1
  -6  -5   0 111.207 4.53945   2
  -6  -5   0 107.609 4.60973   1
  -6   5   0 100.108 3.94887   2
  -6   5   0 117.012 4.20856   1
  -7  -5   0 3.78161 1.20726   2
  -7  -5   0 4.28132 1.29101   1
  -7   5   0 3.44178 0.97946   2
   0  -6   0 1158.15 23.2279   2
   0  -6   0 1152.12 23.2223   2
   0  -6   0 1145.43 23.8395   1
   0  -6   0 1122.64 23.8334   1
   1  -6   0 390.288 8.48356   1
   1  -6   0 398.203 8.18816   2
  -1  -6   0 417.617 8.81452   2
  -1  -6   0 398.936 9.03286   1
   1   6   0 406.094 8.79252   2
  -1   6   0 393.099 8.45508   1
  -1   6   0 389.053 8.28656   2
   1   6   0 417.242 9.06599   1
  -2  -6   0 2.89423 0.54096   2
  -2  -6   0 2.87884 0.54938   1
   2  -6   0 3.44691 0.40508   1
   2  -6   0 3.27797 0.35490   2
   2   6   0 2.70013 0.52692   2
  -2   6   0 4.09827 0.43280   2
  -2   6   0 3.59108 0.39436   1
  -3  -6   0 8.62920 1.02171   2
   3  -6   0 8.13620 0.75127   1
  -3  -6   0 7.50767 0.96464   1
   3  -6   0 7.30673 0.60472   2
   3   6   0 9.24778 1.15983   2
  -3   6   0 8.93306 0.69306   1
  -3   6   0 7.49135 0.73000   2
  -4  -6   0 79.7682 3.27526   1
  -4  -6   0 80.9956 3.21578   2
   4  -6   0 83.3523 2.80889   1
  -4   6   0 77.3995 2.70203   2
  -4   6   0 86.3613 2.82831   1
  -5  -6   0 18.3363 1.89496   1
  -5  -6   0 16.0099 1.74990   2
  -5   6   0 18.9449 1.38902   2
  -5   6   0 18.3514 1.40248   1
  -6  -6   0 -0.3297 0.55791   2
  -6  -6   0 0.49422 0.66155   1
  -6   6   0 1.04481 0.54703   2
  -7  -6   0 21.0646 2.57999   1
  -7  -6   0 19.4807 2.39841   2
  -7   6   0 19.2139 2.08048   2
   0  -7   0 1.02595 0.22914   2
   0  -7   0 1.36928 0.27668   1
   0  -7   0 1.14931 0.23552   2
   0  -7   0 1.24045 0.26104   1
   1  -7   0 0.33049 0.12881   2
   1  -7   0 0.50787 0.17351   1
  -1  -7   0 0.90548 0.34204   1
  -1  -7   0 0.26807 0.27545   1
  -1  -7   0 0.43053 0.27904   2
   1   7   0 0.48124 0.30189   1
  -1   7   0 0.59926 0.18564   2
  -1   7   0 0.26759 0.14390   1
  -2  -7   0 786.332 17.5723   1
  -2  -7   0 798.676 17.1249   2
   2  -7   0 798.352 16.7754   1
   2   7   0 806.019 17.1636   2
  -2   7   0 781.822 16.3817   2
  -2   7   0 805.792 16.7381   1
  -3  -7   0 59.7917 2.51012   1
   3  -7   0 58.4571 1.93864   1
   3  -7   0 60.5772 1.83162   2
  -3  -7   0 63.2966 2.47521   2
  -3   7   0 57.4472 1.91272   2
  -3   7   0 58.4052 1.92820   1
  -4  -7   0 1.07409 0.54205   2
   4  -7   0 0.76989 0.40715   1
  -4  -7   0 1.55455 0.63804   1
  -4   7   0 1.43773 0.44149   2
  -4   7   0 0.84380 0.38550   1
  -5  -7   0 77.0811 3.46702   2
  -5  -7   0 77.8953 3.58947   1
  -5   7   0 75.7983 2.91437   1
  -5   7   0 78.2188 2.92252   2
  -6  -7   0 19.6238 2.14579   2
  -6  -7   0 19.8680 2.25866   1
  -6   7   0 20.9470 1.62232   2
  -7  -7   0 53.5454 3.52388   1
  -7  -7   0 53.5459 3.41684   2
  -7   7   0 53.3492 2.86815   2
   0  -8   0 602.713 12.5848   2
   0  -8   0 597.892 12.9600   1
   0  -8   0 611.762 12.9768   1
  -1  -8   0 818.402 17.4892   2
  -1  -8   0 848.847 17.5115   2
   1  -8   0 854.775 17.3933   1
  -1  -8   0 810.868 17.9732   1
  -1  -8   0 817.245 17.9267   1
   1   8   0 885.361 18.0765   1
  -1   8   0 799.725 17.2744   1
  -1   8   0 813.455 16.9461   2
  -2  -8   0 90.5011 2.99621   1
   2  -8   0 92.9188 2.31997   1
  -2  -8   0 90.0731 2.90066   2
   2  -8   0 80.5270 2.04853   2
  -2   8   0 92.0345 2.25731   1
   2   8   0 91.6171 2.91524   2
  -2   8   0 93.5368 2.28791   2
   3  -8   0 24.0081 0.97358   2
  -3  -8   0 21.5765 1.50160   1
  -3  -8   0 22.2572 1.45137   2
   3  -8   0 23.9110 1.08997   1
  -3   8   0 24.5305 1.09185   2
  -3   8   0 24.8799 1.07683   1
  -4  -8   0 133.320 4.45697   2
  -4  -8   0 124.312 4.47808   1
   4  -8   0 124.636 3.70438   1
  -4   8   0 126.871 3.67905   2
  -4   8   0 131.670 3.72995   1
  -5  -8   0 2.04182 0.84336   1
  -5  -8   0 4.37327 1.06164   2
  -5   8   0 3.56427 0.71103   2
  -5   8   0 2.81450 0.69118   1
  -6  -8   0 19.6826 2.31076   1
  -6  -8   0 20.1878 2.21279   2
  -6   8   0 20.3816 1.58574   2
  -7  -8   0 1.43348 0.98678   2
  -7  -8   0 3.81195 1.25642   1
  -7   8   0 1.63620 0.74771   2
   0  -9   0 0.41019 0.23381   1
   0  -9   0 0.73850 0.24294   2
   0  -9   0 0.60022 0.22746   2
   0  -9   0 0.65765 0.25468   1
  -1  -9   0 167.856 4.26522   2
   1  -9   0 165.443 3.84834   1
  -1  -9   0 167.133 4.39443   1
  -1  -9   0 167.117 4.28095   2
   1  -9   0 163.926 3.82920   1
  -1  -9   0 161.930 4.39493   1
  -1   9   0 161.236 3.76372   2
   1   9   0 182.319 4.73852   1
  -2  -9   0 46.5904 1.91026   2
   2  -9   0 41.6654 1.28794   1
  -2  -9   0 42.7536 1.92860   1
  -2   9   0 43.6980 1.30960   2
  -2   9   0 42.7092 1.22890   1
   3  -9   0 39.5639 1.41919   1
  -3  -9   0 37.6982 1.94462   2
   3  -9   0 38.5671 1.22895   2
  -3  -9   0 41.2957 2.10746   1
  -3   9   0 37.6107 1.35578   1
  -3   9   0 39.6298 1.43001   2
  -4  -9   0 248.844 7.26432   1
  -4  -9   0 251.120 7.08962   2
   4  -9   0 246.500 6.18488   1
  -4   9   0 249.485 6.14550   1
  -4   9   0 245.420 6.09231   2
  -5  -9   0 31.3429 2.21388   2
  -5  -9   0 31.7600 2.30011   1
  -5   9   0 32.3369 1.73443   2
  -6  -9   0 4.60356 1.30893   1
  -6  -9   0 7.65455 1.44706   2
  -6   9   0 6.60258 1.10278   2
  -7  -9   0 3.50413 1.29104   1
  -7  -9   0 5.43403 1.40388   2
  -7   9   0 5.40702 1.11778   2
   0 -10   0 112.751 3.10967   1
   0 -10   0 123.647 3.00493   2
   0 -10   0 118.082 3.13719   1
   0 -10   0 118.525 2.99313   2
   1 -10   0 87.1156 2.22224   1
  -1 -10   0 87.5354 2.75092   1
  -1 -10   0 87.4421 2.74538   1
   1 -10   0 82.6758 2.19031   1
  -1 -10   0 85.2560 2.61522   2
  -1  10   0 84.6797 2.18566   2
   2 -10   0 168.820 3.90543   1
  -2 -10   0 170.459 4.71767   2
  -2 -10   0 165.645 4.84024   1
  -2  10   0 174.108 3.89601   2
  -3 -10   0 0.46975 0.45157   1
   3 -10   0 0.41332 0.24434   1
  -3 -10   0 0.42536 0.42467   2
  -3  10   0 0.68478 0.26942   2
  -3  10   0 0.78011 0.25733   1
  -4 -10   0 84.4394 3.59714   1
   4 -10   0 85.8880 2.68579   1
  -4 -10   0 89.5811 3.58238   2
  -4  10   0 81.7870 2.64312   2
  -4  10   0 83.0344 2.59980   1
  -5 -10   0 99.1352 4.12131   2
  -5 -10   0 94.6954 4.19313   1
  -5  10   0 91.8346 3.16128   2
  -6 -10   0 16.9721 2.08024   2
  -6 -10   0 17.4216 2.35568   1
  -6  10   0 15.7095 1.58578   2
  -7 -10   0 14.6961 2.27713   2
  -7 -10   0 12.4220 2.19694   1
  -7  10   0 12.5304 1.60908   2
   0 -11   0 0.61809 0.29216   1
   0 -11   0 0.77332 0.30510   1
   0 -11   0 0.29864 0.23607   2
   0 -11   0 0.89473 0.25939   2
  -1 -11   0 34.7519 1.62078   1
  -1 -11   0 39.0767 1.68153   1
  -1 -11   0 37.3416 1.56713   2
   1 -11   0 37.8274 1.23094   1
   1 -11   0 38.9096 1.23615   1
  -2 -11   0 2.36058 0.59092   2
  -2 -11   0 1.00110 0.45580   1
  -2 -11   0 3.11066 0.68104   1
   2 -11   0 2.71723 0.31688   1
  -2  11   0 1.94625 0.30249   2
  -3 -11   0 265.564 7.14905   2
  -3 -11   0 267.497 7.37729   1
   3 -11   0 264.643 6.03691   1
  -3  11   0 268.990 5.90342   1
  -3  11   0 261.664 5.99748   2
  -4 -11   0 54.9694 2.77037   2
  -4 -11   0 50.3170 2.72931   1
  -4  11   0 53.2443 1.93422   2
  -5 -11   0 82.1462 3.94475   1
  -5 -11   0 79.0655 3.75929   2
  -5  11   0 84.1718 2.88631   2
  -6 -11   0 42.1621 3.02882   1
  -6 -11   0 39.0671 2.80811   2
  -6  11   0 40.6700 2.11528   2
   0 -12   0 1.14230 0.35724   1
   0 -12   0 1.63184 0.35416   2
   0 -12   0 1.81442 0.40144   1
  -1 -12   0 23.7199 1.24825   2
  -1 -12   0 23.1080 1.31716   1
   1 -12   0 23.4118 0.93339   1
  -1 -12   0 22.1393 1.29351   1
   1 -12   0 23.3334 0.93564   1
  -2 -12   0 5.53277 0.92937   1
  -2 -12   0 6.10206 0.91908   1
  -2 -12   0 4.93201 0.80006   2
  -2  12   0 5.08198 0.45833   2
  -3 -12   0 7.09418 1.04334   2
  -3 -12   0 6.27414 1.06177   1
   3 -12   0 6.19023 0.48025   1
  -3  12   0 6.38564 0.58950   2
  -4 -12   0 149.401 5.23845   1
  -4 -12   0 150.882 5.08859   2
  -4  12   0 140.407 3.81999   2
  -5 -12   0 1.09998 0.71972   1
  -5 -12   0 -0.1731 0.58513   2
  -5  12   0 0.72187 0.38494   2
  -6 -12   0 73.6746 4.08028   1
  -6 -12   0 63.5174 3.65108   2
  -6  12   0 67.3946 2.75932   2
   0 -13   0 -0.0978 0.25407   1
   0 -13   0 0.06039 0.25953   1
   0 -13   0 0.24514 0.23257   2
  -1 -13   0 593.721 13.8216   1
  -1 -13   0 617.741 13.4193   2
   1 -13   0 605.567 13.0689   1
   1 -13   0 609.986 13.0753   1
  -1 -13   0 623.741 13.8996   1
  -2 -13   0 10.8981 1.20714   2
  -2 -13   0 16.6253 1.59650   1
  -2 -13   0 10.5553 1.19648   1
  -2  13   0 10.3290 0.57812   2
  -3 -13   0 22.2900 1.64142   2
  -3 -13   0 19.1739 1.57002   1
  -3  13   0 18.9917 0.85053   2
  -4 -13   0 44.4965 2.53878   2
  -4 -13   0 37.9822 2.45853   1
  -4  13   0 42.5836 1.58022   2
  -5 -13   0 46.3714 2.89321   2
  -5 -13   0 47.0060 2.98382   1
  -5  13   0 45.3634 1.88798   2
  -6 -13   0 -0.0421 0.72055   2
  -6 -13   0 -0.1755 0.74987   1
  -6  13   0 0.09486 0.40587   2
   0 -14   0 11.0224 0.85875   1
   0 -14   0 10.5899 0.83945   1
   0 -14   0 12.3452 0.76973   2
  -1 -14   0 5.76893 0.85921   1
   1 -14   0 4.48023 0.48445   1
  -1 -14   0 3.93352 0.69716   1
   1 -14   0 4.88712 0.52652   1
  -1 -14   0 4.32935 0.69240   2
  -2 -14   0 194.880 5.71779   1
  -2 -14   0 198.390 5.53449   2
  -3 -14   0 11.2024 1.36621   2
  -3 -14   0 13.5209 1.60068   1
  -4 -14   0 30.7671 2.18086   2
  -4 -14   0 29.2101 2.19885   1
  -4  14   0 31.6249 1.25675   2
  -5 -14   0 0.64619 0.70055   2
  -5 -14   0 1.32193 0.83254   1
  -5  14   0 0.40965 0.36500   2
  -6 -14   0 2.29591 1.09180   2
  -6 -14   0 0.68410 0.90281   1
  -6  14   0 1.79158 0.60516   2
   0 -15   0 0.63170 0.37240   1
   0 -15   0 0.88914 0.38360   1
   0 -15   0 0.96493 0.37065   2
  -1 -15   0 11.5810 1.15235   1
   1 -15   0 9.33321 0.62982   1
  -1 -15   0 9.61032 0.99166   2
   1 -15   0 8.20427 0.62998   1
  -2 -15   0 23.7781 1.63457   1
  -2 -15   0 23.9906 1.57849   2
  -3 -15   0 27.8601 1.87816   2
  -3 -15   0 26.9785 1.93649   1
  -4 -15   0 61.8553 3.16407   2
  -4 -15   0 58.8483 3.19042   1
  -5 -15   0 8.51423 1.58505   1
  -5 -15   0 11.3449 1.73436   2
   0 -16   0 12.2322 0.94515   1
  -1 -16   0 51.1046 2.23628   1
   1 -16   0 49.8740 1.59940   1
  -2 -16   0 72.9771 3.06283   1
  -3 -16   0 3.51561 0.91460   1
  -4 -16   0 -0.6257 0.54129   1
  -5 -16   0 4.47055 1.31726   1
   0 -17   0 0.23523 0.34436   1
  -1 -17   0 10.4168 1.15015   1
   1 -17   0 9.78499 0.63363   1
  -2 -17   0 45.6966 2.39372   1
  -3 -17   0 83.6916 3.66208   1
  -4 -17   0 30.0510 2.39683   1
   0 -18   0 3.63753 0.64451   1
  -1 -18   0 1.81021 0.59211   1
  -2 -18   0 5.36275 1.04171   1
  -3 -18   0 4.57746 1.03052   1
  -4 -18   0 19.4388 2.26942   1
   0 -19   0 -0.0315 0.35848   1
  -1 -19   0 86.5652 3.22044   1
  -2 -19   0 0.74858 0.58419   1
  -3 -19   0 1.54382 0.81999   1
   0 -20   0 0.53438 0.43096   1
  -1 -20   0 15.5950 1.49184   1
  -2 -20   0 12.2176 1.53286   1
  -3 -20   0 29.0243 2.27214   1
  -1 -21   0 0.04986 0.48894   1
  -2 -21   0 24.3949 1.92400   1
  -8   0   1 -0.0431 0.67510   2
  -8   0   1 -0.7746 0.69152   1
  -7   0   1 -0.1926 0.52266   2
  -7   0   1 0.73221 0.63874   1
  -6   0   1 0.71575 0.57817   2
  -6   0   1 0.72517 0.59666   1
  -5   0   1 0.31245 0.44206   1
  -5   0   1 -0.1774 0.38106   2
   4   0  -1 0.11567 0.31326   1
  -4   0   1 0.02552 0.30740   2
  -4   0   1 0.29986 0.32747   1
   3   0  -1 -0.1461 0.19919   2
   3   0  -1 0.00203 0.18595   1
  -3   0   1 0.02219 0.24709   2
  -3   0   1 0.07876 0.27331   1
   2   0  -1 -0.2943 0.19400   1
   2   0  -1 0.08764 0.24671   2
  -2   0   1 0.15763 0.24971   1
  -2   0   1 -0.3914 0.17476   2
  -1   0   1 -0.7962 0.21966   1
  -1   0   1 -1.3829 0.14007   2
   1   0  -1 -0.5443 0.22550   1
   1   0  -1 -1.2292 0.16131   2
   0   0   1 -2.1316 0.17392   2
   0   0  -1 -2.2638 0.16270   2
   0   0   1 -2.0945 0.19173   1
  -1   0  -1 -0.6699 0.19919   1
  -1   0  -1 -0.9735 0.10877   1
   1   0   1 -0.7502 0.22100   1
  -2   0  -1 0.73513 0.31117   1
  -2   0  -1 0.54362 0.27120   2
   2   0   1 0.12204 0.23569   1
   3   0   1 -0.0800 0.18079   1
  -3   0  -1 0.23255 0.29521   2
  -3   0  -1 0.08155 0.27539   1
  -4   0  -1 0.09528 0.31859   1
  -4   0  -1 -0.0101 0.33786   2
   4   0   1 -0.4106 0.30006   1
  -5   0  -1 0.40816 0.52268   1
  -5   0  -1 -0.0771 0.39397   2
  -6   0  -1 -0.6450 0.39086   1
  -6   0  -1 -0.1238 0.46581   2
  -7   0  -1 0.19532 0.64917   2
  -7   0  -1 0.27047 0.68401   1
  -8  -1   1 18.8713 2.33376   2
  -8  -1   1 22.7627 2.74472   1
  -8   1   1 18.6235 2.34975   2
  -7  -1   1 12.7954 1.72990   2
  -7  -1   1 13.1311 1.90996   1
  -7   1   1 14.7504 1.89886   2
  -7   1   1 15.1204 1.98475   1
  -6  -1   1 70.2971 3.34204   1
  -6  -1   1 68.1237 3.21419   2
  -6   1   1 65.5088 3.19419   1
  -6   1   1 65.1562 3.07808   2
  -5  -1   1 77.9400 3.19579   2
  -5  -1   1 74.9760 3.22027   1
  -5   1   1 76.8384 3.10948   2
  -5   1   1 83.1365 3.24988   1
  -4  -1   1 95.2389 3.27775   2
   4  -1  -1 97.6489 3.30093   1
  -4  -1   1 98.0828 3.38862   1
  -4   1   1 93.6538 3.26616   1
  -4   1   1 93.1999 3.20102   2
  -3  -1   1 261.032 6.39504   2
   3  -1  -1 227.938 6.33997   1
  -3  -1   1 261.458 6.54714   1
   3   1  -1 274.458 6.58434   1
  -3   1   1 263.195 6.46871   1
   3   1  -1 274.762 6.41166   2
  -3   1   1 259.003 6.28734   2
   2  -1  -1 253.506 6.04748   1
   2   1  -1 262.963 5.97623   2
  -2   1   1 262.938 6.08275   1
  -2   1   1 252.947 5.89830   2
   1  -1  -1 121.236 2.99634   1
  -1  -1   1 123.564 2.93189   2
  -1  -1   1 125.320 3.01065   1
  -1   1   1 117.731 2.90387   2
  -1   1   1 120.253 2.99372   1
   1   1  -1 127.615 2.93965   2
   1   1  -1 125.465 3.01032   1
   0  -1   1 156.638 3.37821   2
   0  -1  -1 154.224 3.57472   1
   0  -1  -1 155.660 3.48997   2
   0  -1   1 153.634 3.46757   1
   0   1  -1 152.106 3.37259   2
   0   1  -1 156.111 3.46252   1
   0   1   1 150.928 3.57449   1
   0   1   1 154.897 3.49312   2
  -1  -1  -1 147.911 3.63453   1
   1  -1   1 146.602 3.52014   1
  -1  -1  -1 146.560 3.66091   1
  -1  -1  -1 143.755 3.55773   2
  -1   1  -1 147.427 3.51418   1
  -1   1  -1 145.944 3.49202   1
   1   1   1 152.294 3.69102   1
  -2  -1  -1 117.671 3.24792   2
   2  -1   1 120.924 3.21103   1
  -2  -1  -1 110.023 3.28947   1
   2   1   1 115.628 3.31253   1
  -2   1  -1 116.650 3.12909   2
  -2   1  -1 115.328 3.18992   1
  -3  -1  -1 26.6712 1.44509   2
  -3  -1  -1 25.5921 1.43406   1
   3  -1   1 26.3456 1.38955   1
   3   1   1 26.6949 1.46296   1
  -3   1  -1 26.0790 1.38250   1
  -3   1  -1 26.0559 1.37683   2
  -4  -1  -1 82.9548 3.11143   2
  -4  -1  -1 87.2066 3.23642   1
   4  -1   1 85.9129 3.12913   1
  -4   1  -1 77.1911 2.94852   2
  -4   1  -1 83.5658 3.08570   1
  -5  -1  -1 118.788 4.32545   2
  -5  -1  -1 126.369 4.51036   1
  -5   1  -1 120.727 4.24689   2
  -5   1  -1 126.441 4.41250   1
  -6  -1  -1 9.74945 1.51450   1
  -6  -1  -1 8.35012 1.41474   2
  -6   1  -1 9.46748 1.49838   1
  -6   1  -1 11.0172 1.56093   2
  -7  -1  -1 6.59594 1.44835   1
  -7  -1  -1 5.48382 1.26186   2
  -7   1  -1 9.42982 1.58630   2
  -8  -2   1 31.6147 3.35710   1
  -8  -2   1 28.4425 2.96299   2
  -8   2   1 29.1406 2.94365   2
  -7  -2   1 0.54787 0.67404   1
  -7  -2   1 1.07933 0.79663   2
  -7   2   1 2.14899 0.90342   1
  -7   2   1 0.83553 0.64336   2
  -6  -2   1 32.3308 2.25860   2
  -6  -2   1 32.9710 2.28211   1
  -6   2   1 32.0998 2.15287   1
  -6   2   1 30.4211 2.07886   2
  -5  -2   1 7.25380 1.10554   2
  -5  -2   1 8.70224 1.30147   1
  -5   2   1 8.76369 1.18985   2
  -5   2   1 7.65343 1.10159   1
   4  -2  -1 42.1071 1.96922   1
  -4  -2   1 43.2817 2.04692   2
  -4  -2   1 47.1497 2.18435   1
  -4   2   1 43.2094 1.99904   1
  -4   2   1 41.5728 1.91501   2
   3  -2  -1 95.1470 2.77073   2
  -3  -2   1 88.3248 2.84987   2
   3  -2  -1 87.3216 2.79998   1
   3   2  -1 87.8847 2.83440   2
   3   2  -1 94.5568 2.97603   1
  -3   2   1 86.0779 2.78300   1
  -3   2   1 85.0953 2.71330   2
  -2  -2   1 291.697 6.84946   1
  -2  -2   1 294.054 6.68865   2
   2  -2  -1 290.862 6.72326   1
  -2   2   1 287.995 6.72192   1
   2   2  -1 291.049 6.66204   2
  -2   2   1 289.982 6.54919   2
  -1  -2   1 2.52844 0.35763   2
   1  -2  -1 2.37525 0.37090   1
  -1  -2   1 2.59628 0.39270   1
   1  -2  -1 2.33484 0.37018   2
  -1   2   1 2.28067 0.37497   1
   1   2  -1 2.46068 0.37280   2
  -1   2   1 2.13203 0.35381   2
   0  -2  -1 214.331 4.82778   1
   0  -2   1 215.063 4.46995   2
   0  -2   1 206.798 4.58414   1
   0   2   1 206.105 4.69380   2
   0   2   1 212.280 4.82039   1
   0   2  -1 208.464 4.47004   2
   1  -2   1 245.761 5.45767   1
  -1  -2  -1 245.156 5.77327   1
  -1  -2  -1 246.744 5.73491   1
  -1  -2  -1 245.493 5.60368   2
  -1   2  -1 242.485 5.44145   1
  -1   2  -1 241.969 5.42685   1
   1   2   1 250.319 5.78388   1
  -2  -2  -1 972.994 20.5065   2
  -2  -2  -1 961.382 21.0197   1
   2  -2   1 982.277 20.7123   1
  -2   2  -1 979.674 20.7085   1
  -2   2  -1 973.579 20.2174   2
  -3  -2  -1 527.924 11.9987   2
  -3  -2  -1 530.285 12.2922   1
   3  -2   1 527.520 11.9872   1
  -3   2  -1 522.484 11.6835   2
  -3   2  -1 515.006 11.9484   1
   3   2   1 536.489 12.3001   1
   4  -2   1 33.5334 1.79209   1
  -4  -2  -1 36.7591 1.94408   2
  -4  -2  -1 30.5934 1.86193   1
  -4   2  -1 32.8809 1.73887   2
  -4   2  -1 34.9044 1.82332   1
  -5  -2  -1 262.486 7.60849   2
  -5  -2  -1 278.227 7.86763   1
  -5   2  -1 286.126 7.65346   1
  -5   2  -1 258.354 7.32116   2
  -6  -2  -1 13.8095 1.84314   1
  -6  -2  -1 12.1758 1.62933   2
  -6   2  -1 15.0689 1.81690   1
  -6   2  -1 12.2045 1.55969   2
  -7  -2  -1 8.51094 1.68533   1
  -7  -2  -1 7.75661 1.57085   2
  -7   2  -1 6.25468 1.32427   2
  -8  -3   1 2.26117 1.09224   2
  -8  -3   1 1.93305 1.18290   1
  -8   3   1 2.48910 0.97104   2
  -7  -3   1 44.4979 2.93186   2
  -7  -3   1 53.3844 3.23950   1
  -7   3   1 46.2297 2.77105   2
  -7   3   1 50.6476 3.01163   1
  -6  -3   1 177.496 5.96216   2
  -6  -3   1 179.401 6.14110   1
  -6   3   1 188.043 5.89875   1
  -6   3   1 173.329 5.63138   2
  -5  -3   1 0.97115 0.55388   1
  -5  -3   1 0.48637 0.49810   2
   5  -3  -1 1.95669 0.64350   1
  -5   3   1 0.25409 0.36187   1
  -5   3   1 0.94752 0.50867   2
  -4  -3   1 116.571 3.84219   2
  -4  -3   1 115.449 3.94158   1
  -4   3   1 121.281 3.75432   1
  -4   3   1 118.157 3.64207   2
  -3  -3   1 509.659 11.5994   2
   3  -3  -1 534.484 11.3648   2
   3  -3  -1 508.727 11.6279   1
  -3  -3   1 511.936 11.9261   1
  -3   3   1 514.643 11.6486   1
   3   3  -1 525.147 11.5971   2
   3   3  -1 505.517 11.8429   1
  -3   3   1 509.427 11.3516   2
   2  -3  -1 181.886 4.52801   1
  -2  -3   1 181.307 4.70014   1
  -2  -3   1 187.718 4.58227   2
  -2   3   1 186.484 4.42896   2
  -2   3   1 187.863 4.56146   1
   2   3  -1 187.855 4.59256   2
   1  -3  -1 308.208 6.60356   2
  -1  -3   1 302.678 6.79429   1
   1  -3  -1 303.227 6.78772   1
  -1  -3   1 304.972 6.62447   2
   1   3  -1 307.482 6.79141   1
  -1   3   1 295.246 6.76050   1
  -1   3   1 303.141 6.60446   2
   1   3  -1 306.545 6.62782   2
   0  -3   1 0.50163 0.21017   1
   0  -3  -1 0.01645 0.26205   2
   0  -3   1 -0.3926 0.15830   2
   0  -3  -1 -0.0072 0.28761   1
   0   3   1 -0.0721 0.26540   2
   0   3  -1 0.24403 0.19288   1
   0   3   1 0.05010 0.30132   1
   0   3  -1 0.23926 0.19435   2
  -1  -3  -1 144.734 3.71112   2
  -1  -3  -1 150.151 3.86478   1
   1  -3   1 148.307 3.41320   1
  -1  -3  -1 149.848 3.82287   1
   1   3   1 150.597 3.86478   1
  -1   3  -1 151.285 3.39485   1
  -1   3  -1 150.604 3.39838   1
  -2  -3  -1 430.903 9.88002   1
   2  -3   1 432.899 9.46969   1
  -2  -3  -1 430.241 9.67100   2
  -2  -3  -1 433.359 9.93818   1
  -2   3  -1 439.488 9.27029   2
  -2   3  -1 424.436 9.44974   1
   2   3   1 400.757 9.87727   1
  -3  -3  -1 498.113 11.4785   2
   3  -3   1 505.393 11.3349   1
  -3  -3  -1 494.215 11.7597   1
   3   3   1 520.432 11.8278   1
  -3   3  -1 488.099 11.2703   1
  -3   3  -1 479.371 11.0102   2
  -4  -3  -1 162.773 5.20677   1
  -4  -3  -1 166.832 5.10300   2
  -4   3  -1 168.425 4.80024   2
  -4   3  -1 175.771 4.93802   1
  -5  -3  -1 0.73422 0.60158   2
  -5  -3  -1 0.53832 0.57154   1
   5  -3   1 1.03745 0.58428   1
  -5   3  -1 0.99544 0.51515   2
  -5   3  -1 1.42719 0.61388   1
  -6  -3  -1 15.1516 1.95382   1
  -6  -3  -1 10.8656 1.58785   2
  -6   3  -1 12.8704 1.66929   1
  -6   3  -1 10.6638 1.44718   2
  -7  -3  -1 96.5790 4.55071   2
  -7  -3  -1 99.7653 4.79928   1
  -7   3  -1 97.6112 4.29853   2
  -8  -4   1 -0.4048 0.67408   2
  -8  -4   1 -0.8609 0.65658   1
  -8   4   1 -0.4000 0.54410   2
  -7  -4   1 20.4591 2.38249   1
  -7  -4   1 16.9719 2.15643   2
  -7   4   1 22.4584 2.26021   2
  -7   4   1 20.8573 2.32716   1
  -6  -4   1 91.3366 3.99175   1
  -6  -4   1 80.0973 3.71542   2
  -6   4   1 87.7950 3.62678   1
  -6   4   1 82.3270 3.46587   2
  -5  -4   1 85.1872 3.51119   2
  -5  -4   1 90.7541 3.72168   1
   5  -4  -1 92.7042 3.41585   1
  -5   4   1 94.9298 3.38225   2
  -5   4   1 93.1801 3.44347   1
  -4  -4   1 237.883 6.57160   1
  -4  -4   1 229.359 6.31492   2
  -4   4   1 228.556 5.97964   2
  -4   4   1 230.032 6.13286   1
  -3  -4   1 0.91305 0.41428   1
   3  -4  -1 1.31123 0.41287   1
  -3  -4   1 1.26370 0.45643   2
   3  -4  -1 0.72247 0.34549   2
   3   4  -1 1.75663 0.46816   2
   3   4  -1 0.93630 0.43702   1
  -3   4   1 1.26126 0.39291   2
  -3   4   1 1.02077 0.35428   1
  -2  -4   1 86.7015 2.70616   1
  -2  -4   1 89.7878 2.65440   2
   2  -4  -1 91.6753 2.54754   1
  -2   4   1 93.1754 2.55917   1
  -2   4   1 86.8373 2.45242   2
   2   4  -1 91.5446 2.65630   2
   1  -4  -1 177.476 4.20635   1
  -1  -4   1 175.121 4.11042   2
  -1  -4   1 178.332 4.24007   1
   1  -4  -1 182.462 4.10274   2
  -1   4   1 177.730 4.10177   2
   1   4  -1 175.941 4.20891   1
   1   4  -1 180.593 4.12901   2
  -1   4   1 177.781 4.21200   1
   0  -4   1 369.065 7.74245   1
   0  -4  -1 365.933 8.15762   1
   0  -4  -1 368.128 7.95112   2
   0  -4   1 367.726 7.50956   2
   0   4   1 361.251 7.96393   2
   0   4   1 366.299 8.15410   1
   0   4  -1 370.792 7.72782   1
   0   4  -1 373.768 7.55949   2
  -1  -4  -1 175.968 4.36040   2
  -1  -4  -1 184.980 4.55311   1
  -1  -4  -1 175.318 4.48004   1
  -1   4  -1 173.215 3.87686   1
  -1   4  -1 178.341 3.82783   2
  -1   4  -1 179.533 3.88776   1
  -2  -4  -1 4.01402 0.63110   2
  -2  -4  -1 3.75848 0.63309   1
  -2  -4  -1 3.81099 0.62933   1
   2  -4   1 4.46978 0.49267   1
  -2   4  -1 3.97394 0.47846   2
   2   4   1 3.68622 0.62440   1
  -2   4  -1 2.43233 0.37985   1
  -3  -4  -1 125.429 4.03480   1
   3  -4   1 125.738 3.56053   1
  -3  -4  -1 124.354 3.91365   2
  -3   4  -1 123.185 3.53508   1
  -3   4  -1 132.921 3.53541   2
  -4  -4  -1 74.4830 3.06177   1
  -4  -4  -1 64.3621 2.83879   2
   4  -4   1 71.9281 2.64711   1
  -4   4  -1 67.8991 2.61744   1
  -4   4  -1 67.5663 2.54748   2
  -5  -4  -1 82.5828 3.59671   2
  -5  -4  -1 85.2161 3.72793   1
  -5   4  -1 87.6990 3.36806   1
  -5   4  -1 88.4660 3.29957   2
  -6  -4  -1 -0.7748 0.47220   1
  -6  -4  -1 -0.3979 0.48509   2
  -6   4  -1 0.32250 0.54052   1
  -6   4  -1 0.34254 0.47020   2
  -7  -4  -1 7.54045 1.63667   1
  -7  -4  -1 10.3588 1.80725   2
  -7   4  -1 7.60911 1.42145   2
  -7  -5   1 8.17903 1.68147   1
  -7  -5   1 5.39681 1.35564   2
  -7   5   1 5.46771 1.18351   2
  -6  -5   1 67.5523 3.44568   1
  -6  -5   1 66.5552 3.35486   2
  -6   5   1 63.3980 2.93254   2
  -6   5   1 67.4452 3.07566   1
  -5  -5   1 77.3461 3.38203   1
   5  -5  -1 75.0687 2.96968   1
  -5  -5   1 71.3450 3.18151   2
  -5   5   1 77.6012 3.01660   1
  -5   5   1 69.3105 2.82399   2
  -4  -5   1 204.667 5.98453   1
   4  -5  -1 206.757 5.52597   1
  -4  -5   1 205.456 5.80732   2
  -4   5   1 197.645 5.36676   2
  -4   5   1 206.359 5.54641   1
  -3  -5   1 602.487 13.4471   2
  -3  -5   1 580.580 13.7839   1
   3  -5  -1 604.625 13.0013   2
   3  -5  -1 607.771 13.4036   1
  -3   5   1 589.215 13.0463   2
   3   5  -1 619.105 13.4872   2
  -3   5   1 610.210 13.4108   1
  -2  -5   1 1.63464 0.43927   1
   2  -5  -1 2.01405 0.38245   1
   2  -5  -1 0.59630 0.23246   2
  -2  -5   1 2.18020 0.46653   2
  -2   5   1 3.12953 0.45867   1
   2   5  -1 1.29564 0.37070   2
  -2   5   1 1.29867 0.31634   2
  -1  -5   1 3.47950 0.44702   1
   1  -5  -1 3.91240 0.42492   2
   1  -5  -1 3.69822 0.42651   1
  -1  -5   1 3.86334 0.43981   2
  -1   5   1 3.94060 0.43972   1
   1   5  -1 3.89746 0.46317   1
  -1   5   1 3.88993 0.43078   2
   1   5  -1 3.83535 0.42763   2
   0  -5   1 370.229 7.78342   1
   0  -5  -1 374.267 8.04669   2
   0  -5  -1 360.276 8.24405   1
   0  -5   1 378.194 7.53130   2
   0   5  -1 376.083 7.76247   1
   0   5   1 354.497 8.22152   1
   0   5  -1 370.766 7.60199   2
   0   5   1 366.350 8.05417   2
  -1  -5  -1 419.528 9.25545   2
  -1  -5  -1 414.109 9.51807   1
  -1  -5  -1 422.522 9.49111   1
  -1   5  -1 410.412 8.49730   2
  -1   5  -1 418.815 8.50177   2
   2  -5   1 140.105 3.48206   1
  -2  -5  -1 141.936 4.15505   1
  -2  -5  -1 144.839 4.13384   1
  -2  -5  -1 136.656 3.99722   2
  -2   5  -1 144.943 3.43430   2
   2   5   1 149.172 4.22416   1
  -2   5  -1 147.254 3.50443   1
  -2   5  -1 146.418 3.47587   1
  -3  -5  -1 57.0263 2.40352   2
  -3  -5  -1 56.9851 2.47261   1
   3  -5   1 58.6451 2.01015   1
  -3   5  -1 57.4735 1.99128   1
  -3   5  -1 56.7177 1.95505   2
   4  -5   1 104.567 3.34781   1
  -4  -5  -1 105.703 3.79729   2
  -4  -5  -1 104.028 3.87039   1
  -4   5  -1 99.3606 3.24307   2
  -4   5  -1 99.8968 3.29908   1
  -5  -5  -1 167.643 5.69783   2
  -5  -5  -1 175.693 5.93521   1
  -5   5  -1 184.261 5.35448   1
  -5   5  -1 169.059 5.15478   2
  -6  -5  -1 30.9875 2.45161   1
  -6  -5  -1 31.1477 2.38857   2
  -6   5  -1 33.5501 2.10003   2
  -7  -5  -1 24.6535 2.76966   1
  -7  -5  -1 31.4122 3.13601   2
  -7   5  -1 24.0973 2.42494   2
  -7  -6   1 32.0034 2.97784   2
  -7  -6   1 32.9551 3.21120   1
  -7   6   1 28.4337 2.16628   2
  -6  -6   1 0.52298 0.65803   2
  -6  -6   1 0.48571 0.66549   1
  -6   6   1 0.71228 0.51677   2
  -6   6   1 0.75515 0.56927   1
  -5  -6   1 114.888 4.43962   1
   5  -6  -1 115.360 3.91373   1
  -5  -6   1 114.936 4.29478   2
  -5   6   1 121.753 4.00217   1
  -5   6   1 118.293 3.89506   2
  -4  -6   1 55.6751 2.56871   1
  -4  -6   1 51.6461 2.41946   2
   4  -6  -1 56.1759 2.21833   1
  -4   6   1 56.8393 2.23928   1
  -4   6   1 52.9912 2.14789   2
  -3  -6   1 41.7123 1.96581   1
   3  -6  -1 39.0778 1.63713   1
  -3  -6   1 43.5053 1.92424   2
   3   6  -1 42.6879 1.90511   2
  -3   6   1 44.0474 1.66474   2
  -3   6   1 44.1305 1.70431   1
   2  -6  -1 353.786 7.53988   2
  -2  -6   1 338.985 8.10441   1
   2  -6  -1 335.701 7.75417   1
  -2  -6   1 350.261 7.89768   2
  -2   6   1 335.730 7.74696   1
   2   6  -1 333.961 7.87017   2
   2   6  -1 347.981 8.09691   1
  -2   6   1 337.466 7.57383   2
  -1  -6   1 55.8011 1.79320   1
   1  -6  -1 61.4061 1.80589   1
  -1  -6   1 58.0270 1.74111   2
  -1   6   1 56.6195 1.72389   2
   1   6  -1 55.3900 1.73639   2
  -1   6   1 60.6184 1.78596   1
   1   6  -1 56.3945 1.77880   1
   0  -6  -1 271.361 6.33112   1
   0  -6   1 280.615 5.59768   2
   0  -6   1 267.741 5.82039   1
   0   6  -1 268.246 5.69304   2
   0   6  -1 271.099 5.79476   1
   0   6   1 266.679 6.17374   2
   0   6   1 271.955 6.31246   1
  -1  -6  -1 108.036 3.03658   2
  -1  -6  -1 109.764 3.05674   2
  -1  -6  -1 107.336 3.10973   1
  -1  -6  -1 98.0649 3.06598   1
  -2  -6  -1 648.122 14.5616   1
  -2  -6  -1 635.645 14.5983   1
   2  -6   1 647.670 13.6482   1
  -2  -6  -1 646.747 14.2280   2
  -2   6  -1 643.018 13.3504   2
  -2   6  -1 640.515 13.5897   1
  -2   6  -1 645.205 13.6035   1
  -3  -6  -1 67.0872 2.68885   2
  -3  -6  -1 68.5002 2.78716   1
   3  -6   1 65.1561 2.12602   1
  -3   6  -1 66.6903 2.13007   1
  -3   6  -1 65.6073 2.10511   2
  -4  -6  -1 7.53672 1.19387   1
  -4  -6  -1 4.72455 0.91609   2
   4  -6   1 4.97745 0.76455   1
  -4   6  -1 5.93486 0.82547   1
  -4   6  -1 5.92690 0.79984   2
  -5  -6  -1 78.7103 3.65578   1
  -5  -6  -1 82.4278 3.62584   2
  -5   6  -1 77.1067 3.02319   1
  -5   6  -1 79.2524 3.00906   2
  -6  -6  -1 30.1536 2.38734   2
  -6  -6  -1 25.0631 2.60533   1
  -6   6  -1 26.6911 1.88845   2
  -7  -6  -1 17.6049 2.49304   1
  -7  -6  -1 12.1811 1.95976   2
  -7   6  -1 14.1719 1.82986   2
  -7  -7   1 20.6377 2.52737   1
  -7  -7   1 18.5407 2.38826   2
  -7   7   1 18.0105 2.06107   2
  -6  -7   1 7.08888 1.40468   1
  -6  -7   1 10.3348 1.60511   2
  -6   7   1 7.83595 1.34653   1
  -6   7   1 8.71627 1.27754   2
  -5  -7   1 14.3997 1.68418   1
  -5  -7   1 16.6131 1.79432   2
  -5   7   1 17.8157 1.37121   1
  -5   7   1 17.2161 1.32689   2
  -4  -7   1 13.4590 1.48344   1
  -4  -7   1 13.9498 1.38699   2
   4  -7  -1 11.7532 1.13091   1
  -4   7   1 14.6017 1.07068   1
  -4   7   1 12.4412 0.99681   2
  -3  -7   1 33.3875 1.70830   2
  -3  -7   1 35.0302 1.80744   1
   3  -7  -1 34.2134 1.47877   1
  -3   7   1 35.4033 1.51853   1
  -3   7   1 34.6622 1.45399   2
   3   7  -1 34.6443 1.74149   2
  -2  -7   1 3.30612 0.56441   1
   2  -7  -1 2.61224 0.41855   1
  -2  -7   1 2.23839 0.48728   2
   2  -7  -1 4.00681 0.46986   2
   2   7  -1 2.49912 0.52147   1
  -2   7   1 3.38145 0.48359   2
   2   7  -1 2.19461 0.46671   2
  -2   7   1 3.34240 0.47535   1
   1  -7  -1 40.4082 1.43561   1
  -1  -7   1 40.8921 1.39748   2
  -1  -7   1 38.3132 1.44374   1
   1   7  -1 41.8406 1.43306   2
  -1   7   1 40.7797 1.40887   2
  -1   7   1 40.8921 1.42937   1
   1   7  -1 41.2827 1.45208   1
   0  -7  -1 6.67306 0.67508   1
   0  -7  -1 4.50851 0.57563   1
   0  -7   1 5.78366 0.36637   1
   0  -7   1 6.09669 0.29357   2
   0  -7   1 5.56873 0.28105   2
   0  -7  -1 5.94972 0.62502   2
   0   7   1 5.66901 0.60209   2
   0   7  -1 6.00635 0.36525   2
   0   7   1 6.32684 0.65708   1
   0   7  -1 5.24409 0.34252   1
  -1  -7  -1 52.0478 1.98111   1
  -1  -7  -1 51.3617 1.94030   1
  -1  -7  -1 55.6710 1.95392   2
  -1  -7  -1 48.5008 1.86851   2
   2  -7   1 124.743 2.98024   1
  -2  -7  -1 134.816 3.87456   2
  -2  -7  -1 133.710 3.94958   1
  -2  -7  -1 125.550 3.91853   1
  -2   7  -1 122.735 2.95522   2
  -2   7  -1 125.760 2.91110   1
  -2   7  -1 126.731 2.91732   1
  -3  -7  -1 7.24546 0.98306   2
  -3  -7  -1 6.64324 1.01829   1
   3  -7   1 8.26571 0.64849   1
  -3   7  -1 7.27293 0.68228   2
  -3   7  -1 7.24507 0.68735   1
  -4  -7  -1 21.9905 1.67055   2
   4  -7   1 21.1610 1.24505   1
  -4  -7  -1 18.4941 1.80209   1
  -4   7  -1 18.2765 1.17935   2
  -4   7  -1 20.8368 1.22044   1
  -5  -7  -1 31.0925 2.26976   1
  -5  -7  -1 32.6945 2.27957   2
  -5   7  -1 31.3484 1.77481   2
  -5   7  -1 37.8850 2.03289   1
  -6  -7  -1 7.86467 1.45570   2
  -6  -7  -1 8.62180 1.65592   1
  -6   7  -1 9.74973 1.34160   2
  -7  -7  -1 32.3789 3.32607   1
  -7  -7  -1 27.4118 3.01070   2
  -7   7  -1 24.6159 2.01389   2
  -7  -8   1 1.02206 0.95675   1
  -7  -8   1 0.47701 0.79868   2
  -7   8   1 0.42999 0.57016   2
  -6  -8   1 0.20817 0.68319   1
  -6  -8   1 0.43591 0.64107   2
  -6   8   1 0.05065 0.40436   2
  -5  -8   1 23.2573 1.86416   2
  -5  -8   1 21.2866 2.08372   1
  -5   8   1 18.6058 1.36817   2
  -5   8   1 20.7743 1.44880   1
  -4  -8   1 173.697 5.28825   2
   4  -8  -1 175.393 4.82828   1
  -4  -8   1 163.991 5.40817   1
  -4   8   1 180.174 4.83245   1
  -4   8   1 172.945 4.71763   2
   3  -8  -1 262.602 6.36137   1
  -3  -8   1 257.514 6.95414   1
  -3  -8   1 263.387 6.75829   2
  -3   8   1 258.905 6.31579   1
  -3   8   1 261.179 6.23456   2
   3   8  -1 265.512 6.79492   2
  -2  -8   1 18.4234 1.14787   1
   2  -8  -1 18.2489 0.93470   1
  -2  -8   1 19.1050 1.10355   2
   2  -8  -1 18.6194 0.87180   2
   2   8  -1 19.2037 1.12869   2
  -2   8   1 16.2011 0.88576   1
  -2   8   1 15.9603 0.87378   2
  -1  -8   1 4.96814 0.53810   2
   1  -8  -1 4.62982 0.51463   2
   1  -8  -1 4.56614 0.53879   1
  -1  -8   1 3.64630 0.49177   1
  -1   8   1 4.59371 0.52322   2
   1   8  -1 4.32803 0.54005   1
  -1   8   1 4.43078 0.52792   1
   1   8  -1 3.86496 0.49165   2
   0  -8  -1 91.6936 2.70175   1
   0  -8   1 88.1299 2.19220   1
   0  -8   1 88.8451 2.22017   1
   0  -8  -1 89.5423 2.71801   1
   0  -8  -1 89.8904 2.59291   2
   0  -8   1 91.4407 2.01958   2
   0   8   1 91.9631 2.64521   2
   0   8   1 94.7210 2.68933   1
   0   8  -1 89.4586 2.18643   2
  -1  -8  -1 175.927 4.66964   2
  -1  -8  -1 179.562 4.81014   1
  -1  -8  -1 183.589 4.86648   1
  -2  -8  -1 5.55463 0.84090   1
  -2  -8  -1 6.13423 0.83545   2
  -2  -8  -1 5.09459 0.77537   1
  -2   8  -1 6.50674 0.38369   2
  -3  -8  -1 14.7945 1.45086   2
  -3  -8  -1 14.8444 1.52520   1
   3  -8   1 13.1583 0.76522   1
  -3   8  -1 15.0466 0.76974   1
  -3   8  -1 13.4603 0.78575   2
  -3   8  -1 12.0198 0.70618   1
   4  -8   1 26.1708 1.35440   1
  -4  -8  -1 28.6709 2.00222   1
  -4  -8  -1 28.3120 1.92986   2
  -4   8  -1 26.2563 1.33448   1
  -4   8  -1 26.1207 1.35047   2
  -5  -8  -1 4.29377 1.10002   1
  -5  -8  -1 3.28146 0.97966   2
  -5   8  -1 2.52526 0.64370   2
  -6  -8  -1 8.77456 1.64250   1
  -6  -8  -1 8.92663 1.57374   2
  -6   8  -1 9.23998 1.32067   2
  -7  -8  -1 10.6045 1.99409   1
  -7  -8  -1 13.8108 2.17766   2
  -7   8  -1 11.5662 1.59505   2
  -7  -9   1 0.34691 0.77108   1
  -7  -9   1 -0.0293 0.74241   2
  -7   9   1 0.25977 0.48329   2
  -6  -9   1 -0.2110 0.57198   2
  -6  -9   1 0.10790 0.58600   1
  -6   9   1 -0.0774 0.39643   2
  -5  -9   1 31.9086 2.21535   2
  -5  -9   1 31.9902 2.27808   1
  -5   9   1 34.4305 1.82077   1
  -5   9   1 30.7236 1.73456   2
  -4  -9   1 294.233 8.29342   1
   4  -9  -1 304.238 7.48150   1
  -4  -9   1 303.603 8.06034   2
  -4   9   1 293.819 7.30745   2
  -4   9   1 313.551 7.50519   1
  -3  -9   1 23.2192 1.52622   1
   3  -9  -1 23.8187 1.19618   1
  -3  -9   1 22.7761 1.45697   2
  -3   9   1 21.6622 1.12941   1
  -3   9   1 22.0068 1.13734   2
   3   9  -1 21.0435 1.41963   2
  -2  -9   1 68.6589 2.53974   1
   2  -9  -1 75.4958 2.25963   1
  -2  -9   1 68.8066 2.43138   2
   2  -9  -1 73.7412 2.08749   2
  -2   9   1 72.8245 2.18677   2
   2   9  -1 72.4704 2.49409   2
  -2   9   1 76.0266 2.22055   1
   1  -9  -1 563.555 12.2976   1
  -1  -9   1 566.264 11.9605   2
  -1  -9   1 558.720 12.3417   1
   1  -9  -1 565.065 11.9091   2
   1   9  -1 569.398 12.3179   1
   1   9  -1 557.429 12.0383   2
  -1   9   1 558.935 12.2501   1
  -1   9   1 535.594 11.9644   2
   0  -9  -1 35.1693 1.50746   1
   0  -9   1 36.3928 1.13593   1
   0  -9  -1 36.0972 1.53277   1
   0  -9  -1 35.9506 1.44573   2
   0  -9   1 36.3304 1.11588   1
   0   9   1 36.0538 1.49157   2
   0   9   1 37.6738 1.50586   1
  -1  -9  -1 75.2653 2.59675   1
  -1  -9  -1 73.8486 2.60555   1
  -1  -9  -1 71.8632 2.47757   2
  -2  -9  -1 49.9941 2.17747   2
  -2  -9  -1 50.0713 2.24415   1
  -2  -9  -1 52.7148 2.29326   1
  -3  -9  -1 423.709 10.5507   2
  -3  -9  -1 418.033 10.8256   1
   3  -9   1 433.155 9.41978   1
  -3   9  -1 433.517 9.30065   1
  -3   9  -1 440.327 9.30219   1
  -3   9  -1 428.066 9.27414   2
  -4  -9  -1 0.40399 0.53113   1
  -4  -9  -1 0.54210 0.52649   2
   4  -9   1 0.59010 0.34206   1
  -4   9  -1 0.60389 0.34501   1
  -4   9  -1 0.56453 0.35022   2
  -5  -9  -1 2.99246 1.00658   1
  -5  -9  -1 3.02137 0.96661   2
  -5   9  -1 2.49043 0.61302   2
  -6  -9  -1 1.54418 0.86557   2
  -6  -9  -1 1.83294 0.93697   1
  -6   9  -1 0.85186 0.53609   2
  -7 -10   1 5.93381 1.46744   1
  -7 -10   1 5.19081 1.41471   2
  -7  10   1 5.51027 1.12919   2
  -6 -10   1 63.3113 3.55636   1
  -6 -10   1 62.5205 3.40289   2
  -6  10   1 60.4557 2.75686   2
  -5 -10   1 66.9811 3.24033   2
  -5 -10   1 64.3951 3.32277   1
  -5  10   1 63.6112 2.57963   2
  -4 -10   1 73.0897 3.09136   2
   4 -10  -1 73.2763 2.55715   1
  -4 -10   1 67.3218 3.13096   1
  -4  10   1 72.2554 2.52945   2
  -4  10   1 71.0081 2.49637   1
  -3 -10   1 53.4768 2.43759   1
  -3 -10   1 52.6786 2.30627   2
   3 -10  -1 50.4107 1.87865   1
  -3  10   1 52.2604 1.88080   2
  -3  10   1 53.6211 1.87400   1
   3  10  -1 55.3397 2.39353   2
   2 -10  -1 11.9319 0.80266   1
   2 -10  -1 12.4486 0.72472   2
  -2 -10   1 15.5788 1.12351   1
  -2 -10   1 12.3516 0.95693   2
  -2  10   1 13.5556 0.82276   2
   2  10  -1 12.4393 0.97986   2
  -2  10   1 12.6177 0.78542   1
  -1 -10   1 120.718 3.21864   2
  -1 -10   1 121.874 3.39355   1
   1 -10  -1 121.671 3.34597   1
   1 -10  -1 127.210 3.19866   2
  -1  10   1 122.847 3.30536   1
  -1  10   1 119.256 3.27389   2
   1  10  -1 123.312 3.32074   2
   0 -10  -1 309.906 7.49970   1
   0 -10   1 313.973 6.87981   1
   0 -10   1 305.665 6.84064   1
   0 -10  -1 309.626 7.20491   2
   0 -10  -1 320.540 7.50378   1
  -1 -10  -1 11.9258 0.94077   2
  -1 -10  -1 10.5233 1.07292   1
  -1 -10  -1 12.0566 1.14827   1
  -2 -10  -1 103.244 3.55142   1
  -2 -10  -1 100.687 3.42899   2
  -2 -10  -1 102.186 3.58325   1
   3 -10   1 485.006 10.4825   1
  -3 -10  -1 492.453 11.9157   2
  -3 -10  -1 500.887 12.2829   1
  -3  10  -1 487.175 10.3846   2
  -4 -10  -1 1.45569 0.65410   1
  -4 -10  -1 0.85180 0.65924   2
  -4  10  -1 0.73353 0.33254   2
  -5 -10  -1 10.0188 1.57099   2
  -5 -10  -1 10.9246 1.64020   1
  -5  10  -1 11.9915 1.17947   2
  -6 -10  -1 54.3772 3.40108   2
  -6 -10  -1 54.5594 3.46526   1
  -6  10  -1 53.5607 2.49825   2
  -7 -11   1 24.8031 2.86964   1
  -7 -11   1 19.8395 2.50337   2
  -7  11   1 21.2347 2.10985   2
  -6 -11   1 77.3631 3.84865   2
  -6 -11   1 73.2792 3.90954   1
  -6  11   1 68.3490 2.95695   2
  -5 -11   1 0.00332 0.59402   1
  -5 -11   1 0.93177 0.67829   2
  -5  11   1 0.25751 0.35154   2
  -4 -11   1 44.7303 2.41417   2
  -4 -11   1 44.6567 2.52228   1
  -4  11   1 48.8390 1.89998   1
  -4  11   1 46.7379 1.92535   2
  -3 -11   1 42.7419 2.11082   2
   3 -11  -1 44.8621 1.71440   1
  -3 -11   1 41.6992 2.19918   1
   3  11  -1 43.0396 2.17355   2
  -3  11   1 47.2681 1.73700   2
  -3  11   1 46.5135 1.69406   1
  -2 -11   1 6.65169 0.84788   2
  -2 -11   1 4.96735 0.79815   1
   2 -11  -1 7.01484 0.70236   1
   2  11  -1 6.53141 0.88361   2
  -2  11   1 5.89100 0.66385   2
  -2  11   1 6.36056 0.64843   1
  -1 -11   1 0.57173 0.32247   1
  -1 -11   1 0.09743 0.27026   1
   1 -11  -1 0.59413 0.31096   1
   1 -11  -1 0.30788 0.29575   1
  -1 -11   1 -0.0899 0.21868   2
  -1  11   1 0.40499 0.26001   1
  -1  11   1 0.27177 0.27421   2
   0 -11   1 87.0795 2.28351   1
   0 -11   1 88.5653 2.31502   1
   0 -11  -1 86.4082 2.66925   2
   0 -11  -1 87.0247 2.80765   1
   0 -11  -1 86.2947 2.81282   1
  -1 -11  -1 250.405 6.60750   1
  -1 -11  -1 257.039 6.40249   2
  -2 -11  -1 35.6191 1.94623   1
  -2 -11  -1 32.5046 1.87999   1
  -2 -11  -1 34.9494 1.84768   2
  -3 -11  -1 0.18390 0.50743   1
  -3 -11  -1 1.43670 0.64385   2
  -3  11  -1 1.27760 0.26022   2
  -4 -11  -1 93.7767 3.94271   1
  -4 -11  -1 87.3852 3.76963   2
  -4  11  -1 87.4300 2.60016   2
  -5 -11  -1 35.4752 2.51798   2
  -5 -11  -1 31.1071 2.44953   1
  -5  11  -1 31.5487 1.59639   2
  -6 -11  -1 10.7805 1.93077   1
  -6 -11  -1 12.5457 1.91271   2
  -6  11  -1 9.11402 1.19938   2
  -6 -12   1 6.63523 1.48947   1
  -6 -12   1 4.48683 1.21815   2
  -6  12   1 3.74501 0.83221   2
  -5 -12   1 52.5810 3.05871   1
  -5 -12   1 52.2394 2.91047   2
  -5  12   1 48.9023 2.16170   2
  -4 -12   1 2.80713 0.86745   1
  -4 -12   1 2.62574 0.77667   2
  -4  12   1 3.71220 0.64625   2
  -3 -12   1 1.71305 0.59949   2
   3 -12  -1 1.14702 0.39306   1
  -3 -12   1 1.56441 0.60304   1
   3  12  -1 0.78092 0.52011   2
  -3  12   1 1.10036 0.38576   1
  -3  12   1 0.76976 0.36755   2
  -2 -12   1 53.7688 2.12138   2
   2 -12  -1 48.4629 1.77030   1
  -2 -12   1 46.2263 2.11143   1
  -2  12   1 48.0516 1.74668   2
   2  12  -1 53.3356 2.15686   2
  -2  12   1 48.0137 1.69855   1
   1 -12  -1 15.8935 0.98617   1
   1 -12  -1 15.6747 0.86500   2
  -1 -12   1 15.8721 0.93652   2
  -1 -12   1 16.5387 1.02784   1
  -1 -12   1 16.2232 0.99848   1
   1 -12  -1 16.3057 1.01329   1
  -1  12   1 15.4232 0.95751   2
  -1  12   1 14.4882 0.91417   1
   0 -12   1 18.6872 0.83667   1
   0 -12  -1 18.6167 1.16728   1
   0 -12  -1 19.3044 1.19646   1
   0 -12  -1 18.6945 1.09900   2
   0 -12   1 19.8985 0.86455   1
  -1 -12  -1 86.1766 3.10845   1
  -1 -12  -1 89.9818 3.00809   2
  -2 -12  -1 34.0205 1.89098   2
  -2 -12  -1 37.7939 2.05247   1
  -2 -12  -1 35.0590 2.01931   1
  -3 -12  -1 2.14571 0.76774   1
  -3 -12  -1 2.11452 0.74452   2
  -4 -12  -1 2.90492 0.95348   1
  -4 -12  -1 3.24900 0.92969   2
  -4  12  -1 3.11511 0.46490   2
  -5 -12  -1 48.6974 3.09716   1
  -5 -12  -1 50.4301 3.10038   2
  -5  12  -1 48.8224 1.95548   2
  -6 -12  -1 0.80348 0.86844   2
  -6 -12  -1 2.15249 1.03537   1
  -6  12  -1 0.13736 0.41409   2
  -6 -13   1 3.50823 1.20408   2
  -6 -13   1 5.55997 1.41915   1
  -6  13   1 4.52167 0.87559   2
  -5 -13   1 4.25082 1.17153   1
  -5 -13   1 4.18818 1.08742   2
  -5  13   1 4.74966 0.78635   2
  -4 -13   1 37.5718 2.39708   1
  -4 -13   1 41.9544 2.37974   2
  -4  13   1 37.5477 1.68129   2
  -3 -13   1 181.643 5.63961   1
   3 -13  -1 184.262 4.70638   1
  -3 -13   1 185.045 5.46261   2
  -3  13   1 188.514 4.64475   1
   3  13  -1 192.656 5.99914   2
  -3  13   1 180.056 4.67082   2
  -2 -13   1 618.670 13.5756   2
   2 -13  -1 593.309 13.3161   1
  -2 -13   1 611.876 14.0009   1
  -2 -13   1 597.274 13.9945   1
  -2  13   1 594.877 13.0636   2
  -2  13   1 614.751 13.2314   1
   1 -13  -1 1.51634 0.37929   2
  -1 -13   1 1.23593 0.41295   1
   1 -13  -1 1.38743 0.43391   1
  -1 -13   1 1.40057 0.43045   1
  -1 -13   1 1.35078 0.39513   2
   1 -13  -1 1.38590 0.43364   1
  -1  13   1 1.08925 0.39025   2
   0 -13   1 6.71462 0.55815   1
   0 -13  -1 6.23611 0.77057   2
   0 -13  -1 7.14548 0.89456   1
   0 -13   1 7.76333 0.57228   1
   0 -13  -1 8.26188 0.94404   1
  -1 -13  -1 49.4852 2.22783   1
  -1 -13  -1 48.5156 2.10865   2
  -2 -13  -1 7.98833 1.07859   2
  -2 -13  -1 6.57407 1.05385   1
  -2 -13  -1 7.23055 1.12831   1
  -3 -13  -1 15.7247 1.80329   1
  -3 -13  -1 15.8481 1.64797   2
  -4 -13  -1 63.3230 3.31761   1
  -4 -13  -1 63.2639 3.20652   2
  -4  13  -1 62.4333 1.79045   2
  -5 -13  -1 1.38661 0.87093   2
  -5 -13  -1 5.39585 1.33093   1
  -5  13  -1 4.42672 0.65138   2
  -6 -13  -1 4.42452 1.34400   2
  -6 -13  -1 2.36426 1.16908   1
  -6  13  -1 1.86949 0.57553   2
  -6 -14   1 5.94502 1.45693   1
  -6 -14   1 6.32625 1.48971   2
  -6  14   1 6.79293 1.01299   2
  -5 -14   1 2.65820 0.90003   2
  -5 -14   1 2.82848 1.01324   1
  -5  14   1 3.66360 0.71776   2
  -4 -14   1 70.7162 3.21627   2
  -4 -14   1 66.2310 3.27695   1
  -4  14   1 70.7226 2.40419   2
  -3 -14   1 1.85306 0.64097   2
  -3 -14   1 2.04081 0.71851   1
  -3  14   1 1.65556 0.43053   2
  -2 -14   1 97.5270 3.22387   2
   2 -14  -1 100.022 2.90154   1
   2 -14  -1 96.3722 2.88903   1
  -2 -14   1 95.8279 3.40852   1
  -2  14   1 100.764 2.80083   1
  -2  14   1 97.5630 2.89446   2
   1 -14  -1 36.0980 1.40488   2
  -1 -14   1 34.0256 1.60713   1
  -1 -14   1 34.5217 1.59850   1
   1 -14  -1 33.7811 1.56185   1
   1 -14  -1 34.6638 1.58322   1
  -1 -14   1 38.5353 1.50251   2
   0 -14  -1 62.9815 2.42973   1
   0 -14  -1 63.9711 2.26200   2
   0 -14   1 62.3606 1.88083   1
   0 -14   1 62.7949 1.86720   1
   0 -14  -1 60.0970 2.37248   1
  -1 -14  -1 491.749 11.2199   2
  -1 -14  -1 468.634 11.5347   1
  -2 -14  -1 72.2253 3.15697   1
  -2 -14  -1 81.9980 3.19012   2
  -3 -14  -1 2.76053 0.80591   2
  -3 -14  -1 3.42519 0.95023   1
  -4 -14  -1 58.2041 3.09928   2
  -4 -14  -1 53.3439 3.12325   1
  -5 -14  -1 11.0787 1.86658   1
  -5 -14  -1 10.1738 1.73180   2
  -5 -15   1 11.1424 1.80908   1
  -5  15   1 11.1849 1.11089   2
  -4 -15   1 59.2841 3.12692   1
  -4 -15   1 63.0110 3.07001   2
  -4  15   1 60.3357 2.15823   2
  -3 -15   1 3.21969 0.77655   2
  -3 -15   1 5.00929 0.98913   1
  -3  15   1 3.31322 0.54925   2
  -2 -15   1 33.3703 1.86852   1
  -2 -15   1 34.1067 1.77091   2
   2 -15  -1 34.6425 1.47344   1
  -2  15   1 31.0941 1.42796   2
   1 -15  -1 174.942 4.79098   1
  -1 -15   1 186.380 4.91702   1
   0 -15   1 87.0581 2.40062   1
   0 -15  -1 83.0518 2.98607   1
   0 -15   1 85.9566 2.37195   1
   0 -15  -1 85.4836 2.78738   2
  -1 -15  -1 81.4643 2.98795   2
  -1 -15  -1 81.9197 3.16373   1
  -2 -15  -1 0.92196 0.57069   2
  -2 -15  -1 0.93487 0.59416   1
  -3 -15  -1 76.3266 3.51437   1
  -3 -15  -1 75.2185 3.36621   2
  -4 -15  -1 37.4390 2.66498   1
  -4 -15  -1 45.8084 2.79635   2
  -5 -15  -1 1.37624 0.94612   2
  -5 -15  -1 1.90205 0.95658   1
  -5 -16   1 33.6387 2.65403   1
  -5  16   1 38.2920 1.72490   2
  -4 -16   1 3.13120 0.97733   1
  -4  16   1 2.80630 0.53761   2
   3 -16  -1 10.4412 0.76687   1
  -3 -16   1 9.13356 1.31333   1
  -3  16   1 9.09326 0.86581   2
   2 -16  -1 229.669 5.59718   1
  -2 -16   1 223.206 6.32888   1
  -1 -16   1 68.8883 2.53086   1
   1 -16  -1 69.1706 2.43561   1
   0 -16   1 8.33686 0.63117   1
   0 -16  -1 8.70843 1.04704   1
  -1 -16  -1 1.53116 0.60685   1
  -2 -16  -1 4.39482 0.96070   1
  -3 -16  -1 30.9151 2.37032   2
  -3 -16  -1 31.9476 2.24537   1
  -4 -16  -1 13.7349 1.90335   1
  -5 -16  -1 17.1115 2.27318   1
  -5 -17   1 18.0725 2.30147   1
  -4 -17   1 12.1237 1.73532   1
  -4  17   1 12.1991 0.88944   2
  -3 -17   1 -0.3055 0.48410   1
   3 -17  -1 0.63676 0.29053   1
  -3  17   1 0.91268 0.36858   2
   2 -17  -1 0.63340 0.33825   1
  -2 -17   1 0.09104 0.47161   1
  -1 -17   1 52.8391 2.15719   1
   1 -17  -1 54.2454 2.11512   1
   0 -17  -1 6.63790 0.95359   1
   0 -17   1 7.31948 0.63360   1
  -1 -17  -1 250.719 7.02452   1
  -2 -17  -1 37.5642 2.28600   1
  -3 -17  -1 0.59782 0.66121   1
  -4 -17  -1 16.0163 2.07237   1
  -4 -18   1 17.6341 2.08425   1
  -3 -18   1 5.10355 1.09533   1
  -2 -18   1 4.33529 0.91466   1
   2 -18  -1 4.68218 0.62501   1
   1 -18  -1 15.6540 1.12205   1
  -1 -18   1 16.8737 1.19128   1
   0 -18  -1 2.17776 0.64998   1
  -1 -18  -1 4.73066 0.93493   1
  -2 -18  -1 35.9668 2.28505   1
  -3 -18  -1 6.67923 1.32368   1
  -4 -18  -1 14.0821 1.96128   1
  -4 -19   1 4.69502 1.20089   1
  -3 -19   1 42.4451 2.53909   1
  -2 -19   1 17.9635 1.69369   1
  -1 -19   1 11.6482 1.15280   1
   1 -19  -1 12.1041 1.12836   1
   0 -19  -1 36.7211 1.93975   1
  -1 -19  -1 53.6322 2.62086   1
  -2 -19  -1 5.53166 1.11919   1
  -3 -19  -1 35.0298 2.54789   1
  -3 -20   1 3.22148 0.94370   1
  -2 -20   1 10.8231 1.34581   1
   1 -20  -1 12.6619 1.04404   1
  -1 -20   1 14.1626 1.26145   1
   0 -20  -1 2.48270 0.69585   1
  -1 -20  -1 0.34882 0.55280   1
  -2 -20  -1 -0.1871 0.58014   1
  -2 -21   1 11.9720 1.46090   1
   0 -21  -1 0.10483 0.48237   1
  -1 -21  -1 3.56836 0.91863   1
  -8   0   2 0.80089 0.79344   2
  -8   0   2 -0.5188 0.73492   1
  -7   0   2 2.75825 0.94779   2
  -7   0   2 2.49162 1.01545   1
  -6   0   2 50.7211 2.76166   1
  -6   0   2 45.5815 2.57446   2
  -5   0   2 445.231 10.8731   2
  -5   0   2 435.412 11.0975   1
  -4   0   2 185.329 5.39672   1
  -4   0   2 187.517 5.23534   2
  -3   0   2 528.268 12.2447   1
   3   0  -2 541.060 12.2648   1
   3   0  -2 544.818 11.9532   2
  -3   0   2 524.512 11.9441   2
  -2   0   2 1091.52 22.8185   1
   2   0  -2 984.096 22.7153   1
  -2   0   2 1093.31 22.2300   2
   2   0  -2 1093.52 22.2196   2
  -1   0   2 101.888 3.01953   1
  -1   0   2 102.812 2.95495   2
   1   0  -2 106.916 2.97774   2
   0   0   2 2069.54 42.4392   2
   0   0   2 2067.49 43.4976   1
   0   0  -2 2125.76 42.6090   2
   1   0   2 145.547 3.90047   1
  -1   0  -2 153.114 3.95282   1
  -1   0  -2 153.342 3.83820   2
   1   0   2 149.683 3.84331   2
  -2   0  -2 711.706 15.5535   2
  -2   0  -2 739.299 15.9664   1
  -2   0  -2 716.255 15.5864   2
   2   0   2 741.604 16.0313   1
  -2   0  -2 704.541 15.9660   1
   3   0   2 293.129 7.49199   1
  -3   0  -2 283.975 7.25208   2
  -3   0  -2 293.366 7.50010   1
  -4   0  -2 14.4954 1.50973   1
  -4   0  -2 14.9566 1.47060   2
  -5   0  -2 72.8819 3.29308   1
  -5   0  -2 69.7209 3.18429   2
  -6   0  -2 1.44926 0.77623   2
  -6   0  -2 3.16449 0.97326   1
  -7   0  -2 46.3613 3.06627   2
  -8  -1   2 -0.2165 0.76413   1
  -8  -1   2 0.58504 0.77242   2
  -8   1   2 0.12023 0.76895   1
  -8   1   2 0.09590 0.69988   2
  -7  -1   2 4.26354 1.09850   2
  -7  -1   2 5.47199 1.35556   1
  -7   1   2 5.38521 1.23162   2
  -7   1   2 3.09034 1.01280   1
  -6  -1   2 16.2389 1.83627   2
  -6  -1   2 18.4430 2.02845   1
  -6   1   2 19.1710 1.90048   2
  -6   1   2 20.4905 2.15011   1
  -5  -1   2 2.44994 0.72445   1
  -5  -1   2 3.98927 0.83872   2
  -5   1   2 3.46800 0.81495   1
  -5   1   2 3.36388 0.80090   2
  -4  -1   2 37.6615 1.93524   1
  -4  -1   2 35.4463 1.85581   2
   4  -1  -2 38.2587 1.93125   1
  -4   1   2 41.3548 1.93028   2
  -4   1   2 37.4559 1.90939   1
   3  -1  -2 214.742 5.42336   2
  -3  -1   2 209.729 5.42738   2
  -3  -1   2 204.709 5.56003   1
   3  -1  -2 209.295 5.54264   1
   3   1  -2 220.247 5.63575   1
   3   1  -2 209.622 5.42135   2
  -3   1   2 205.435 5.52770   1
  -3   1   2 213.277 5.42616   2
  -2  -1   2 513.750 11.6341   1
   2  -1  -2 528.252 11.3384   2
   2  -1  -2 521.613 11.6136   1
  -2  -1   2 510.323 11.3087   2
  -2   1   2 527.637 11.6473   1
   2   1  -2 524.427 11.3286   2
  -2   1   2 507.713 11.3055   2
  -1  -1   2 9999.99 224.442   1
  -1  -1   2 9820.13 214.185   2
   1  -1  -2 9932.20 211.675   2
   1  -1  -2 8679.43 222.363   1
   1   1  -2 9929.35 213.050   2
  -1   1   2 9673.98 221.112   1
  -1   1   2 9673.97 209.939   2
   0  -1   2 654.318 14.0709   1
   0  -1   2 658.257 13.7201   2
   0  -1  -2 637.219 14.1644   1
   0  -1  -2 660.777 13.8474   2
   0   1   2 658.336 14.2114   1
   0   1  -2 655.055 13.7216   2
   0   1  -2 661.745 14.0735   1
   0   1   2 654.531 13.8468   2
  -1  -1  -2 439.057 9.62958   2
  -1  -1  -2 434.941 9.89209   1
   1  -1   2 429.081 9.70335   1
  -1   1  -2 428.737 9.71771   1
  -1   1  -2 435.824 9.69139   1
   1   1   2 444.565 9.66844   2
  -1   1  -2 435.508 9.46714   2
   1   1   2 431.593 9.85109   1
  -2  -1  -2 84.5003 2.79232   1
  -2  -1  -2 82.5037 2.68764   2
  -2  -1  -2 84.7673 2.68571   2
  -2   1  -2 84.1289 2.61728   1
  -2   1  -2 79.5533 2.53243   2
  -2   1  -2 80.4821 2.61623   1
  -2   1  -2 75.8889 2.52182   2
  -3  -1  -2 7.33688 0.98599   1
  -3  -1  -2 6.81161 0.88478   2
   3   1   2 7.66934 0.98866   1
  -3   1  -2 7.11944 0.90314   1
  -3   1  -2 7.82899 0.93515   2
  -4  -1  -2 40.4780 2.14333   2
  -4  -1  -2 36.9008 2.08714   1
   4  -1   2 36.2547 2.05519   1
  -4   1  -2 34.9711 1.95348   1
  -4   1  -2 35.9744 1.99013   2
  -5  -1  -2 2.22759 0.79096   2
  -5  -1  -2 3.29844 0.95150   1
  -5   1  -2 4.21417 0.91383   2
  -5   1  -2 4.98555 1.00701   1
  -6  -1  -2 2.24394 0.90874   1
  -6  -1  -2 0.63874 0.65403   2
  -6   1  -2 2.69469 0.93239   1
  -6   1  -2 2.08525 0.83480   2
  -7  -1  -2 5.10734 1.30819   2
  -7   1  -2 5.88960 1.38979   2
  -8  -2   2 37.4091 3.06235   1
  -8  -2   2 42.7694 3.05928   2
  -8   2   2 43.8184 2.96189   2
  -7  -2   2 5.78939 1.29895   2
  -7  -2   2 5.21192 1.27141   1
  -7   2   2 4.88738 1.14930   2
  -7   2   2 7.58511 1.42563   1
  -6  -2   2 99.4922 3.99579   2
  -6  -2   2 93.4996 4.02737   1
  -6   2   2 88.3387 3.80280   1
  -6   2   2 92.7947 3.77145   2
  -5  -2   2 47.9054 2.49663   1
  -5  -2   2 46.6653 2.42338   2
  -5   2   2 47.0220 2.32463   2
  -5   2   2 46.3479 2.36484   1
  -4  -2   2 0.53282 0.40942   1
  -4  -2   2 0.31697 0.36278   2
   4  -2  -2 0.02420 0.31435   1
  -4   2   2 1.23377 0.49960   2
  -4   2   2 0.02513 0.34530   1
  -3  -2   2 129.103 3.88476   1
  -3  -2   2 129.254 3.78005   2
  -3   2   2 123.503 3.68202   2
  -3   2   2 129.237 3.83979   1
   3   2  -2 136.680 3.93713   1
   3   2  -2 136.540 3.82156   2
   2  -2  -2 46.1532 1.72741   1
  -2  -2   2 43.8335 1.70713   1
  -2  -2   2 45.6985 1.67851   2
   2   2  -2 45.1084 1.67384   2
  -2   2   2 42.8185 1.64720   2
  -2   2   2 45.9027 1.73766   1
  -1  -2   2 203.557 4.88137   1
  -1  -2   2 196.471 4.72130   2
   1  -2  -2 202.685 4.96355   1
   1  -2  -2 205.293 4.83326   2
   1   2  -2 206.116 4.75529   2
  -1   2   2 203.098 4.96667   1
  -1   2   2 204.568 4.84804   2
   0  -2   2 132.211 3.28343   1
   0  -2  -2 127.229 3.38068   2
   0  -2   2 132.462 3.19461   2
   0   2   2 131.113 3.40461   2
   0   2  -2 131.526 3.19939   2
   0   2   2 127.163 3.47509   1
   0   2  -2 136.558 3.30006   1
  -1  -2  -2 20.9772 1.13852   1
  -1  -2  -2 19.1751 1.05759   2
   1  -2   2 21.5383 0.98205   1
   1   2   2 22.4118 1.15149   1
   1   2   2 21.3879 1.12458   2
  -1   2  -2 21.4587 0.96489   1
  -1   2  -2 20.8085 0.93696   2
  -1   2  -2 21.4782 0.98722   1
  -2  -2  -2 28.7287 1.50055   1
  -2  -2  -2 28.2999 1.42924   2
  -2  -2  -2 27.3660 1.55282   1
  -2  -2  -2 27.7292 1.43546   2
  -2   2  -2 27.7099 1.26607   2
   2   2   2 32.9387 1.58310   1
  -2   2  -2 27.5195 1.27888   2
  -2   2  -2 26.5317 1.25716   1
  -2   2  -2 28.3594 1.32016   1
  -3  -2  -2 1.18377 0.50313   1
   3  -2   2 1.49290 0.47320   1
  -3  -2  -2 1.18862 0.48083   2
   3   2   2 1.33558 0.55974   1
  -3   2  -2 1.40569 0.46911   1
  -3   2  -2 1.11411 0.42476   2
  -4  -2  -2 254.478 7.15136   2
   4  -2   2 270.307 7.14508   1
  -4  -2  -2 244.947 7.22676   1
  -4   2  -2 259.256 6.90818   2
  -4   2  -2 260.173 7.01298   1
  -5  -2  -2 2.11559 0.75802   2
  -5  -2  -2 0.55394 0.56101   1
  -5   2  -2 0.69484 0.53821   1
  -5   2  -2 0.44309 0.47002   2
  -6  -2  -2 30.3481 2.36088   1
  -6  -2  -2 26.3644 2.58958   2
  -6   2  -2 31.0191 2.18885   2
  -6   2  -2 31.0209 2.28245   1
  -7  -2  -2 9.70164 1.79749   2
  -7  -2  -2 7.26451 1.64445   1
  -7   2  -2 15.1820 2.02581   2
  -8  -3   2 24.6969 2.91917   1
  -8  -3   2 25.1423 2.93176   2
  -8   3   2 21.1309 2.44144   2
  -7  -3   2 4.49128 1.15862   2
  -7  -3   2 7.99320 1.58032   1
  -7   3   2 5.86017 1.27244   1
  -7   3   2 4.34442 1.12708   2
  -6  -3   2 72.9728 3.45113   2
  -6  -3   2 79.0604 3.65523   1
  -6   3   2 72.4190 3.28324   2
  -6   3   2 81.2675 3.50595   1
  -5  -3   2 29.3723 1.94844   1
  -5  -3   2 28.1058 1.88650   2
  -5   3   2 27.4512 1.78659   1
  -5   3   2 27.2928 1.75670   2
  -4  -3   2 245.956 6.53260   2
   4  -3  -2 244.447 6.51651   1
  -4  -3   2 238.040 6.63608   1
  -4   3   2 231.681 6.28060   2
  -4   3   2 248.654 6.56272   1
  -3  -3   2 9.38956 0.97218   2
  -3  -3   2 6.47602 0.81180   1
   3   3  -2 8.66799 0.98101   2
  -3   3   2 7.55483 0.81102   2
   3   3  -2 7.51179 0.86604   1
  -3   3   2 8.62773 0.89497   1
  -2  -3   2 202.220 5.26639   1
  -2  -3   2 212.469 5.17389   2
   2  -3  -2 213.831 5.30157   1
   2   3  -2 217.314 5.19058   2
  -2   3   2 212.676 5.33872   1
  -2   3   2 204.387 5.13176   2
   1  -3  -2 89.9634 2.59729   1
  -1  -3   2 86.8457 2.46619   1
  -1  -3   2 85.0670 2.37768   2
   1   3  -2 90.2728 2.46936   1
   1   3  -2 88.5508 2.40841   2
  -1   3   2 87.1461 2.58226   1
  -1   3   2 86.0007 2.50778   2
   0  -3   2 242.309 5.56482   1
   0  -3  -2 251.106 5.92070   1
   0  -3   2 245.024 5.40109   2
   0  -3  -2 248.044 5.76547   2
   0   3   2 241.594 5.75377   2
   0   3  -2 242.156 5.41855   2
   0   3   2 238.241 5.87707   1
   0   3  -2 247.575 5.55623   1
   1  -3   2 0.94098 0.28288   1
  -1  -3  -2 0.45905 0.29070   1
  -1  -3  -2 0.43240 0.30944   1
  -1  -3  -2 0.13660 0.26140   2
  -1   3  -2 0.31430 0.21110   1
   1   3   2 0.14311 0.25566   1
  -1   3  -2 0.09689 0.17845   2
   1   3   2 -0.0052 0.25577   2
  -1   3  -2 0.05725 0.17560   1
  -2  -3  -2 350.355 8.29937   2
  -2  -3  -2 351.648 8.34162   2
  -2  -3  -2 353.593 8.57056   1
  -2   3  -2 342.217 7.87033   2
  -2   3  -2 347.403 8.04776   1
  -2   3  -2 345.001 8.01617   1
  -2   3  -2 345.941 7.84952   2
   3  -3   2 27.2501 1.42781   1
  -3  -3  -2 24.8577 1.58665   2
  -3  -3  -2 22.7553 1.54593   1
  -3   3  -2 24.2527 1.33866   2
  -3   3  -2 26.1677 1.39064   1
  -4  -3  -2 86.5791 3.48683   1
  -4  -3  -2 85.6265 3.42287   2
  -4   3  -2 82.2099 3.08771   1
  -4   3  -2 78.7503 2.99549   2
  -5  -3  -2 8.55894 1.38273   2
  -5  -3  -2 8.91758 1.43471   1
  -5   3  -2 8.62283 1.21748   2
  -5   3  -2 7.80550 1.21397   1
  -6  -3  -2 30.8372 2.39819   2
  -6  -3  -2 38.0351 2.66174   1
  -6   3  -2 31.4808 2.23554   2
  -7  -3  -2 50.8998 3.40748   1
  -7  -3  -2 41.0494 3.04891   2
  -7   3  -2 41.5193 2.80975   2
  -8  -4   2 5.78325 1.54609   1
  -8  -4   2 3.78451 1.21828   2
  -8   4   2 1.93961 0.98303   2
  -7  -4   2 280.535 8.99997   1
  -7  -4   2 287.299 8.80052   2
  -7   4   2 294.552 8.71218   1
  -7   4   2 284.236 8.43399   2
  -6  -4   2 103.498 4.26705   2
  -6  -4   2 101.877 4.30513   1
  -6   4   2 106.859 4.12759   1
  -6   4   2 102.039 3.98978   2
  -5  -4   2 24.7508 1.78714   2
  -5  -4   2 23.2478 1.77132   1
  -5   4   2 23.7688 1.62878   2
  -5   4   2 22.4855 1.64010   1
  -4  -4   2 71.0777 2.94024   1
  -4  -4   2 74.2606 2.91939   2
   4  -4  -2 76.6140 2.84233   1
  -4   4   2 77.7337 2.78088   2
  -4   4   2 75.0349 2.83906   1
   3  -4  -2 590.133 14.1397   1
  -3  -4   2 633.846 14.4026   1
  -3  -4   2 650.099 14.0681   2
  -3   4   2 630.614 13.8751   2
   3   4  -2 646.381 14.0530   2
  -3   4   2 644.607 14.2576   1
  -2  -4   2 573.191 12.5611   2
   2  -4  -2 599.621 12.5593   2
  -2  -4   2 562.765 12.8761   1
   2  -4  -2 577.374 12.8805   1
  -2   4   2 583.900 12.5581   2
  -2   4   2 571.145 12.8604   1
   2   4  -2 584.159 12.5706   2
  -1  -4   2 195.769 4.50252   2
   1  -4  -2 196.715 4.83669   1
  -1  -4   2 185.693 4.61265   1
  -1   4   2 194.527 4.81723   1
  -1   4   2 190.026 4.67636   2
   1   4  -2 188.914 4.49505   2
   1   4  -2 188.840 4.60608   1
   0  -4   2 861.400 17.8441   1
   0  -4  -2 863.306 18.3404   1
   0  -4  -2 758.810 17.7716   2
   0  -4   2 878.102 17.3813   2
   0   4   2 870.412 18.3625   1
   0   4  -2 857.128 17.4059   2
   0   4  -2 843.144 17.8180   1
   0   4   2 846.707 17.8708   2
  -1  -4  -2 115.688 3.46835   1
   1  -4   2 116.415 2.97987   1
  -1  -4  -2 118.719 3.56567   1
  -1  -4  -2 120.011 3.42510   2
  -1   4  -2 119.476 2.98956   1
   1   4   2 120.867 3.51341   1
  -1   4  -2 118.300 2.97177   1
  -1   4  -2 121.289 2.94044   2
  -2  -4  -2 140.940 4.11805   2
  -2  -4  -2 135.887 4.20065   1
  -2  -4  -2 140.341 4.11490   2
  -2   4  -2 142.158 3.60167   2
  -2   4  -2 135.930 3.59339   2
  -2   4  -2 141.786 3.66363   1
  -2   4  -2 139.926 3.67088   1
  -3  -4  -2 8.82099 1.16077   1
  -3  -4  -2 11.3850 1.25631   2
   3  -4   2 10.9403 0.90406   1
  -3   4  -2 7.81853 0.86116   1
  -3   4  -2 9.31425 0.91329   2
   4  -4   2 78.5953 3.19268   1
  -4  -4  -2 102.145 3.94146   1
  -4  -4  -2 98.5970 3.78754   2
  -4   4  -2 106.862 3.42970   2
  -4   4  -2 105.394 3.44331   1
  -5  -4  -2 304.049 8.76022   2
  -5  -4  -2 313.993 9.05528   1
  -5   4  -2 318.572 8.44355   1
  -5   4  -2 303.171 8.19290   2
  -6  -4  -2 29.2362 2.79298   2
  -6  -4  -2 31.2480 2.49809   1
  -6   4  -2 30.4966 2.11556   2
  -7  -4  -2 2.28671 1.11513   1
  -7  -4  -2 0.19601 0.77217   2
  -7   4  -2 1.36666 0.83888   2
  -8  -5   2 22.3095 2.91028   1
  -8  -5   2 22.9732 2.72030   2
  -8   5   2 28.4677 2.83340   2
  -7  -5   2 41.4534 2.87390   2
  -7  -5   2 36.8826 2.79745   1
  -7   5   2 39.0471 2.62885   1
  -7   5   2 43.6692 2.66105   2
  -6  -5   2 58.2759 3.11501   2
  -6  -5   2 62.2341 3.27356   1
  -6   5   2 58.0927 2.83559   2
  -6   5   2 59.0296 2.91714   1
   5  -5  -2 26.3604 1.75900   1
  -5  -5   2 27.6484 1.96433   1
  -5  -5   2 31.8501 1.99926   2
  -5   5   2 27.3860 1.77576   1
  -5   5   2 27.2166 1.72791   2
  -4  -5   2 1.00258 0.52737   1
  -4  -5   2 0.50735 0.46112   2
   4  -5  -2 0.67507 0.44618   1
  -4   5   2 0.66415 0.39196   2
  -4   5   2 1.15556 0.49464   1
   3  -5  -2 15.8650 1.06821   1
  -3  -5   2 18.1751 1.23085   1
  -3  -5   2 13.2427 1.05981   2
  -3   5   2 15.9271 1.08865   1
  -3   5   2 13.7370 0.99818   2
  -2  -5   2 1.28396 0.39856   1
   2  -5  -2 2.89014 0.48010   2
  -2  -5   2 2.49841 0.47798   2
   2   5  -2 2.39447 0.50001   1
  -2   5   2 4.05226 0.58485   1
   2   5  -2 2.74879 0.47385   2
  -2   5   2 2.95534 0.52098   2
  -1  -5   2 1336.51 28.0227   1
  -1  -5   2 1319.05 27.2861   2
   1  -5  -2 1307.06 27.5180   2
   1  -5  -2 1355.45 28.2875   1
   1   5  -2 1340.26 27.9949   1
   1   5  -2 1365.63 27.3560   2
  -1   5   2 1318.84 28.2608   1
  -1   5   2 1336.21 27.5810   2
   0  -5   2 13.1287 0.63115   1
   0  -5   2 12.3538 0.56983   2
   0  -5  -2 11.1244 0.83265   1
   0   5  -2 11.7797 0.58488   1
   0   5   2 13.4731 0.89191   2
   0   5  -2 12.5042 0.60713   2
   0   5   2 10.9878 0.85726   1
  -1  -5  -2 6.31131 0.74973   2
   1  -5   2 5.01268 0.42110   1
  -1  -5  -2 5.62283 0.76623   1
  -1  -5  -2 5.19757 0.76151   1
   1   5   2 5.65857 0.76941   1
  -1   5  -2 5.25626 0.41690   1
  -1   5  -2 5.56041 0.43413   2
  -1   5  -2 5.56212 0.41935   1
  -2  -5  -2 9.83539 1.10323   2
  -2  -5  -2 9.40856 1.10823   1
  -2   5  -2 9.26144 0.65930   2
  -2   5  -2 9.34403 0.66016   2
  -2   5  -2 10.1103 0.66587   1
  -2   5  -2 10.5225 0.66999   1
  -3  -5  -2 74.6480 2.96522   2
  -3  -5  -2 75.5174 3.06374   1
   3  -5   2 74.4936 2.49413   1
  -3   5  -2 73.5728 2.44956   2
  -3   5  -2 69.9901 2.41611   1
   4  -5   2 110.546 3.60285   1
  -4  -5  -2 110.850 4.11831   2
  -4  -5  -2 103.877 4.14234   1
  -4   5  -2 111.134 3.53394   2
  -4   5  -2 103.626 3.50663   1
  -5  -5  -2 38.1823 2.49771   2
  -5  -5  -2 40.4666 2.60059   1
  -5   5  -2 36.4389 2.06969   2
  -5   5  -2 39.2629 2.17261   1
  -6  -5  -2 29.9565 2.50198   1
  -6  -5  -2 31.5515 2.49562   2
  -6   5  -2 35.6691 2.23712   2
  -8   6   2 2.99525 1.06574   2
  -7  -6   2 2.76111 1.04999   2
  -7  -6   2 2.92688 1.10782   1
  -7   6   2 1.86979 0.79366   2
  -6  -6   2 2.50595 0.92708   1
  -6  -6   2 1.64970 0.83280   2
  -6   6   2 2.37750 0.74683   2
  -6   6   2 1.37074 0.65434   1
  -5  -6   2 153.700 5.12637   2
  -5  -6   2 153.522 5.30215   1
   5  -6  -2 154.730 4.92018   1
  -5   6   2 152.911 4.78292   2
  -5   6   2 164.437 4.98654   1
  -4  -6   2 39.1290 2.10471   1
  -4  -6   2 33.6576 1.91876   2
  -4   6   2 36.9043 1.79896   2
  -4   6   2 35.1402 1.81310   1
  -3  -6   2 41.5985 1.94167   1
  -3  -6   2 39.1926 1.85265   2
   3  -6  -2 38.3347 1.75433   1
  -3   6   2 40.7541 1.75379   2
  -3   6   2 44.7984 1.84929   1
   3   6  -2 44.1761 1.92348   2
   2  -6  -2 663.726 14.7714   1
  -2  -6   2 679.168 14.4229   2
  -2  -6   2 660.516 14.8095   1
   2  -6  -2 672.674 14.3625   2
   2   6  -2 691.622 14.4857   2
   2   6  -2 670.482 14.7840   1
  -2   6   2 663.483 14.7516   1
  -2   6   2 645.633 14.3884   2
  -1  -6   2 94.9527 2.66778   1
   1  -6  -2 101.449 2.94724   1
   1  -6  -2 96.5547 2.80134   2
  -1  -6   2 93.0853 2.55145   2
  -1   6   2 97.1045 2.90368   1
   1   6  -2 97.8566 2.67442   1
   1   6  -2 98.2109 2.62635   2
  -1   6   2 95.0454 2.82724   2
   0  -6   2 1006.83 20.1635   2
   0  -6  -2 1002.15 20.9527   2
   0  -6   2 981.152 20.7481   1
   0  -6  -2 1010.19 21.5021   1
   0   6   2 976.558 20.9549   2
   0   6  -2 1004.56 20.7247   1
   0   6  -2 997.167 20.2712   2
   0   6   2 975.029 21.4595   1
  -1  -6  -2 558.622 12.8231   1
  -1  -6  -2 566.372 12.9105   1
  -1  -6  -2 586.125 12.9579   2
  -1   6  -2 563.476 11.8006   1
  -1   6  -2 556.381 11.7876   1
   1   6   2 537.457 12.7790   1
  -1   6  -2 555.995 11.6036   2
  -2  -6  -2 104.129 3.52425   2
  -2  -6  -2 106.254 3.65950   1
  -2   6  -2 108.063 2.82400   2
  -2   6  -2 112.892 2.84124   1
  -2   6  -2 110.737 2.82760   1
  -2   6  -2 108.027 2.82449   2
  -3  -6  -2 57.4589 2.65787   1
  -3  -6  -2 54.4418 2.52663   2
  -3   6  -2 53.5448 1.94590   2
  -3   6  -2 56.1961 1.97693   1
  -3   6  -2 55.0904 1.97714   2
  -4  -6  -2 6.31533 1.22173   1
  -4  -6  -2 5.93105 1.08943   2
   4  -6   2 5.62904 0.84400   1
  -4   6  -2 6.23478 0.88731   1
  -4   6  -2 4.95912 0.78522   2
  -5  -6  -2 43.2119 2.76510   1
  -5  -6  -2 45.8294 2.76780   2
  -5   6  -2 44.5136 2.23501   2
  -6  -6  -2 23.7104 2.62538   2
  -6  -6  -2 27.7576 2.89493   1
  -6   6  -2 24.5747 1.86546   2
  -7  -7   2 18.9526 2.34518   2
  -7  -7   2 26.9004 2.84316   1
  -7   7   2 26.0358 2.02559   2
  -6  -7   2 30.2522 2.25829   2
  -6  -7   2 28.3953 2.29255   1
  -6   7   2 32.7798 2.06259   2
  -6   7   2 32.6073 2.10083   1
  -5  -7   2 3.20823 0.86993   2
   5  -7  -2 4.56362 0.91112   1
  -5  -7   2 2.95264 0.92006   1
  -5   7   2 5.44150 0.98189   1
  -5   7   2 4.68923 0.87059   2
  -4  -7   2 65.3327 2.75886   2
  -4  -7   2 63.1829 2.82679   1
  -4   7   2 62.2106 2.46718   2
  -4   7   2 64.5994 2.57932   1
   3  -7  -2 170.540 4.66709   1
  -3  -7   2 164.719 4.89805   1
  -3  -7   2 175.108 4.82740   2
  -3   7   2 168.473 4.65556   1
   3   7  -2 165.359 4.73708   2
  -3   7   2 167.925 4.54617   2
   2  -7  -2 204.511 5.26796   1
  -2  -7   2 204.235 5.30062   1
  -2  -7   2 202.180 5.13000   2
   2   7  -2 208.207 5.18955   2
  -2   7   2 205.449 5.26206   1
  -2   7   2 201.621 5.11910   2
  -1  -7   2 320.422 7.19912   2
   1  -7  -2 328.358 7.54048   2
   1  -7  -2 322.654 7.75502   1
  -1  -7   2 324.888 7.45211   1
  -1   7   2 329.015 7.58914   2
  -1   7   2 328.304 7.75989   1
   1   7  -2 325.241 7.27303   2
   1   7  -2 334.934 7.44238   1
   0  -7   2 647.768 13.8832   1
   0  -7  -2 659.166 14.7134   1
   0  -7   2 667.662 13.4145   2
   0  -7  -2 664.389 14.3432   2
   0   7   2 655.499 14.6964   1
   0   7  -2 661.615 13.5858   2
   0   7   2 645.355 14.3583   2
   0   7  -2 670.881 13.8443   1
  -1  -7  -2 252.163 6.56435   1
  -1  -7  -2 251.253 6.63228   1
   1   7   2 249.432 6.53857   1
  -1   7  -2 259.321 5.40846   2
  -2  -7  -2 43.5078 2.15385   1
  -2  -7  -2 43.4294 2.09307   2
  -2   7  -2 42.6224 1.39582   2
  -2   7  -2 44.9591 1.35528   1
  -2   7  -2 44.3386 1.41112   2
  -2   7  -2 45.2728 1.35191   1
  -3  -7  -2 13.2509 1.44191   2
  -3  -7  -2 10.3226 1.33052   1
  -3   7  -2 11.1595 0.80388   2
  -3   7  -2 12.2904 0.82509   1
  -3   7  -2 12.7371 0.85120   2
  -4  -7  -2 30.7951 2.18273   1
  -4  -7  -2 31.3720 2.13714   2
  -4   7  -2 35.1044 1.66162   2
  -4   7  -2 30.8470 1.57052   1
  -5  -7  -2 22.0712 2.27212   1
  -5  -7  -2 25.1360 2.41232   2
  -5   7  -2 23.8336 1.57614   2
  -6  -7  -2 -0.7895 0.57612   2
  -6  -7  -2 0.33017 0.67851   1
  -6   7  -2 0.74633 0.51030   2
  -7  -8   2 13.7952 1.99658   2
  -7   8   2 13.7911 1.78142   2
  -6  -8   2 87.5128 3.97428   2
  -6  -8   2 95.0557 4.25505   1
  -6   8   2 87.5532 3.56399   2
  -5  -8   2 0.74682 0.54800   1
  -5  -8   2 1.16704 0.62594   2
  -5   8   2 0.87307 0.53464   1
  -5   8   2 0.27662 0.39444   2
   4  -8  -2 81.4088 2.93441   1
  -4  -8   2 80.7323 3.28950   1
  -4  -8   2 77.6610 3.12357   2
  -4   8   2 79.8752 2.87098   2
  -4   8   2 77.3919 2.86685   1
  -3  -8   2 243.098 6.59373   1
  -3  -8   2 235.649 6.35203   2
   3  -8  -2 245.247 6.27664   1
  -3   8   2 247.529 6.15397   2
  -3   8   2 250.003 6.28650   1
   3   8  -2 247.191 6.42002   2
   2  -8  -2 2.39036 0.51323   1
  -2  -8   2 3.48160 0.57277   2
  -2  -8   2 2.78441 0.56337   1
   2   8  -2 3.27797 0.56470   2
  -2   8   2 3.28071 0.54860   2
  -2   8   2 3.42695 0.60181   1
  -1  -8   2 39.8433 1.38519   2
   1  -8  -2 41.1180 1.70073   1
  -1  -8   2 40.9103 1.48842   1
  -1   8   2 39.4588 1.67120   1
   1   8  -2 41.0325 1.45333   1
  -1   8   2 37.6868 1.62314   2
   1   8  -2 40.1626 1.44701   2
   0  -8  -2 18.4942 1.17558   1
   0  -8   2 20.1631 0.74488   1
   0   8  -2 19.5343 0.68239   1
   0   8   2 20.4145 1.21191   2
   0   8  -2 19.7197 0.74996   2
   0   8   2 18.1148 1.15167   1
  -1  -8  -2 81.5203 2.90290   1
  -1  -8  -2 78.3018 2.91419   1
  -2  -8  -2 249.284 6.82761   1
  -2  -8  -2 246.494 6.62095   2
  -2   8  -2 242.449 5.38826   2
  -2   8  -2 246.240 5.40481   2
  -3  -8  -2 52.4162 2.60002   2
  -3  -8  -2 57.5203 2.77215   1
  -3   8  -2 53.0289 1.82521   2
  -3   8  -2 54.5861 1.84096   2
  -3   8  -2 56.3617 1.77791   1
  -4  -8  -2 197.983 6.53215   1
  -4  -8  -2 209.745 6.44853   2
  -4   8  -2 197.374 5.23621   2
  -5  -8  -2 -0.2620 0.61621   1
  -5  -8  -2 0.76175 0.68945   2
  -5   8  -2 0.49642 0.40696   2
  -6  -8  -2 15.0425 2.20599   1
  -6  -8  -2 14.0620 2.05194   2
  -6   8  -2 13.4201 1.56258   2
  -7  -9   2 5.77260 1.55861   1
  -7  -9   2 5.87815 1.43557   2
  -7   9   2 4.58289 1.11756   2
  -6  -9   2 154.243 5.58956   2
  -6  -9   2 149.935 5.71537   1
  -6   9   2 142.491 4.87753   2
  -5  -9   2 77.9173 3.47016   2
  -5  -9   2 81.8711 3.65239   1
  -5   9   2 78.7391 3.10966   1
  -5   9   2 75.8348 3.03178   2
  -4  -9   2 49.1334 2.44055   2
  -4  -9   2 48.5353 2.51325   1
   4  -9  -2 47.5262 2.17309   1
  -4   9   2 52.5718 2.20869   2
  -4   9   2 55.4404 2.27760   1
  -3  -9   2 117.293 3.88013   1
  -3  -9   2 117.841 3.76204   2
   3  -9  -2 119.183 3.59066   1
   3   9  -2 119.163 3.78714   2
  -3   9   2 107.750 3.44308   2
  -3   9   2 120.686 3.59658   1
  -2  -9   2 610.820 13.4760   2
  -2  -9   2 614.126 13.8971   1
   2  -9  -2 614.073 13.8304   1
   2   9  -2 633.417 13.5796   2
  -2   9   2 618.333 13.5068   2
  -2   9   2 606.096 13.7801   1
  -1  -9   2 86.9225 2.53722   1
  -1  -9   2 85.8684 2.37382   2
   1  -9  -2 87.0223 2.81531   1
  -1   9   2 79.0575 2.68673   2
   1   9  -2 88.1404 2.47588   2
  -1   9   2 88.0210 2.81769   1
   1   9  -2 86.1283 2.49012   1
   0  -9   2 372.895 8.04777   1
   0  -9  -2 392.507 9.15701   1
   0   9   2 372.023 9.01364   1
   0   9  -2 376.622 7.92603   2
   0   9   2 364.549 8.81021   2
  -1  -9  -2 218.917 6.07885   1
  -1  -9  -2 222.103 6.02140   1
  -2  -9  -2 9.00559 1.14646   2
  -2  -9  -2 6.64084 1.04738   1
  -3  -9  -2 78.0990 3.27011   2
  -3  -9  -2 76.1799 3.35219   1
  -3   9  -2 72.7510 2.18342   2
  -3   9  -2 76.6403 2.21837   2
  -3   9  -2 74.0146 2.02623   1
  -4  -9  -2 140.127 5.27186   1
  -4  -9  -2 145.271 5.18228   2
  -4   9  -2 145.200 3.99178   2
  -5  -9  -2 24.1653 2.45598   2
  -5  -9  -2 23.5977 2.41238   1
  -5   9  -2 25.1360 1.55262   2
  -6  -9  -2 7.73941 1.64172   1
  -6  -9  -2 6.71955 1.50862   2
  -6   9  -2 6.24677 1.07584   2
  -7 -10   2 0.78468 0.89065   2
  -7 -10   2 1.09957 0.89356   1
  -7  10   2 0.22200 0.57928   2
  -6 -10   2 17.3411 2.10911   1
  -6 -10   2 14.0749 1.88148   2
  -6  10   2 12.5693 1.54413   2
  -5 -10   2 213.362 6.95395   1
  -5 -10   2 232.872 6.89314   2
  -5  10   2 214.895 6.11822   2
  -5  10   2 224.157 6.26146   1
  -4 -10   2 75.0856 3.10196   2
   4 -10  -2 75.3591 2.79910   1
  -4 -10   2 73.2441 3.21137   1
  -4  10   2 73.1272 2.75092   1
  -4  10   2 74.3090 2.75758   2
   3 -10  -2 84.5285 2.89237   1
  -3 -10   2 86.3883 3.22270   1
  -3 -10   2 85.3713 3.08854   2
   3  10  -2 88.4260 3.13336   2
  -3  10   2 85.7730 2.88672   1
  -3  10   2 85.3271 2.84052   2
   2 -10  -2 10.9516 1.05253   1
  -2 -10   2 11.4510 0.92008   2
  -2 -10   2 9.05467 0.97768   1
  -2  10   2 10.8804 1.03159   1
   2  10  -2 11.6487 1.07783   2
  -2  10   2 11.0632 1.00895   2
  -1 -10   2 22.7861 1.09526   1
   1 -10  -2 20.7220 1.24888   1
  -1 -10   2 21.0135 0.96440   2
  -1  10   2 22.6107 1.25809   2
  -1  10   2 20.2125 1.23529   1
   1  10  -2 22.0850 1.05815   2
   1  10  -2 23.1176 1.18588   1
   0 -10   2 20.4093 0.72233   1
   0 -10  -2 20.4344 1.32562   1
   0  10  -2 18.9706 0.74692   2
   0  10   2 18.7964 1.24688   1
   0  10   2 20.0015 1.26233   2
  -1 -10  -2 14.4658 1.19598   1
  -1 -10  -2 14.7207 1.43168   1
  -1 -10  -2 12.7269 1.24995   2
  -2 -10  -2 49.6318 2.47887   1
  -2 -10  -2 52.1319 2.42270   2
  -3 -10  -2 123.213 4.40237   2
  -3 -10  -2 119.846 4.53162   1
  -3  10  -2 121.498 3.03095   2
  -3  10  -2 120.140 3.03399   2
  -4 -10  -2 39.3161 2.62534   1
  -4 -10  -2 42.5494 2.61683   2
  -4  10  -2 43.7444 1.70910   2
  -5 -10  -2 7.11799 1.38032   2
  -5 -10  -2 6.90604 1.49188   1
  -5  10  -2 8.61433 1.04520   2
  -6 -10  -2 11.7493 1.90521   2
  -6 -10  -2 13.9040 2.16094   1
  -6  10  -2 9.93757 1.30060   2
  -7 -11   2 -0.1634 0.75786   1
  -7 -11   2 1.29135 0.95962   2
  -7  11   2 0.15463 0.56557   2
  -6 -11   2 0.00298 0.64334   1
  -6 -11   2 1.23212 0.81503   2
  -6  11   2 -0.2594 0.39546   2
  -5 -11   2 127.058 4.91019   1
  -5 -11   2 133.902 4.79865   2
  -5  11   2 119.994 4.06598   2
  -4 -11   2 46.9315 2.42639   2
  -4 -11   2 47.5297 2.52888   1
  -4  11   2 47.6603 2.11013   2
  -4  11   2 45.5412 2.06492   1
  -3 -11   2 1.94199 0.62322   2
   3 -11  -2 1.63977 0.52325   1
  -3 -11   2 1.14533 0.55186   1
   3  11  -2 0.81009 0.44174   2
  -3  11   2 1.47261 0.46328   1
  -3  11   2 0.78803 0.42175   2
  -2 -11   2 40.8352 1.85523   1
   2 -11  -2 41.8246 1.83307   1
  -2 -11   2 40.9362 1.75929   2
  -2  11   2 40.8038 1.78160   1
  -2  11   2 39.2215 1.74234   2
   2  11  -2 41.6954 1.81883   2
   1 -11  -2 27.4255 1.47040   1
  -1 -11   2 26.2219 1.21928   1
  -1 -11   2 24.9639 1.08073   2
   1  11  -2 28.8985 1.24148   2
  -1  11   2 26.8180 1.43086   2
  -1  11   2 27.6096 1.45013   1
   0 -11  -2 4.30957 0.76371   1
   0  11   2 5.08301 0.80117   2
   0  11   2 5.47100 0.82357   1
   0  11  -2 4.42073 0.40440   2
  -1 -11  -2 9.27730 1.11108   2
  -1 -11  -2 12.6448 1.37506   1
  -1 -11  -2 11.4082 1.30110   1
  -2 -11  -2 16.0697 1.64852   1
  -2 -11  -2 18.2904 1.47455   2
  -3 -11  -2 265.518 7.82185   1
  -3 -11  -2 258.197 7.48838   2
  -4 -11  -2 3.95859 1.05798   1
  -4 -11  -2 7.41213 1.37449   2
  -4  11  -2 6.40261 0.69900   2
  -5 -11  -2 5.47976 1.38341   2
  -5 -11  -2 6.88915 1.51634   1
  -5  11  -2 7.96342 0.94007   2
  -6 -11  -2 0.86263 0.92705   1
  -6 -11  -2 0.02404 0.89970   2
  -6  11  -2 0.04484 0.42564   2
  -6 -12   2 45.6469 2.94986   2
  -6 -12   2 42.5891 2.98593   1
  -6  12   2 48.3646 2.45984   2
  -5 -12   2 41.2270 2.65035   1
  -5 -12   2 40.8916 2.52410   2
  -5  12   2 40.6576 2.07402   2
  -4 -12   2 127.014 4.37159   2
  -4 -12   2 119.477 4.47019   1
  -4  12   2 122.324 4.06188   1
  -4  12   2 121.429 3.82076   2
  -3 -12   2 -0.4069 0.37492   1
  -3 -12   2 0.50841 0.46092   2
   3 -12  -2 0.67989 0.42205   1
   3  12  -2 0.43201 0.46061   2
  -3  12   2 1.14034 0.44193   1
  -3  12   2 0.81277 0.46206   2
   2 -12  -2 99.1884 3.22836   1
  -2 -12   2 96.5947 3.07408   2
  -2 -12   2 100.862 3.29050   1
   2  12  -2 95.7517 3.16376   2
  -2  12   2 99.8917 3.14747   2
  -2  12   2 103.494 3.20786   1
   1 -12  -2 9.69502 1.04968   1
  -1 -12   2 7.16346 0.74014   1
  -1 -12   2 8.34209 0.61908   2
   1  12  -2 8.99977 0.72536   2
  -1  12   2 8.34186 0.97697   1
  -1  12   2 8.69143 0.99474   2
   0 -12  -2 80.2237 3.01154   1
   0  12   2 81.8729 2.94898   1
  -1 -12  -2 53.3127 2.48788   1
  -1 -12  -2 54.5750 2.41470   2
  -1 -12  -2 54.2490 2.50469   1
  -2 -12  -2 161.458 5.03844   2
  -2 -12  -2 152.802 5.17227   1
  -3 -12  -2 101.017 4.21295   1
  -3 -12  -2 103.677 4.07377   2
  -4 -12  -2 48.7611 2.94637   1
  -4 -12  -2 38.6840 2.66480   2
  -4  12  -2 43.8424 1.48366   2
  -5 -12  -2 7.79678 1.57075   1
  -5 -12  -2 11.5750 1.79930   2
  -5  12  -2 11.6206 1.07048   2
  -6 -13   2 16.1999 2.28444   1
  -6 -13   2 15.7939 2.15072   2
  -6  13   2 16.3850 1.66436   2
  -5 -13   2 2.44004 0.90314   2
  -5 -13   2 3.37264 1.02013   1
  -5  13   2 2.91845 0.76427   2
  -4 -13   2 90.7677 3.56446   2
  -4 -13   2 78.2056 3.52780   1
  -4  13   2 84.2702 2.98614   2
  -3 -13   2 144.370 4.48688   2
  -3 -13   2 141.384 4.66128   1
  -3  13   2 143.174 4.16159   1
  -3  13   2 143.523 4.16020   2
  -2 -13   2 7.19319 0.87828   2
  -2 -13   2 8.81969 1.04665   1
   2 -13  -2 6.71977 0.88947   1
   2  13  -2 8.66096 1.00938   2
  -2  13   2 8.32191 0.97270   1
  -2  13   2 8.92507 1.00948   2
  -1 -13   2 39.9598 1.38390   2
  -1 -13   2 41.0569 1.60296   1
   1 -13  -2 36.2532 1.85092   1
   1 -13  -2 37.6240 1.86250   1
   1  13  -2 39.8564 1.58113   2
  -1  13   2 36.1824 1.80257   1
  -1  13   2 41.1693 1.89438   2
   0 -13  -2 2.18200 0.57469   2
   0 -13  -2 1.43042 0.57206   1
  -1 -13  -2 215.430 6.20361   1
  -1 -13  -2 209.853 6.17185   1
  -1 -13  -2 207.309 5.92131   2
  -2 -13  -2 53.0588 2.64098   2
  -2 -13  -2 55.5994 2.78838   1
  -3 -13  -2 0.78710 0.65142   2
  -3 -13  -2 0.21571 0.61272   1
  -4 -13  -2 1.69392 0.91432   1
  -4 -13  -2 3.98354 1.12237   2
  -5 -13  -2 21.1214 2.60726   1
  -5 -13  -2 18.9352 2.28659   2
  -6 -14   2 6.52976 1.54415   1
  -6  14   2 8.58576 1.24314   2
  -5 -14   2 2.98959 0.94464   1
  -5 -14   2 1.14627 0.79469   2
  -5  14   2 2.59265 0.72031   2
  -4 -14   2 12.6110 1.64011   1
  -4 -14   2 16.6472 1.74132   2
  -4  14   2 14.6286 1.34032   2
  -3 -14   2 6.15510 0.93679   2
  -3 -14   2 5.32080 0.99544   1
  -3  14   2 5.61635 0.83548   2
  -2 -14   2 181.806 4.92804   2
  -2 -14   2 183.324 5.22693   1
  -2  14   2 188.625 5.10306   1
  -2  14   2 187.136 5.10178   2
  -1 -14   2 8.82474 0.85946   1
   1 -14  -2 12.4946 1.27918   1
   1 -14  -2 8.84217 1.07177   1
  -1 -14   2 8.25117 0.62555   2
  -1 -14   2 9.67545 0.88011   1
  -1  14   2 7.05293 0.93048   2
  -1  14   2 9.44466 1.04499   1
   0 -14  -2 187.753 5.16363   2
   0 -14  -2 172.664 5.30054   1
  -1 -14  -2 44.6008 2.35550   1
  -1 -14  -2 47.3213 2.29289   2
  -2 -14  -2 12.0596 1.50109   1
  -2 -14  -2 14.0142 1.54622   2
  -3 -14  -2 35.6713 2.39161   2
  -3 -14  -2 36.2526 2.46912   1
  -4 -14  -2 19.7947 2.14905   2
  -4 -14  -2 20.9125 2.40796   1
  -5 -14  -2 1.14271 0.96823   1
  -5 -14  -2 3.70203 1.22338   2
  -6 -15   2 5.20171 1.44387   1
  -6  15   2 5.22982 0.98135   2
  -5 -15   2 2.72113 1.01063   1
  -5  15   2 4.23110 0.83146   2
  -4 -15   2 2.82855 0.89971   1
  -4  15   2 2.76702 0.66666   2
  -3 -15   2 50.0284 2.53503   1
  -3  15   2 52.0467 2.17699   2
  -2 -15   2 2.46215 0.63383   1
  -2  15   2 2.50655 0.62420   2
   1 -15  -2 94.2905 3.35736   1
   1 -15  -2 94.2523 3.27967   2
  -1 -15   2 97.2123 2.92119   1
  -1  15   2 98.5500 3.35295   2
   0 -15  -2 45.0761 2.11433   2
   0 -15  -2 44.6462 2.22629   1
  -1 -15  -2 72.5229 2.99294   2
  -1 -15  -2 73.5677 3.16658   1
  -2 -15  -2 1.29132 0.68180   2
  -2 -15  -2 1.37479 0.67799   1
  -3 -15  -2 5.42747 1.18604   2
  -3 -15  -2 6.80074 1.34441   1
  -4 -15  -2 0.48918 0.76691   2
  -5 -16   2 3.22199 1.08914   1
  -5  16   2 2.84607 0.70817   2
  -4 -16   2 5.99098 1.22799   1
  -4  16   2 6.73636 0.92406   2
  -3 -16   2 2.42396 0.79500   1
  -3  16   2 4.18439 0.74743   2
   2 -16  -2 14.6443 1.19886   1
  -2 -16   2 15.2905 1.40760   1
  -2  16   2 15.3578 1.37212   2
   1 -16  -2 5.57516 0.90085   1
  -1 -16   2 5.11546 0.67829   1
   0 -16  -2 19.3091 1.51452   1
  -1 -16  -2 33.8980 2.21155   2
  -1 -16  -2 28.4060 1.98063   1
  -2 -16  -2 1.27928 0.71788   2
  -2 -16  -2 1.96065 0.77426   1
  -3 -16  -2 7.11987 1.35199   2
  -3 -16  -2 3.67247 1.07064   1
  -4 -16  -2 18.9464 2.30962   1
  -5 -17   2 7.92785 1.53809   1
  -5  17   2 7.26164 0.99965   2
  -4  17   2 9.38213 1.09059   2
   3 -17  -2 28.6836 1.60441   1
  -3 -17   2 28.8056 1.96649   1
  -3  17   2 29.0031 1.62604   2
   2 -17  -2 48.5893 2.19033   1
  -2 -17   2 50.8347 2.29153   1
  -2  17   2 47.0347 2.14916   2
  -1 -17   2 2.38465 0.52138   1
   1 -17  -2 2.64476 0.68942   1
   0 -17  -2 9.80733 1.29561   1
  -1 -17  -2 39.9769 2.35210   1
  -2 -17  -2 0.00952 0.56375   1
  -3 -17  -2 13.2260 1.89093   1
  -4 -17  -2 4.67043 1.33004   1
  -4 -18   2 34.6163 2.43543   1
  -4  18   2 31.4978 1.71396   2
   3 -18  -2 18.1840 1.28335   1
  -3 -18   2 17.1812 1.76026   1
  -3  18   2 18.7358 1.32477   2
  -2 -18   2 34.7883 1.91221   1
   2 -18  -2 36.7457 1.87884   1
   1 -18  -2 2.97344 0.74266   1
  -1 -18   2 1.15346 0.43782   1
   0 -18  -2 31.6446 2.00922   1
  -1 -18  -2 0.75170 0.60303   1
  -2 -18  -2 51.9020 2.97312   1
  -3 -18  -2 21.1935 2.39403   1
  -4 -19   2 -0.3079 0.63400   1
  -3 -19   2 33.7330 2.18909   1
   3 -19  -2 33.3626 1.68432   1
   2 -19  -2 0.18235 0.46159   1
  -2 -19   2 0.39661 0.48735   1
  -1 -19   2 8.91759 0.83808   1
   1 -19  -2 7.89593 1.10894   1
   0 -19  -2 10.0976 1.34760   1
  -1 -19  -2 65.4419 3.19912   1
  -2 -19  -2 9.83903 1.65152   1
  -3 -20   2 0.72307 0.69842   1
  -2 -20   2 6.58054 1.04221   1
   2 -20  -2 6.67761 0.95804   1
   1 -20  -2 0.30371 0.48187   1
   0 -20  -2 9.46353 1.36552   1
  -1 -20  -2 0.88277 0.76465   1
  -2 -20  -2 3.53124 1.04642   1
   1 -21  -2 1.93356 0.69065   1
   0 -21  -2 7.63155 1.26011   1
  -8   0   3 1.39750 0.90806   2
  -8   0   3 -0.1275 0.59000   1
  -7   0   3 0.74354 0.69276   1
  -7   0   3 1.07786 0.74040   2
  -6   0   3 -0.2748 0.39589   1
  -6   0   3 0.39540 0.52539   2
  -5   0   3 0.19743 0.45846   1
  -5   0   3 -0.1606 0.39955   2
  -4   0   3 0.60604 0.41327   2
  -4   0   3 0.14684 0.36201   1
   3   0  -3 0.67328 0.36216   1
  -3   0   3 0.08414 0.26542   2
  -3   0   3 0.63809 0.37785   1
   2   0  -3 0.19401 0.29822   2
  -2   0   3 0.06544 0.28081   2
  -2   0   3 0.72271 0.38455   1
   2   0  -3 0.56119 0.32018   1
  -1   0   3 1.03443 0.36522   1
   1   0  -3 0.80920 0.33072   1
   1   0  -3 1.06424 0.37744   2
  -1   0   3 -0.0103 0.26568   2
   0   0   3 0.75445 0.35447   1
   0   0   3 0.63839 0.31492   2
   0   0  -3 0.25051 0.27393   2
   1   0   3 0.79948 0.38747   1
  -1   0  -3 0.17751 0.29224   2
  -1   0  -3 0.66721 0.34463   1
  -1   0  -3 0.69918 0.36469   1
   1   0   3 0.64593 0.33402   2
  -2   0  -3 0.25350 0.33253   1
  -2   0  -3 0.28551 0.34724   2
  -3   0  -3 0.11350 0.33297   1
  -3   0  -3 0.37087 0.42076   2
  -3   0  -3 0.31357 0.38743   2
  -4   0  -3 0.46775 0.48035   1
  -4   0  -3 1.12220 0.59027   2
  -5   0  -3 0.58085 0.56721   1
  -5   0  -3 0.55202 0.59229   2
  -6   0  -3 -0.2566 0.45238   2
  -8  -1   3 0.11801 0.73866   1
  -8  -1   3 0.52763 0.78197   2
  -8   1   3 -0.6009 0.64458   1
  -8   1   3 0.58641 0.81199   2
  -7  -1   3 39.1152 2.77585   1
  -7  -1   3 38.1522 2.67125   2
  -7   1   3 40.4548 2.73013   1
  -7   1   3 38.3676 2.63192   2
  -6  -1   3 0.09080 0.52915   1
  -6  -1   3 0.72503 0.60045   2
  -6   1   3 -0.0109 0.42583   2
  -6   1   3 0.13652 0.48889   1
  -5  -1   3 0.47632 0.50019   2
  -5  -1   3 0.04563 0.45996   1
  -5   1   3 0.65439 0.50119   1
  -5   1   3 0.27128 0.42564   2
  -4  -1   3 4.19791 0.76316   2
  -4  -1   3 5.97222 0.92436   1
  -4   1   3 4.38629 0.81051   2
  -4   1   3 5.17003 0.87597   1
  -3  -1   3 13.3260 1.10367   1
  -3  -1   3 10.1360 1.02131   2
   3  -1  -3 13.0839 1.08585   1
   3   1  -3 15.5556 1.12287   2
  -3   1   3 13.6463 1.28321   1
  -3   1   3 14.6124 1.08288   2
  -2  -1   3 31.4958 1.45924   2
   2  -1  -3 31.3333 1.47216   2
  -2  -1   3 28.8415 1.47488   1
   2  -1  -3 29.7917 1.48369   1
  -2   1   3 29.6051 1.49459   1
   2   1  -3 31.6820 1.50149   1
   2   1  -3 28.3628 1.40482   2
  -2   1   3 29.4423 1.44852   2
   1  -1  -3 240.077 5.77365   2
  -1  -1   3 224.684 5.80457   1
  -1  -1   3 235.713 5.68440   2
   1  -1  -3 243.383 5.92743   1
  -1   1   3 234.436 5.75539   2
   1   1  -3 234.618 5.68129   2
  -1   1   3 230.915 5.90121   1
   0  -1   3 528.559 11.6716   2
   0  -1   3 525.868 11.9820   1
   0  -1  -3 544.467 12.1385   1
   0  -1  -3 541.055 11.8191   2
   0   1   3 531.105 12.1109   1
   0   1  -3 540.575 11.9820   1
   0   1  -3 544.934 11.7047   2
   0   1   3 525.750 11.7939   2
  -1  -1  -3 304.493 7.38576   2
  -1  -1  -3 312.133 7.64033   1
   1  -1   3 306.109 7.24896   2
   1  -1   3 310.880 7.46856   1
  -1   1  -3 312.999 7.48143   1
   1   1   3 309.184 7.41038   2
   1   1   3 309.000 7.60578   1
  -1   1  -3 306.723 7.43594   1
  -1   1  -3 303.569 7.25347   2
  -2  -1  -3 0.29132 0.33127   1
  -2  -1  -3 0.15490 0.34907   2
  -2   1  -3 0.51333 0.34310   1
  -2   1  -3 0.13094 0.31859   2
  -3  -1  -3 104.127 3.72663   1
  -3  -1  -3 101.305 3.61191   2
  -3   1  -3 108.447 3.55821   2
  -3   1  -3 102.952 3.50260   2
  -3   1  -3 97.4174 3.51249   1
  -4  -1  -3 7.70519 1.18453   2
  -4  -1  -3 7.92912 1.25628   1
  -4   1  -3 8.72060 1.27027   1
  -4   1  -3 7.44922 1.13632   2
  -5  -1  -3 33.5757 2.27961   1
  -5  -1  -3 30.0593 2.20370   2
  -5   1  -3 27.5677 2.07235   1
  -5   1  -3 31.0368 2.14255   2
  -6  -1  -3 -0.2916 0.58048   1
  -6  -1  -3 -0.2449 0.55766   2
  -6   1  -3 0.20254 0.59688   2
  -8  -2   3 4.96016 1.47132   1
  -8  -2   3 5.24019 1.46305   2
  -8   2   3 4.87923 1.34478   2
  -8   2   3 3.91672 1.24906   1
  -7  -2   3 127.270 5.20845   1
  -7  -2   3 114.300 4.84921   2
  -7   2   3 121.376 4.98741   1
  -7   2   3 114.383 4.74714   2
  -6  -2   3 7.41093 1.29567   2
  -6  -2   3 6.43473 1.24352   1
  -6   2   3 8.11778 1.37661   1
  -6   2   3 6.04365 1.11092   2
  -5  -2   3 142.864 4.83376   2
  -5  -2   3 146.463 4.98228   1
  -5   2   3 143.422 4.88554   1
  -5   2   3 150.201 4.79875   2
  -4  -2   3 296.266 7.89659   1
  -4  -2   3 293.820 7.67819   2
  -4   2   3 291.899 7.59255   2
  -4   2   3 303.967 7.85606   1
   3  -2  -3 107.013 3.39302   1
  -3  -2   3 100.569 3.24714   2
  -3  -2   3 96.5512 3.31958   1
  -3   2   3 96.1558 3.30150   1
  -3   2   3 101.651 3.27279   2
   3   2  -3 96.5660 3.20431   2
   2  -2  -3 42.8712 1.82993   1
  -2  -2   3 44.1046 1.77532   2
   2  -2  -3 45.7247 1.82838   2
  -2  -2   3 41.1936 1.79137   1
   2   2  -3 45.7189 1.80674   2
  -2   2   3 41.0122 1.81136   1
   2   2  -3 42.5330 1.79187   1
  -2   2   3 41.3903 1.78293   2
   1  -2  -3 35.4567 1.57490   1
  -1  -2   3 35.1974 1.49836   1
  -1  -2   3 36.6651 1.45673   2
   1  -2  -3 34.4404 1.51726   2
   1   2  -3 34.6128 1.46959   1
  -1   2   3 32.1449 1.48464   2
  -1   2   3 33.3731 1.56423   1
   1   2  -3 35.8098 1.47363   2
   0  -2   3 156.230 4.21707   1
   0  -2  -3 169.860 4.50643   1
   0  -2  -3 164.273 4.34772   2
   0  -2   3 161.450 4.11785   2
   0   2  -3 162.209 4.13653   2
   0   2   3 161.751 4.45747   1
   0   2  -3 163.449 4.23637   1
   0   2   3 155.361 4.30881   2
   1  -2   3 37.0826 1.54533   2
  -1  -2  -3 38.1094 1.80464   1
   1  -2   3 38.6388 1.62841   1
  -1  -2  -3 39.0917 1.73891   2
   1   2   3 40.5851 1.78105   2
  -1   2  -3 39.6905 1.58785   2
  -1   2  -3 37.2790 1.58336   1
   1   2   3 37.5676 1.76835   1
  -1   2  -3 37.7201 1.60276   1
  -2  -2  -3 73.0024 2.83051   1
  -2  -2  -3 75.0230 2.76592   2
  -2   2  -3 72.9527 2.58137   1
  -2   2  -3 71.8190 2.51414   2
  -3  -2  -3 2.91287 0.76365   1
  -3  -2  -3 2.92322 0.74046   2
  -3   2  -3 2.92129 0.66692   1
  -3   2  -3 2.22419 0.59270   2
  -3   2  -3 4.02036 0.74249   2
  -4  -2  -3 10.9940 1.44318   2
  -4  -2  -3 7.04258 1.19688   1
  -4   2  -3 9.65061 1.26098   1
  -4   2  -3 7.71266 1.11765   2
  -5  -2  -3 0.86739 0.68718   1
  -5  -2  -3 -0.1168 0.48364   2
  -5   2  -3 0.09095 0.49137   1
  -5   2  -3 0.38411 0.51186   2
  -6  -2  -3 43.2929 2.84689   2
  -6  -2  -3 41.9357 2.92393   1
  -6   2  -3 32.9059 2.43167   2
  -8  -3   3 -0.2893 0.77836   1
  -8  -3   3 -0.8041 0.64815   2
  -8   3   3 0.41416 0.88524   1
  -8   3   3 -0.0065 0.64591   2
  -7  -3   3 27.1596 2.76223   1
  -7  -3   3 25.5812 2.60229   2
  -7   3   3 21.9613 2.32937   2
  -7   3   3 24.7950 2.53763   1
  -6  -3   3 34.5980 2.33890   2
  -6  -3   3 37.5317 2.49150   1
  -6   3   3 40.9011 2.41012   2
  -6   3   3 37.8186 2.39637   1
  -5  -3   3 82.4642 3.45631   1
  -5  -3   3 79.1741 3.31626   2
  -5   3   3 78.4053 3.30236   1
  -5   3   3 75.8696 3.15752   2
  -4  -3   3 6.93873 1.00337   1
  -4  -3   3 6.57261 0.99047   2
  -4   3   3 6.71322 0.99346   2
  -4   3   3 7.53532 1.07061   1
  -3  -3   3 140.338 4.32190   1
   3  -3  -3 138.887 4.25630   1
  -3  -3   3 136.211 4.13154   2
  -3   3   3 141.352 4.18049   2
   3   3  -3 151.483 4.26011   2
  -3   3   3 151.179 4.46005   1
   2  -3  -3 76.0652 2.62756   1
  -2  -3   3 75.3952 2.49891   2
   2  -3  -3 76.2561 2.54785   2
  -2  -3   3 72.7513 2.54526   1
   2   3  -3 74.6876 2.47887   2
  -2   3   3 77.5179 2.57666   2
  -2   3   3 68.6102 2.56072   1
   1  -3  -3 79.7503 2.55257   2
  -1  -3   3 74.0250 2.42338   1
  -1  -3   3 78.7048 2.38215   2
   1  -3  -3 77.7548 2.61935   1
   1   3  -3 74.2368 2.41034   1
  -1   3   3 74.7350 2.52699   2
  -1   3   3 73.7645 2.57244   1
   1   3  -3 79.9373 2.40067   2
   0  -3  -3 9.59388 0.99923   1
   0  -3   3 8.55364 0.71405   1
   0  -3   3 8.02506 0.72708   2
   0  -3  -3 10.5002 0.98228   2
   0   3   3 10.1021 0.99862   2
   0   3   3 9.80411 1.00998   1
   0   3  -3 9.22433 0.71283   2
   0   3  -3 8.72326 0.69700   1
  -1  -3  -3 252.393 6.52492   1
  -1  -3  -3 247.236 6.26722   2
   1  -3   3 242.383 6.01904   1
   1  -3   3 252.680 5.87958   2
  -1   3  -3 247.795 5.89238   2
  -1   3  -3 247.924 6.01239   1
   1   3   3 240.287 6.41720   1
   1   3   3 239.237 6.26265   2
  -1   3  -3 246.574 6.03677   1
  -2  -3  -3 427.292 10.6244   1
  -2   3  -3 430.761 10.1049   1
  -2   3  -3 443.294 9.89014   2
  -3  -3  -3 0.97772 0.51989   1
  -3  -3  -3 1.55090 0.62666   2
  -3   3  -3 0.96909 0.47749   1
  -3   3  -3 1.40885 0.49624   2
  -3   3  -3 1.75212 0.53336   2
  -4  -3  -3 442.837 11.7931   1
  -4  -3  -3 462.922 11.5999   2
  -4   3  -3 468.225 11.2838   1
  -4   3  -3 439.436 11.2681   2
  -4   3  -3 457.284 11.0566   2
  -5  -3  -3 66.8154 3.48771   1
  -5  -3  -3 72.0257 3.52891   2
  -5   3  -3 68.4619 3.13116   2
  -5   3  -3 68.7068 3.21093   1
  -6  -3  -3 3.40803 1.12646   2
  -6  -3  -3 5.40432 1.39398   1
  -6   3  -3 3.52680 1.00609   2
  -8  -4   3 -0.4094 0.72588   2
  -8  -4   3 -0.2778 0.72833   1
  -8   4   3 -0.1203 0.62972   2
  -7  -4   3 57.6634 3.35225   2
  -7  -4   3 59.4099 3.50134   1
  -7   4   3 64.2150 3.31891   2
  -7   4   3 62.3493 3.37959   1
  -6  -4   3 33.4699 2.31056   2
  -6  -4   3 36.8943 2.48802   1
  -6   4   3 29.9448 2.14100   1
  -6   4   3 31.0026 2.11523   2
  -5  -4   3 31.3808 2.11310   1
  -5  -4   3 31.0691 2.01686   2
  -5   4   3 32.3078 2.00153   1
  -5   4   3 29.3367 1.86758   2
  -4  -4   3 3.03060 0.75534   1
   4  -4  -3 1.79636 0.58755   1
  -4  -4   3 1.57240 0.59506   2
  -4   4   3 2.10622 0.60057   2
  -4   4   3 2.81360 0.68033   1
  -3  -4   3 71.6585 2.72590   1
   3  -4  -3 72.5745 2.70924   1
  -3  -4   3 75.4432 2.68607   2
   3   4  -3 74.2621 2.68097   2
  -3   4   3 67.9241 2.64584   1
  -3   4   3 70.0836 2.60951   2
  -2  -4   3 122.995 3.51439   2
  -2  -4   3 120.855 3.60404   1
   2  -4  -3 121.611 3.71294   1
  -2   4   3 119.671 3.60069   2
  -2   4   3 122.750 3.72518   1
   2   4  -3 125.391 3.54802   2
   2   4  -3 125.353 3.83596   1
   1  -4  -3 77.7384 2.59521   2
  -1  -4   3 80.5744 2.39806   2
  -1  -4   3 78.8617 2.45957   1
   1  -4  -3 77.4157 2.67571   1
   1   4  -3 79.8144 2.40742   2
  -1   4   3 74.6325 2.64840   1
  -1   4   3 77.4981 2.61291   2
   1   4  -3 78.3084 2.44830   1
   0  -4  -3 41.0753 1.83502   1
   0  -4   3 42.9297 1.58108   1
   0  -4  -3 40.5840 1.78121   2
   0  -4   3 40.6429 1.48475   2
   0   4   3 41.1372 1.85283   1
   0   4  -3 44.5802 1.61271   1
   0   4   3 42.2968 1.82604   2
   0   4  -3 42.8004 1.53045   2
  -1  -4  -3 1.21796 0.47053   1
   1  -4   3 1.81234 0.41850   1
   1   4   3 1.56520 0.47431   2
  -1   4  -3 1.97869 0.41950   1
  -1   4  -3 1.75397 0.39165   1
  -1   4  -3 1.97641 0.40028   2
   1   4   3 1.90394 0.54521   1
  -2  -4  -3 182.175 5.49998   1
  -2   4  -3 189.851 4.85081   2
  -2   4  -3 190.851 4.94581   1
  -3  -4  -3 84.5132 3.45881   1
  -3  -4  -3 80.7590 3.30185   2
  -3   4  -3 85.0456 2.94794   1
  -3   4  -3 78.8689 2.84181   2
  -3   4  -3 87.0469 2.92624   2
  -4  -4  -3 118.735 4.54629   1
  -4  -4  -3 111.025 4.34013   2
  -4   4  -3 113.922 3.90570   1
  -4   4  -3 111.891 3.84218   2
  -5  -4  -3 11.2248 1.65779   2
  -5  -4  -3 13.6323 1.87361   1
  -5   4  -3 12.7188 1.51867   2
  -6  -4  -3 0.70960 0.80469   1
  -6  -4  -3 0.28461 0.73874   2
  -6   4  -3 0.02354 0.47526   2
  -8  -5   3 49.8504 3.53935   1
  -8  -5   3 50.5631 3.42045   2
  -8   5   3 47.4487 3.08553   2
  -7  -5   3 29.9409 3.01464   1
  -7  -5   3 26.1113 2.63932   2
  -7   5   3 27.1921 2.69316   1
  -7   5   3 26.4242 2.13513   2
  -6  -5   3 121.292 4.80758   1
  -6  -5   3 115.301 4.54419   2
  -6   5   3 108.739 4.37177   1
  -6   5   3 114.040 4.30896   2
  -5  -5   3 93.9946 3.77105   2
  -5  -5   3 98.1901 3.96043   1
  -5   5   3 97.6840 3.76300   1
  -5   5   3 101.680 3.70686   2
  -4  -5   3 3.93197 0.78513   2
   4  -5  -3 2.96141 0.72913   1
  -4  -5   3 2.73899 0.71047   1
  -4   5   3 3.70758 0.75089   2
  -4   5   3 3.91808 0.82503   1
  -3  -5   3 44.3932 2.08910   1
   3  -5  -3 47.7795 2.11606   1
  -3  -5   3 48.0150 2.07191   2
  -3   5   3 47.7656 2.11264   1
   3   5  -3 48.6856 2.09675   2
  -3   5   3 47.3863 2.06308   2
  -2  -5   3 4.11756 0.62183   2
   2  -5  -3 3.69263 0.63322   1
  -2  -5   3 3.82197 0.64062   1
  -2   5   3 5.03061 0.73909   2
   2   5  -3 4.33401 0.62315   2
  -2   5   3 6.26156 0.81637   1
   1  -5  -3 12.1596 0.97730   1
  -1  -5   3 13.1592 0.86154   1
  -1  -5   3 16.5812 0.90096   2
   1  -5  -3 11.2102 1.06585   2
  -1   5   3 12.2828 0.98879   1
   1   5  -3 12.3491 0.81502   2
   1   5  -3 10.8535 0.78479   1
  -1   5   3 9.35888 0.96584   2
   0  -5   3 184.732 4.52735   1
   0  -5  -3 186.494 5.07481   1
   0  -5   3 182.965 4.36124   2
   0   5  -3 176.158 4.47195   1
   0   5   3 186.399 5.09992   1
   0   5  -3 175.552 4.39430   2
   0   5   3 182.608 4.95802   2
   1  -5   3 306.905 7.19907   1
  -1  -5  -3 312.668 7.99062   1
  -1   5  -3 312.576 7.18694   1
  -1   5  -3 313.762 7.06933   2
  -1   5  -3 310.304 7.18406   1
   1   5   3 308.164 7.76007   2
   1   5   3 311.947 7.95178   1
  -2  -5  -3 621.040 14.8340   1
  -2   5  -3 644.221 13.6583   2
  -2   5  -3 622.263 13.9146   1
  -3  -5  -3 43.9249 2.43419   1
  -3  -5  -3 44.5747 2.37690   2
  -3   5  -3 42.8693 1.90772   2
  -3   5  -3 44.9210 1.92889   1
  -3   5  -3 43.5310 1.90852   2
  -4  -5  -3 6.97252 1.23078   2
  -4  -5  -3 5.89838 1.17577   1
  -4   5  -3 6.45135 0.98083   1
  -4   5  -3 7.48625 1.05896   2
  -5  -5  -3 3.37348 1.04062   2
  -5  -5  -3 5.52983 1.30168   1
  -5   5  -3 4.09770 0.92676   2
  -6  -5  -3 39.5639 2.99292   1
  -6  -5  -3 46.0618 3.10351   2
  -6   5  -3 43.0711 2.59857   2
  -8  -6   3 5.35252 1.68312   1
  -8  -6   3 8.71535 1.71642   2
  -8   6   3 8.63022 1.61886   2
  -7  -6   3 31.5841 2.55477   2
  -7  -6   3 31.5000 3.00527   1
  -7   6   3 33.2590 2.45854   1
  -7   6   3 31.1036 2.30469   2
  -6  -6   3 0.72385 0.63676   2
  -6  -6   3 0.51204 0.65530   1
  -6   6   3 0.13174 0.49378   1
  -6   6   3 0.42602 0.51328   2
  -5  -6   3 22.6490 2.09932   2
  -5  -6   3 19.6708 1.92230   1
  -5   6   3 20.9985 1.65904   1
  -5   6   3 22.5390 1.64144   2
   4  -6  -3 243.084 6.62305   1
  -4  -6   3 243.281 6.62120   2
  -4  -6   3 231.396 6.76867   1
  -4   6   3 235.415 6.59156   1
  -4   6   3 236.310 6.43322   2
  -3  -6   3 31.2753 1.71773   1
  -3  -6   3 32.5697 1.67351   2
   3  -6  -3 30.8454 1.69618   1
  -3   6   3 33.7960 1.75593   1
  -3   6   3 29.5552 1.62809   2
   3   6  -3 31.5838 1.66536   2
  -2  -6   3 72.2075 2.56366   1
   2  -6  -3 73.2254 2.69795   1
  -2  -6   3 75.6395 2.49694   2
  -2   6   3 74.2136 2.61521   2
   2   6  -3 77.5466 2.54654   2
  -2   6   3 72.7072 2.69281   1
   1  -6  -3 20.1199 1.28887   1
  -1  -6   3 19.8896 1.00518   2
  -1  -6   3 19.5121 1.07901   1
  -1   6   3 18.9321 1.23939   1
   1   6  -3 21.6696 1.07499   2
   1   6  -3 19.0233 1.02825   1
  -1   6   3 19.5506 1.24762   2
   0  -6   3 256.695 5.83967   2
   0  -6   3 258.023 6.06503   1
   0  -6  -3 263.494 6.77463   1
   0   6   3 257.842 6.61611   2
   0   6   3 262.435 6.80071   1
   0   6  -3 259.322 6.04782   1
   0   6  -3 260.729 5.95844   2
  -1  -6  -3 5.80254 0.90392   1
   1  -6   3 5.09784 0.58440   1
   1   6   3 5.50287 0.84447   2
  -1   6  -3 6.59284 0.62949   1
  -1   6  -3 6.04789 0.59229   1
  -1   6  -3 6.30572 0.61586   2
   1   6   3 5.30871 0.82398   1
  -2  -6  -3 37.7087 2.11975   1
  -2   6  -3 39.7112 1.51552   1
  -2   6  -3 37.9949 1.52549   2
  -2   6  -3 35.8931 1.48511   2
  -3  -6  -3 205.245 6.32741   1
  -3  -6  -3 199.032 6.08835   2
  -3   6  -3 199.399 5.22803   2
  -3   6  -3 196.899 5.23933   1
  -3   6  -3 197.160 5.21988   2
  -4  -6  -3 1.24313 0.72423   2
  -4  -6  -3 0.57842 0.67128   1
  -4   6  -3 0.99810 0.51032   1
  -4   6  -3 1.02837 0.47219   2
  -5  -6  -3 39.2052 2.74132   2
  -5  -6  -3 40.6307 2.82546   1
  -5   6  -3 43.1246 2.28756   2
  -6  -6  -3 6.83817 1.61171   1
  -6  -6  -3 6.92576 1.55046   2
  -6   6  -3 6.94488 1.25483   2
  -7  -7   3 1.87761 0.98822   2
  -7  -7   3 2.22432 1.09350   1
  -7   7   3 2.37655 0.90638   2
  -6  -7   3 -0.1827 0.54640   1
  -6  -7   3 1.59499 0.82628   2
  -6   7   3 -0.5735 0.41117   1
  -6   7   3 1.54957 0.62061   2
  -5  -7   3 8.37728 1.30345   1
  -5  -7   3 9.23836 1.30678   2
  -5   7   3 7.90150 1.13659   2
  -5   7   3 10.4992 1.42234   1
  -4  -7   3 201.197 5.75726   2
   4  -7  -3 192.471 5.63896   1
  -4  -7   3 189.953 5.84594   1
  -4   7   3 197.957 5.68555   1
  -4   7   3 189.036 5.50627   2
   3  -7  -3 76.6023 2.84039   1
  -3  -7   3 70.4282 2.71187   2
  -3  -7   3 71.4152 2.82009   1
  -3   7   3 75.7251 2.76010   2
  -3   7   3 72.3073 2.78260   1
   3   7  -3 77.7779 2.82128   2
   2  -7  -3 91.9770 3.33902   1
  -2  -7   3 103.102 3.10162   2
  -2  -7   3 100.253 3.20765   1
   2   7  -3 101.013 3.11538   2
  -2   7   3 111.026 3.43919   1
  -2   7   3 107.662 3.32874   2
  -1  -7   3 135.413 3.49168   2
   1  -7  -3 134.678 4.07157   1
  -1  -7   3 136.691 3.68699   1
  -1   7   3 130.807 4.03965   1
   1   7  -3 136.089 3.57369   2
   1   7  -3 134.833 3.62093   1
  -1   7   3 131.203 3.96111   2
   0  -7   3 78.4640 2.12091   2
   0  -7  -3 83.7562 2.96483   1
   0  -7   3 75.6845 2.25254   1
   0   7   3 78.8212 2.84657   2
   0   7  -3 77.5330 2.22828   1
   0   7  -3 81.5933 2.26404   2
   0   7   3 80.9950 2.93135   1
   1  -7   3 85.3844 2.34553   1
  -1  -7  -3 81.6608 3.19966   1
   1   7   3 82.2661 3.12926   1
  -1   7  -3 85.7470 2.30699   1
  -1   7  -3 82.0114 2.31967   2
  -1   7  -3 84.2398 2.29464   1
   1   7   3 81.3937 3.10412   2
  -2  -7  -3 41.7446 2.14638   2
  -2  -7  -3 39.0152 2.18323   1
  -2   7  -3 38.7245 1.44298   1
  -2   7  -3 40.2599 1.52216   2
  -2   7  -3 38.1254 1.48825   2
  -3  -7  -3 7.64090 1.31807   1
  -3  -7  -3 5.35896 1.06625   2
  -3   7  -3 7.26631 0.83541   2
  -3   7  -3 8.30074 0.87920   1
  -3   7  -3 8.14861 0.86939   2
  -4  -7  -3 69.8653 3.40949   2
  -4  -7  -3 73.1239 3.61954   1
  -4   7  -3 68.1752 2.64918   2
  -5  -7  -3 22.6915 2.46723   2
  -5  -7  -3 22.6675 2.48908   1
  -5   7  -3 22.0071 1.61998   2
  -6  -7  -3 0.70118 0.92315   1
  -6  -7  -3 0.92308 0.91694   2
  -6   7  -3 1.37406 0.68636   2
  -7  -8   3 0.35610 0.74994   2
  -7  -8   3 0.65065 0.86602   1
  -7   8   3 0.50624 0.66123   2
  -6  -8   3 1.74614 0.85261   1
  -6  -8   3 1.61859 0.84684   2
  -6   8   3 4.58476 1.09734   1
  -6   8   3 2.83021 0.87341   2
  -5  -8   3 11.9032 1.52768   2
  -5  -8   3 10.5133 1.50262   1
  -5   8   3 8.50155 1.23163   1
  -5   8   3 11.0553 1.37665   2
  -4  -8   3 13.7867 1.57048   1
  -4  -8   3 16.4073 1.61515   2
   4  -8  -3 13.5232 1.38245   1
  -4   8   3 15.2170 1.56216   1
  -4   8   3 15.8337 1.54538   2
  -3  -8   3 69.4975 2.74972   1
   3  -8  -3 70.8099 2.73248   1
  -3  -8   3 68.3286 2.64822   2
   3   8  -3 68.1239 2.64993   2
  -3   8   3 66.0498 2.66371   1
  -3   8   3 67.8158 2.61800   2
   2  -8  -3 22.6648 1.49132   1
  -2  -8   3 30.6552 1.53342   1
  -2  -8   3 28.9628 1.42206   2
   2   8  -3 30.7008 1.47319   2
  -2   8   3 32.3318 1.63875   2
  -2   8   3 29.8298 1.62585   1
  -1  -8   3 1.16504 0.34396   2
  -1  -8   3 1.29742 0.38997   1
   1  -8  -3 0.92257 0.44527   1
   1   8  -3 1.20191 0.36113   2
  -1   8   3 1.90955 0.56751   1
  -1   8   3 0.71016 0.40309   2
   0  -8   3 2.64588 0.33342   2
   0  -8   3 2.17395 0.36737   1
   0  -8  -3 2.73473 0.62548   1
   0   8   3 1.84876 0.54740   2
   0   8   3 2.08970 0.61089   1
   0   8  -3 3.08996 0.40642   1
   0   8  -3 2.04604 0.36490   2
  -1  -8  -3 330.649 8.65505   1
   1  -8   3 326.215 7.27966   1
  -1   8  -3 320.287 7.17964   2
  -1   8  -3 330.381 7.18452   1
  -1   8  -3 334.787 7.20868   1
   1   8   3 332.980 8.56291   1
  -2  -8  -3 124.868 4.40152   1
  -2  -8  -3 119.417 4.21381   2
  -2   8  -3 123.176 3.21595   2
  -2   8  -3 122.451 3.10774   1
  -2   8  -3 125.932 3.24042   2
  -3  -8  -3 49.5380 2.78884   1
  -3  -8  -3 53.8689 2.76841   2
  -3   8  -3 52.5146 1.97866   2
  -3   8  -3 52.0401 1.87245   1
  -3   8  -3 55.8337 2.00073   2
  -4  -8  -3 0.68848 0.68634   1
  -4  -8  -3 -0.0114 0.54474   2
  -4   8  -3 0.58529 0.42171   2
  -5  -8  -3 2.90547 1.05385   1
  -5  -8  -3 3.04542 1.07688   2
  -5   8  -3 3.11912 0.78351   2
  -6  -8  -3 0.12761 0.90839   1
  -6  -8  -3 -0.5381 0.75631   2
  -6   8  -3 0.83881 0.59909   2
  -7  -9   3 11.7934 1.90540   2
  -7  -9   3 12.5793 2.07325   1
  -7   9   3 10.5152 1.59485   2
  -6  -9   3 9.11551 1.53854   1
  -6  -9   3 11.6641 1.72670   2
  -6   9   3 12.9716 1.60175   2
  -5  -9   3 124.206 4.68793   1
  -5  -9   3 121.353 4.47278   2
  -5   9   3 117.818 4.21413   1
  -5   9   3 111.908 4.06227   2
  -4  -9   3 10.1224 1.25206   2
  -4  -9   3 9.80867 1.27229   1
   4  -9  -3 8.63984 1.12627   1
  -4   9   3 10.7800 1.27345   2
  -4   9   3 13.3283 1.43528   1
   3  -9  -3 0.52248 0.41890   1
  -3  -9   3 1.69359 0.54398   2
  -3  -9   3 2.05581 0.63962   1
  -3   9   3 1.25784 0.53183   2
  -3   9   3 2.28526 0.60455   1
   3   9  -3 1.60874 0.55102   2
  -2  -9   3 148.605 4.29175   1
  -2  -9   3 148.273 4.10608   2
   2   9  -3 151.318 4.20877   2
  -2   9   3 149.734 4.40387   2
  -2   9   3 152.011 4.50682   1
   1  -9  -3 176.782 5.08466   1
  -1  -9   3 174.341 4.50416   1
  -1  -9   3 177.809 4.30077   2
  -1   9   3 173.354 5.06694   1
  -1   9   3 174.892 4.97435   2
   1   9  -3 178.215 4.43658   2
   0  -9   3 237.063 5.44635   1
   0  -9  -3 235.160 6.48928   1
   0  -9   3 241.015 5.07355   2
   0   9   3 235.692 6.37252   2
   0   9  -3 230.424 5.36902   2
   0   9  -3 241.716 5.37363   1
   0   9   3 236.653 6.49365   1
  -1  -9  -3 41.6743 2.21035   1
  -1   9  -3 41.2892 1.29688   2
   1   9   3 40.0846 2.13756   1
  -2  -9  -3 118.924 4.19184   2
  -2  -9  -3 119.536 4.35640   1
  -2   9  -3 113.323 2.97763   2
  -2   9  -3 119.879 3.01273   2
  -3  -9  -3 49.9530 2.80900   1
  -3  -9  -3 51.0004 2.76915   2
  -3   9  -3 49.7796 1.81452   2
  -3   9  -3 51.9899 2.03604   2
  -4  -9  -3 35.5375 2.57487   1
  -4  -9  -3 38.0158 2.56408   2
  -4   9  -3 35.5958 1.70519   2
  -5  -9  -3 0.53801 0.75666   1
  -5  -9  -3 3.15279 1.13154   2
  -5   9  -3 2.31499 0.68544   2
  -7 -10   3 9.81128 1.87446   1
  -7 -10   3 8.81967 1.69566   2
  -7  10   3 11.5596 1.73822   2
  -6 -10   3 0.63265 0.76341   2
  -6 -10   3 1.71525 0.90914   1
  -6  10   3 1.98764 0.75147   2
  -5 -10   3 164.703 5.56761   2
  -5 -10   3 166.485 5.80578   1
  -5  10   3 160.441 5.18721   2
  -5  10   3 177.345 5.40956   1
  -4 -10   3 20.8071 1.63091   2
   4 -10  -3 21.3942 1.73151   1
  -4 -10   3 20.7046 1.68224   1
  -4  10   3 21.7680 1.51175   2
  -4  10   3 19.9658 1.47947   1
  -3 -10   3 23.3007 1.50764   2
  -3 -10   3 20.9086 1.52971   1
  -3  10   3 24.1982 1.50872   2
  -3  10   3 23.9167 1.52933   1
   3  10  -3 25.0380 1.56191   2
  -2 -10   3 262.058 6.29907   2
  -2 -10   3 254.713 6.52991   1
   2  10  -3 254.884 6.38662   2
  -2  10   3 246.336 6.58860   2
  -2  10   3 252.885 6.76657   1
  -1 -10   3 102.296 2.97429   1
  -1 -10   3 104.696 2.77631   2
   1 -10  -3 103.523 3.53897   1
  -1  10   3 105.441 3.47103   2
   1  10  -3 99.5649 2.91515   2
  -1  10   3 102.212 3.53941   1
   0 -10  -3 1.16919 0.54046   1
   0 -10  -3 0.77802 0.51120   1
   0 -10   3 0.52424 0.22462   1
   0  10   3 0.50195 0.42088   2
   0  10   3 0.73239 0.50378   1
   0  10  -3 0.88236 0.25420   2
  -1 -10  -3 87.5342 3.50573   1
  -1  10  -3 88.8555 2.17376   2
   1  10   3 90.4548 3.47269   1
  -2 -10  -3 92.4420 3.69202   2
  -2 -10  -3 95.9452 3.83961   1
  -2  10  -3 92.8798 2.35706   2
  -2  10  -3 92.4488 2.35635   2
  -3 -10  -3 121.972 4.60332   2
  -3 -10  -3 128.055 4.82236   1
  -3  10  -3 112.992 3.13582   2
  -4 -10  -3 66.9805 3.53300   2
  -4 -10  -3 73.2496 3.76206   1
  -4  10  -3 67.9836 2.39623   2
  -5 -10  -3 34.0110 2.74682   1
  -5 -10  -3 34.1303 3.19206   2
  -5  10  -3 28.6609 1.68702   2
  -7 -11   3 1.95812 1.03835   2
  -7 -11   3 3.53672 1.28013   1
  -7  11   3 4.64346 1.10098   2
  -6 -11   3 13.0770 1.85828   1
  -6 -11   3 12.6116 1.84226   2
  -6  11   3 14.0039 1.68779   2
  -5 -11   3 4.85709 1.09552   2
  -5 -11   3 3.28529 1.02816   1
  -5  11   3 4.33625 0.90311   2
  -4 -11   3 -0.0281 0.44024   2
  -4 -11   3 1.32993 0.60639   1
  -4  11   3 0.46588 0.46288   1
  -4  11   3 -0.0469 0.39475   2
  -3 -11   3 68.2498 2.87815   1
  -3 -11   3 71.7132 2.77190   2
  -3  11   3 68.8424 2.76378   1
  -3  11   3 65.6909 2.69974   2
   3  11  -3 73.6115 2.85038   2
   2 -11  -3 0.50379 0.38274   1
  -2 -11   3 0.61533 0.37576   2
  -2 -11   3 1.16370 0.45205   1
  -2  11   3 1.00615 0.47704   1
  -2  11   3 0.95049 0.46093   2
   2  11  -3 1.02468 0.44199   2
   1 -11  -3 1.00706 0.52756   1
  -1 -11   3 1.33074 0.35038   2
  -1 -11   3 0.81432 0.35539   1
  -1  11   3 0.91046 0.48199   2
   1  11  -3 1.30852 0.37161   2
  -1  11   3 0.98238 0.50460   1
   0 -11   3 35.5004 1.12635   1
   0 -11  -3 37.4568 2.03498   1
   0 -11  -3 38.4058 2.07335   1
   0  11   3 32.0236 1.88021   2
   0  11  -3 35.1960 1.20318   2
   0  11   3 34.4885 1.94217   1
  -1 -11  -3 40.3381 2.26668   1
  -2 -11  -3 175.140 5.64912   2
  -2 -11  -3 176.252 5.82675   1
  -3 -11  -3 2.41196 0.86783   2
  -3 -11  -3 1.40012 0.72747   1
  -3  11  -3 2.09096 0.35458   2
  -4 -11  -3 27.2442 2.57877   2
  -4 -11  -3 27.2031 2.74436   1
  -4  11  -3 24.3010 1.26338   2
  -5 -11  -3 39.9221 3.01458   2
  -5 -11  -3 40.1363 3.04475   1
  -5  11  -3 35.9722 1.80147   2
  -6 -12   3 1.06505 0.83017   1
  -6 -12   3 0.27356 0.69179   2
  -6  12   3 0.55621 0.61555   2
  -5 -12   3 16.7924 2.00858   1
  -5 -12   3 18.7303 2.00893   2
  -5  12   3 14.7917 1.63123   2
  -4 -12   3 15.3139 1.73851   1
  -4 -12   3 14.1657 1.54458   2
  -4  12   3 12.4514 1.37657   2
  -4  12   3 11.7202 1.33980   1
  -3 -12   3 125.461 4.22762   1
  -3 -12   3 129.824 4.06555   2
  -3  12   3 123.893 4.07534   1
  -3  12   3 122.228 4.01185   2
   3  12  -3 123.379 4.10233   2
  -2 -12   3 29.8370 1.59886   1
  -2 -12   3 29.9527 1.47245   2
  -2  12   3 31.9640 1.77364   1
  -2  12   3 30.9215 1.72700   2
   2  12  -3 28.1376 1.55293   2
   1 -12  -3 0.34231 0.43571   1
  -1 -12   3 0.51664 0.26013   2
  -1 -12   3 0.48625 0.33333   1
  -1  12   3 0.35437 0.42205   1
  -1  12   3 0.40770 0.42450   2
   1  12  -3 0.78457 0.32195   2
   0 -12  -3 80.2086 3.28294   1
   0  12   3 77.8609 3.17605   1
   0  12   3 81.9136 3.20784   2
   0  12  -3 83.8762 2.15252   2
  -1 -12  -3 4.59760 0.93951   2
  -1 -12  -3 2.64069 0.80554   1
  -2 -12  -3 5.76807 1.11080   1
  -2 -12  -3 9.98344 1.41984   2
  -3 -12  -3 18.3098 2.02672   1
  -3 -12  -3 13.2878 1.70487   2
  -4 -12  -3 2.85701 1.04813   2
  -4 -12  -3 3.65973 1.14290   1
  -4  12  -3 3.73452 0.51327   2
  -5 -12  -3 -0.7534 0.64067   1
  -5 -12  -3 1.49808 0.94076   2
  -6 -13   3 70.7043 3.83431   2
  -6 -13   3 65.5056 3.76738   1
  -6  13   3 75.9769 3.31741   2
  -5 -13   3 23.7571 2.38930   1
  -5 -13   3 29.0528 2.14957   2
  -5  13   3 23.8692 1.72938   2
  -4 -13   3 35.7779 2.25427   1
  -4 -13   3 35.7784 2.14983   2
  -4  13   3 31.7483 1.88679   2
  -3 -13   3 23.3334 1.68021   1
  -3 -13   3 24.5365 1.59747   2
  -3  13   3 21.4359 1.53286   2
  -3  13   3 23.2749 1.57333   1
  -2 -13   3 65.7317 2.37431   2
  -2 -13   3 71.5938 2.63195   1
  -2  13   3 69.3311 2.79024   2
  -2  13   3 69.6998 2.83418   1
   1 -13  -3 0.83869 0.55779   1
  -1 -13   3 0.79257 0.36982   1
  -1 -13   3 1.46893 0.31162   2
   1  13  -3 1.13887 0.37837   2
  -1  13   3 0.32290 0.43265   2
  -1  13   3 1.06695 0.52605   1
   0 -13  -3 218.191 6.51644   1
   0  13   3 219.516 6.37668   2
   0  13   3 221.145 6.44958   1
   0  13  -3 223.410 4.88211   2
  -1 -13  -3 156.794 5.33453   1
  -1 -13  -3 164.165 5.20478   2
  -2 -13  -3 0.84231 0.61096   1
  -2 -13  -3 -0.7689 0.42728   2
  -3 -13  -3 6.40440 1.31969   2
  -3 -13  -3 5.78822 1.28063   1
  -4 -13  -3 0.13407 0.80541   2
  -4 -13  -3 0.64177 0.80214   1
  -6 -14   3 16.8227 2.20653   1
  -6  14   3 17.4732 1.84935   2
  -5 -14   3 -0.4119 0.53716   1
  -5  14   3 0.29414 0.45799   2
  -4 -14   3 70.0559 3.21256   1
  -4  14   3 56.3017 2.62849   2
  -3 -14   3 214.472 6.34106   1
  -3  14   3 223.186 6.15855   2
  -2 -14   3 36.7017 1.82203   1
  -2  14   3 37.8670 2.01687   1
  -2  14   3 35.2108 1.94999   2
  -1 -14   3 75.0325 2.37187   1
   1 -14  -3 76.6318 3.16216   1
  -1  14   3 76.7623 3.07585   2
  -1  14   3 75.1684 3.08111   1
   0 -14  -3 95.5915 3.77583   1
  -1 -14  -3 27.4459 1.92458   2
  -1 -14  -3 25.1995 1.92679   1
  -2 -14  -3 67.7320 3.43001   1
  -2 -14  -3 71.3222 3.35134   2
  -3 -14  -3 25.7547 2.45100   2
  -3 -14  -3 28.4354 2.34772   1
  -4 -14  -3 5.75575 1.46110   2
  -4 -14  -3 7.77081 1.60101   1
  -6  15   3 44.6976 2.50955   2
  -5 -15   3 13.9097 1.89314   1
  -5  15   3 18.6919 1.81196   2
  -4 -15   3 15.9229 1.83009   1
  -4  15   3 17.2959 1.67579   2
  -3 -15   3 93.6159 3.58426   1
  -3  15   3 92.2378 3.41507   2
  -2 -15   3 12.1293 1.22723   1
  -2  15   3 15.4052 1.53405   2
   1 -15  -3 111.653 4.04312   1
  -1 -15   3 110.368 3.10512   1
  -1  15   3 109.774 3.93749   1
  -1  15   3 110.225 3.91897   2
   0 -15  -3 115.853 4.10055   2
   0 -15  -3 123.702 4.44796   1
  -1 -15  -3 2.30510 0.83952   1
  -1 -15  -3 5.22161 1.02737   2
  -2 -15  -3 16.4120 1.86867   2
  -2 -15  -3 12.1749 1.67427   1
  -3 -15  -3 10.2090 1.66151   1
  -3 -15  -3 13.3727 1.82873   2
  -4 -15  -3 -0.4043 0.75296   2
  -4 -15  -3 -0.6954 0.61080   1
  -5 -16   3 3.11728 0.98238   1
  -5  16   3 4.81464 0.96298   2
  -4 -16   3 0.48530 0.62903   1
  -4  16   3 0.76767 0.53415   2
  -3 -16   3 2.94862 0.82434   1
  -3  16   3 3.62662 0.83170   2
   2 -16  -3 5.75641 1.01961   1
  -2 -16   3 7.07472 0.96453   1
  -2  16   3 5.36946 0.94619   2
   1 -16  -3 17.5483 1.73785   1
  -1 -16   3 19.7779 1.05754   1
  -1  16   3 19.9965 1.59943   2
   0 -16  -3 170.919 5.60755   1
  -1 -16  -3 1.32389 0.69122   2
  -1 -16  -3 1.54051 0.80430   1
  -2 -16  -3 3.96449 1.03995   2
  -2 -16  -3 5.18597 1.21994   1
  -3 -16  -3 100.784 4.53751   2
  -3 -16  -3 98.4076 4.65681   1
  -5 -17   3 5.45668 1.36422   1
  -5  17   3 3.21703 0.82363   2
  -4 -17   3 57.1331 3.04357   1
  -4  17   3 53.5795 2.56023   2
  -3 -17   3 109.774 4.04771   1
  -3  17   3 112.276 3.93585   2
  -2 -17   3 36.2183 1.85083   1
   2 -17  -3 33.5950 2.04911   1
  -2  17   3 35.7408 2.05608   2
  -1 -17   3 18.5817 0.96301   1
   1 -17  -3 17.1968 1.73272   1
   0 -17  -3 7.80613 1.25209   1
  -1 -17  -3 1.15018 0.73222   1
  -2 -17  -3 -0.1087 0.58350   1
  -3 -17  -3 31.4017 2.98983   1
  -4 -18   3 11.4753 1.62351   1
  -4  18   3 12.8821 1.48031   2
  -3 -18   3 24.5523 1.83018   1
   3 -18  -3 25.3430 1.77973   1
  -3  18   3 27.4680 1.82805   2
  -2 -18   3 10.7282 1.16782   1
   2 -18  -3 9.27111 1.29846   1
  -2  18   3 8.42011 1.24252   2
   1 -18  -3 0.27919 0.51584   1
   0 -18  -3 9.86799 1.43847   1
  -1 -18  -3 29.4563 2.26495   1
  -2 -18  -3 8.05996 1.49786   1
   3 -19  -3 14.8872 1.57748   1
  -3 -19   3 16.8484 1.73448   1
  -3  19   3 14.3997 1.55888   2
  -2 -19   3 64.7257 2.54778   1
   2 -19  -3 62.5811 2.93757   1
   1 -19  -3 2.84944 0.87253   1
   0 -19  -3 2.75839 0.88947   1
  -1 -19  -3 39.4973 2.63563   1
  -2 -19  -3 2.06202 1.01290   1
   2 -20  -3 1.02194 0.64106   1
   1 -20  -3 40.6951 2.42567   1
   0 -20  -3 21.2356 2.18472   1
  -8   0   4 45.5257 3.19769   2
  -8   0   4 43.8747 3.22729   1
  -7   0   4 10.1400 1.67233   2
  -7   0   4 6.43155 1.49786   1
  -6   0   4 0.87980 0.60463   2
  -6   0   4 1.55015 0.82200   1
  -5   0   4 238.885 7.10390   1
  -5   0   4 235.593 6.90574   2
  -4   0   4 15.8289 1.63274   1
  -4   0   4 17.1185 1.67210   2
  -3   0   4 7.41380 1.00941   1
  -3   0   4 2.78456 0.72660   2
  -2   0   4 6067.80 123.437   2
   2   0  -4 6252.09 122.216   2
  -2   0   4 5840.17 126.502   1
   1   0  -4 889.817 18.8801   2
  -1   0   4 856.836 19.3310   1
  -1   0   4 870.207 18.8475   2
   0   0   4 12.5996 1.01927   2
   0   0   4 11.5415 1.12090   1
   0   0  -4 14.9314 1.09125   2
   1   0   4 41.8931 1.95569   2
   1   0   4 46.1963 2.10159   1
  -1   0  -4 44.8063 2.02619   2
  -2   0  -4 46.7057 2.19503   2
   2   0   4 40.9248 2.12825   1
  -2   0  -4 42.8953 2.15765   1
  -3   0  -4 36.8192 2.14570   1
  -3   0  -4 36.3100 2.08830   2
  -4   0  -4 11.1184 1.49215   2
  -4   0  -4 9.69595 1.44468   1
  -5   0  -4 5.68726 1.21419   2
  -5   0  -4 3.17882 1.02769   1
  -6   0  -4 4.62575 1.27538   2
  -8  -1   4 9.91728 1.91252   1
  -8  -1   4 7.53233 1.68571   2
  -8   1   4 7.81449 1.61845   2
  -8   1   4 9.31759 1.80705   1
  -7  -1   4 31.8319 2.45996   2
  -7  -1   4 33.1318 2.61282   1
  -7   1   4 30.1289 2.82786   2
  -7   1   4 30.6628 2.49970   1
  -6  -1   4 17.1290 1.88585   2
  -6  -1   4 15.7461 1.95829   1
  -6   1   4 17.3061 1.95067   2
  -6   1   4 19.0988 2.17194   1
  -5  -1   4 15.3195 1.78858   1
  -5  -1   4 12.5753 1.52957   2
  -5   1   4 12.1997 1.52484   2
  -5   1   4 12.7273 1.58387   1
  -4  -1   4 1.49077 0.55566   2
  -4  -1   4 2.60513 0.74737   1
  -4   1   4 1.78820 0.64879   1
  -4   1   4 3.42294 0.78696   2
  -3  -1   4 27.9634 1.71727   1
  -3  -1   4 28.6611 1.65965   2
  -3   1   4 27.0277 1.61785   2
  -3   1   4 28.0766 1.70096   1
  -2  -1   4 21.4226 1.43004   2
  -2  -1   4 20.6782 1.48675   1
   2   1  -4 21.8894 1.45259   2
  -2   1   4 23.6856 1.50100   2
  -2   1   4 23.5784 1.54922   1
   1  -1  -4 61.8820 2.39552   2
  -1  -1   4 61.8525 2.32492   2
  -1  -1   4 56.6743 2.35840   1
  -1   1   4 66.1266 2.51235   1
  -1   1   4 62.9334 2.40345   2
   1   1  -4 63.5253 2.36158   2
   0  -1  -4 35.5859 1.73456   2
   0  -1   4 33.8124 1.67878   1
   0  -1   4 32.2774 1.61910   2
   0   1   4 35.1313 1.78037   1
   0   1   4 32.7195 1.68571   2
   0   1  -4 37.6053 1.71546   2
   1  -1   4 52.2272 2.13633   2
   1  -1   4 50.2918 2.16865   1
  -1  -1  -4 49.4265 2.17765   2
   1   1   4 45.4828 2.19157   1
  -1   1  -4 49.8743 2.10761   2
   1   1   4 50.5669 2.20042   2
  -2  -1  -4 55.3246 2.58199   1
   2  -1   4 60.9917 2.56197   1
  -2   1  -4 57.8081 2.44172   2
   2   1   4 57.8183 2.59805   1
  -2   1  -4 54.5228 2.45524   1
  -3  -1  -4 57.5134 2.76651   1
  -3  -1  -4 49.9568 2.55176   2
  -3   1  -4 54.4921 2.57225   2
  -3   1  -4 59.4462 2.69873   1
  -4  -1  -4 38.0720 2.37446   2
  -4  -1  -4 35.2055 2.36052   1
  -4   1  -4 36.9260 2.25776   2
  -4   1  -4 34.8666 2.23173   1
  -5  -1  -4 6.96358 1.39952   1
  -5  -1  -4 10.1399 1.58086   2
  -5   1  -4 8.50852 1.44489   2
  -6  -1  -4 22.1351 2.48033   2
  -6   1  -4 25.4721 2.63820   2
  -8  -2   4 15.5934 2.32164   2
  -8  -2   4 10.3030 1.97014   1
  -8   2   4 13.2851 2.06534   2
  -8   2   4 13.3344 2.13566   1
  -7  -2   4 22.8464 2.46577   2
  -7  -2   4 22.0703 2.51514   1
  -7   2   4 18.8963 2.26944   2
  -7   2   4 20.8191 2.32751   1
  -6  -2   4 0.16899 0.60190   1
  -6  -2   4 -0.1497 0.51878   2
  -6   2   4 -0.5688 0.40473   2
  -6   2   4 -0.0067 0.45216   1
  -5  -2   4 11.4033 1.52814   1
  -5  -2   4 11.7256 1.46890   2
  -5   2   4 13.7832 1.63734   1
  -5   2   4 15.1984 1.69828   2
  -4  -2   4 93.3157 3.56694   1
  -4  -2   4 97.2330 3.52802   2
  -4   2   4 88.7282 3.53975   1
  -4   2   4 90.4127 3.45181   2
  -3  -2   4 246.157 6.77176   1
  -3  -2   4 248.109 6.59545   2
  -3   2   4 249.760 6.64325   2
  -3   2   4 253.550 6.83574   1
  -2  -2   4 383.041 9.45103   1
  -2  -2   4 388.925 9.19956   2
  -2   2   4 387.512 9.56887   1
   2   2  -4 404.654 9.27798   2
  -2   2   4 381.972 9.30731   2
  -1  -2   4 34.8242 1.64885   2
   1  -2  -4 37.7215 1.81126   2
  -1  -2   4 37.0453 1.75796   1
  -1   2   4 33.9323 1.78615   1
   1   2  -4 42.7494 1.79384   2
  -1   2   4 39.0687 1.83979   2
   0  -2   4 367.260 8.57577   2
   0  -2   4 356.526 8.79333   1
   0  -2  -4 377.792 8.84894   2
   0   2   4 354.438 9.00346   1
   0   2  -4 366.579 8.59073   2
   0   2   4 363.441 8.81337   2
   1  -2   4 118.740 3.64520   2
  -1  -2  -4 123.042 4.04201   1
   1  -2   4 121.319 3.78759   1
  -1   2  -4 120.006 3.68012   2
   1   2   4 127.092 3.97642   2
   1   2   4 122.029 4.03081   1
  -2  -2  -4 17.5713 1.45088   1
   2  -2   4 19.0628 1.37572   1
   2   2   4 18.1145 1.47675   1
  -2   2  -4 16.0426 1.27370   1
  -2   2  -4 17.5453 1.28533   2
  -3  -2  -4 -0.2570 0.42420   2
  -3  -2  -4 0.54846 0.58089   1
  -3   2  -4 0.14479 0.42566   2
  -3   2  -4 0.97801 0.50441   2
  -3   2  -4 0.34413 0.42116   1
  -4  -2  -4 0.83193 0.66846   2
  -4  -2  -4 2.91295 0.91438   1
  -4   2  -4 0.10073 0.49478   2
  -4   2  -4 0.21183 0.50003   1
  -5  -2  -4 1.85686 0.86715   1
  -5  -2  -4 1.32872 0.81967   2
  -5   2  -4 1.72306 0.77762   2
  -6  -2  -4 11.8105 1.87025   2
  -6   2  -4 9.95873 1.58781   2
  -8  -3   4 66.3723 4.04305   1
  -8  -3   4 62.6769 3.79207   2
  -8   3   4 61.4695 3.78977   1
  -8   3   4 63.1909 3.69765   2
  -7  -3   4 89.5998 4.27822   2
  -7  -3   4 90.2674 4.43728   1
  -7   3   4 101.927 4.38153   2
  -7   3   4 89.2503 4.28966   1
  -6  -3   4 4.79617 1.10893   2
  -6  -3   4 6.25315 1.32244   1
  -6   3   4 2.28561 0.81387   2
  -6   3   4 4.75439 1.10028   1
  -5  -3   4 18.6763 1.97317   1
  -5  -3   4 13.1623 1.59260   2
  -5   3   4 20.0616 2.03168   1
  -5   3   4 13.4821 1.53141   2
  -4  -3   4 76.5749 3.20246   1
  -4  -3   4 77.4347 3.10419   2
  -4   3   4 75.1300 3.05442   2
  -4   3   4 77.6596 3.25531   1
  -3  -3   4 134.229 4.20419   2
  -3  -3   4 137.985 4.37411   1
  -3   3   4 140.092 4.31544   2
  -3   3   4 132.849 4.37194   1
  -2  -3   4 17.8686 1.23439   2
  -2  -3   4 20.3012 1.31767   1
   2   3  -4 20.5185 1.31998   2
  -2   3   4 18.9420 1.32571   2
  -2   3   4 20.5925 1.41251   1
  -1  -3   4 188.098 4.94408   2
  -1  -3   4 180.528 5.08020   1
  -1   3   4 189.857 5.22617   2
  -1   3   4 191.192 5.36435   1
   1   3  -4 189.438 5.00103   2
   0  -3   4 12.2153 0.99804   1
   0  -3   4 14.6860 1.02099   2
   0   3   4 13.9793 1.33564   2
   0   3   4 15.4072 1.21944   1
   0   3  -4 14.3287 1.03755   2
   1  -3   4 15.4572 1.09149   2
   1  -3   4 14.6875 1.11263   1
  -1  -3  -4 13.4481 1.37357   1
   1   3   4 15.9931 1.31560   1
   1   3   4 16.4479 1.30441   2
  -1   3  -4 14.8514 1.08157   2
  -2  -3  -4 0.17269 0.40871   1
  -2   3  -4 1.13433 0.46525   2
   2   3   4 0.73815 0.52123   1
  -2   3  -4 0.72989 0.47364   1
  -3  -3  -4 166.721 5.56176   1
  -3  -3  -4 164.172 5.43198   2
  -3   3  -4 170.153 5.13763   1
  -3   3  -4 173.790 5.10173   2
  -3   3  -4 164.580 5.04157   2
  -4  -3  -4 123.360 4.88258   1
  -4  -3  -4 124.212 4.77918   2
  -4   3  -4 122.988 4.37150   2
  -4   3  -4 127.310 4.47066   1
  -5  -3  -4 29.3963 2.80681   1
  -5  -3  -4 31.4106 2.45509   2
  -5   3  -4 34.7269 2.32743   2
  -8  -4   4 2.58684 1.21408   1
  -8  -4   4 2.60016 1.19614   2
  -8   4   4 1.34506 0.96933   2
  -7  -4   4 166.754 6.41895   1
  -7  -4   4 173.250 6.31808   2
  -7   4   4 164.623 6.01756   2
  -7   4   4 174.168 6.29842   1
  -6  -4   4 48.5967 2.79956   2
  -6  -4   4 42.1282 2.73380   1
  -6   4   4 39.2027 2.57828   1
  -6   4   4 42.9895 2.57798   2
  -5  -4   4 227.112 7.07124   1
  -5  -4   4 227.434 6.84075   2
  -5   4   4 223.801 6.73149   2
  -5   4   4 247.817 7.14963   1
  -4  -4   4 4.24402 0.86776   2
  -4  -4   4 4.41198 0.90190   1
  -4   4   4 5.99756 1.02750   1
  -4   4   4 4.54342 0.85853   2
  -3  -4   4 312.731 7.99071   2
  -3  -4   4 321.187 8.26412   1
   3   4  -4 327.456 8.10117   2
  -3   4   4 311.001 8.29407   1
  -3   4   4 317.130 8.08266   2
  -2  -4   4 60.3323 2.41314   1
  -2  -4   4 61.9067 2.34219   2
  -2   4   4 58.9271 2.46121   2
   2   4  -4 58.8808 2.32730   2
  -2   4   4 64.0876 2.59561   1
  -1  -4   4 16.9826 1.09423   2
  -1  -4   4 18.5914 1.18302   1
  -1   4   4 14.9939 1.21347   2
   1   4  -4 17.5637 1.13468   2
  -1   4   4 17.0807 1.30958   1
   0  -4   4 99.4551 3.16282   1
   0  -4   4 104.180 3.09012   2
   0   4  -4 103.978 3.11508   2
   0   4   4 99.5426 3.53538   1
   0   4   4 101.292 3.47120   2
   1  -4   4 61.5319 2.19724   2
   1  -4   4 59.1118 2.25394   1
  -1  -4  -4 57.4226 2.62566   1
   1   4   4 57.8128 2.60565   1
  -1   4  -4 59.0262 2.23198   1
   1   4   4 56.2297 2.52545   2
  -1   4  -4 57.7587 2.18650   2
  -2  -4  -4 15.9968 1.70326   1
  -2   4  -4 14.6034 1.13743   1
   2   4   4 16.4538 1.67755   1
  -2   4  -4 15.5541 1.18149   2
  -3  -4  -4 107.161 4.15758   1
  -3  -4  -4 100.801 3.99265   2
  -3   4  -4 99.0201 3.50335   2
  -3   4  -4 97.7187 3.69154   2
  -3   4  -4 98.1487 3.51087   1
  -4  -4  -4 19.3200 2.03916   2
  -4  -4  -4 22.0043 2.30349   1
  -4   4  -4 21.3999 1.64365   2
  -5  -4  -4 56.0195 3.37670   2
  -5  -4  -4 66.9063 3.67406   1
  -5   4  -4 65.4941 3.13610   2
  -8  -5   4 37.3802 3.02531   2
  -8  -5   4 34.3193 3.55464   1
  -8   5   4 32.9504 2.64289   2
  -7  -5   4 1.85051 0.94773   1
  -7  -5   4 2.38145 1.04890   2
  -7   5   4 3.66366 1.04507   2
  -7   5   4 3.79744 1.07186   1
  -6  -5   4 58.8573 3.22441   1
  -6  -5   4 55.3306 3.06288   2
  -6   5   4 55.2067 2.92645   2
  -6   5   4 48.0608 2.88997   1
  -5  -5   4 0.81623 0.57554   1
  -5  -5   4 0.74733 0.62918   2
  -5   5   4 -0.0576 0.41564   2
  -5   5   4 1.01964 0.61891   1
  -4  -5   4 19.9755 1.62055   1
  -4  -5   4 23.1010 1.64991   2
  -4   5   4 19.4573 1.56221   1
  -4   5   4 22.2108 1.60157   2
  -3  -5   4 42.5270 2.14019   1
  -3  -5   4 45.0363 2.11626   2
  -3   5   4 45.5870 2.25710   1
  -3   5   4 45.1701 2.19919   2
   3   5  -4 47.4954 2.15286   2
  -2  -5   4 4.01437 0.69552   2
  -2  -5   4 4.48787 0.79787   1
  -2   5   4 3.06794 0.67418   2
  -2   5   4 4.01090 0.77885   1
   2   5  -4 3.07409 0.61311   2
  -1  -5   4 108.329 3.37953   1
  -1  -5   4 107.792 3.25218   2
   1   5  -4 113.085 3.34347   2
  -1   5   4 111.413 3.76069   1
  -1   5   4 115.666 3.71194   2
   0  -5   4 102.544 2.98187   2
   0  -5   4 95.8531 3.06082   1
   0   5  -4 101.223 3.04268   2
   0   5   4 101.570 3.58936   1
   0   5   4 94.4879 3.43944   2
   1  -5   4 29.2813 1.46492   1
  -1  -5  -4 27.7639 1.81163   1
   1   5   4 25.6260 1.75286   1
  -1   5  -4 28.0565 1.41385   2
  -1   5  -4 27.2215 1.40131   1
   1   5   4 29.2565 1.79183   2
  -2  -5  -4 57.1157 2.82537   1
  -2   5  -4 59.5494 2.30249   2
  -2   5  -4 58.4474 2.27970   1
  -3  -5  -4 41.1841 2.49934   2
  -3  -5  -4 44.3742 2.60257   1
  -3   5  -4 44.0331 2.10597   1
  -3   5  -4 45.5538 2.11160   2
  -4  -5  -4 141.079 5.41686   1
  -4  -5  -4 136.514 5.20383   2
  -4   5  -4 139.047 4.56223   2
  -5  -5  -4 4.55865 1.23828   2
  -5  -5  -4 3.91449 1.17816   1
  -5   5  -4 4.30820 0.99761   2
  -7  -6   4 1.83385 0.94111   1
  -7  -6   4 2.68668 1.04033   2
  -7   6   4 3.20959 1.16037   1
  -7   6   4 1.35435 0.84300   2
  -6  -6   4 1.21549 0.79570   2
  -6  -6   4 -0.3899 0.53399   1
  -6   6   4 1.13849 0.71330   1
  -6   6   4 0.60719 0.51717   2
  -5  -6   4 22.7523 2.24880   1
  -5  -6   4 22.2868 1.80314   2
  -5   6   4 22.4973 1.77652   1
  -5   6   4 19.4915 1.89497   2
  -4  -6   4 41.7275 2.19506   2
  -4  -6   4 38.8177 2.22618   1
  -4   6   4 37.5365 2.11636   2
  -4   6   4 38.8710 2.20543   1
  -3  -6   4 143.462 4.59436   1
  -3  -6   4 150.391 4.49910   2
  -3   6   4 141.054 4.66710   1
  -3   6   4 152.536 4.64930   2
   3   6  -4 155.101 4.58266   2
  -2  -6   4 97.3766 3.16374   2
  -2  -6   4 104.845 3.41659   1
  -2   6   4 92.4756 3.37943   2
  -2   6   4 101.327 3.55545   1
   2   6  -4 100.930 3.23388   2
  -1  -6   4 9.17267 0.93685   1
  -1  -6   4 6.72653 0.77499   2
   1   6  -4 5.85257 0.74150   2
  -1   6   4 5.95000 0.89157   2
  -1   6   4 7.07369 1.03516   1
   0  -6   4 6.00731 0.73149   1
   0  -6   4 7.07722 0.73610   2
   0   6  -4 7.35033 0.77401   2
   0   6   4 5.15191 0.87887   1
   0   6   4 5.09632 0.85019   2
   1  -6   4 14.2442 0.99887   1
  -1  -6  -4 10.3996 1.26275   1
   1   6   4 15.2906 1.49720   2
  -1   6  -4 12.7945 0.91447   1
  -1   6  -4 12.2695 0.93263   2
   1   6   4 12.0340 1.35581   1
  -2  -6  -4 28.1971 1.99720   1
  -2   6  -4 31.4694 1.52157   1
  -2   6  -4 28.0326 1.48986   2
  -3  -6  -4 83.0023 3.69578   2
  -3  -6  -4 86.5220 3.79306   1
  -3   6  -4 81.0325 2.94382   2
  -3   6  -4 81.4197 2.95466   1
  -4  -6  -4 1.77391 0.83861   2
  -4  -6  -4 0.81046 0.71813   1
  -4   6  -4 1.66556 0.61418   2
  -5  -6  -4 0.72325 0.78650   1
  -5  -6  -4 2.02949 0.96003   2
  -5   6  -4 0.42481 0.55729   2
  -7  -7   4 13.7355 2.14667   1
  -7  -7   4 8.86938 1.65769   2
  -7   7   4 14.6363 1.94022   2
  -6  -7   4 1.15597 0.82496   2
  -6  -7   4 2.91887 1.01847   1
  -6   7   4 1.77923 0.78263   1
  -6   7   4 1.70797 0.72815   2
  -5  -7   4 0.86184 0.67129   2
  -5  -7   4 0.68038 0.65525   1
  -5   7   4 1.08719 0.61510   2
  -5   7   4 1.41074 0.65157   1
  -4  -7   4 186.054 5.65878   2
  -4  -7   4 190.377 5.93009   1
  -4   7   4 190.544 5.83686   1
  -4   7   4 188.544 5.65159   2
  -3  -7   4 19.3939 1.38835   2
  -3  -7   4 18.8830 1.43638   1
  -3   7   4 20.0081 1.46797   2
   3   7  -4 18.7526 1.38079   2
  -3   7   4 19.0351 1.48175   1
  -2  -7   4 4.47234 0.73428   2
  -2  -7   4 3.06373 0.67084   1
  -2   7   4 3.32332 0.79320   1
  -2   7   4 3.69843 0.77215   2
   2   7  -4 3.82837 0.69113   2
  -1  -7   4 5.91496 0.72119   2
  -1   7   4 6.14132 0.93171   1
  -1   7   4 5.73035 0.89626   2
   1   7  -4 5.48710 0.71914   2
   0  -7   4 274.400 6.48243   2
   0  -7   4 276.873 6.78076   1
   0   7  -4 280.575 6.67731   2
   0   7   4 285.749 7.49445   2
   0   7   4 286.474 7.67689   1
  -1  -7  -4 49.5121 2.56668   1
   1  -7   4 49.5388 1.89965   1
  -1   7  -4 52.8857 1.93161   2
   1   7   4 50.9040 2.52700   2
  -1   7  -4 55.0501 1.91854   1
   1   7   4 50.8830 2.58795   1
  -2  -7  -4 5.94887 1.12851   1
  -2   7  -4 4.92583 0.72440   2
  -2   7  -4 6.54103 0.78636   1
  -3  -7  -4 51.7683 2.83957   2
  -3  -7  -4 44.1243 2.71273   1
  -3   7  -4 42.3550 1.96650   2
  -4  -7  -4 10.9242 1.76422   1
  -4  -7  -4 9.94851 1.66386   2
  -4   7  -4 9.80077 1.19503   2
  -5  -7  -4 60.6033 3.67774   1
  -5  -7  -4 62.2631 3.67878   2
  -5   7  -4 57.6682 2.78587   2
  -7  -8   4 -0.0404 0.67235   2
  -7  -8   4 1.26982 0.97161   1
  -7   8   4 -0.0129 0.54226   2
  -6  -8   4 12.0675 1.78645   2
  -6  -8   4 10.2902 1.70778   1
  -6   8   4 8.91985 1.41775   2
  -6   8   4 11.4131 1.66127   1
  -5  -8   4 14.7627 1.75622   1
  -5  -8   4 12.9158 1.57278   2
  -5   8   4 15.6487 1.68809   2
  -5   8   4 15.3964 1.77024   1
  -4  -8   4 1.09470 0.55798   2
  -4  -8   4 1.16115 0.59645   1
  -4   8   4 1.16677 0.59562   1
  -4   8   4 1.02611 0.57075   2
  -3  -8   4 63.7162 2.60278   2
  -3  -8   4 62.4826 2.70590   1
  -3   8   4 63.0882 2.80818   1
  -3   8   4 64.7704 2.75461   2
   3   8  -4 66.3814 2.69615   2
  -2  -8   4 38.6920 1.74461   2
  -2  -8   4 38.3455 1.83866   1
  -2   8   4 31.8568 1.89595   2
  -2   8   4 36.0807 1.99834   1
   2   8  -4 36.1684 1.74397   2
  -1  -8   4 556.760 12.0583   2
  -1  -8   4 540.383 12.4462   1
   1   8  -4 551.888 12.1925   2
  -1   8   4 546.202 13.1951   1
  -1   8   4 556.141 12.9383   2
   0  -8   4 5.64756 0.61815   2
   0  -8   4 6.80825 0.74908   1
   0   8  -4 5.82503 0.68276   2
   0   8   4 5.50582 0.96021   2
   0   8   4 6.89925 1.07253   1
   1  -8   4 4.33445 0.60460   1
  -1  -8  -4 3.75942 0.88769   1
  -1   8  -4 3.53477 0.54848   2
   1   8   4 6.12739 1.11507   2
   1   8   4 5.26346 1.00574   1
  -1   8  -4 4.72395 0.59230   1
  -2  -8  -4 56.3913 2.94000   1
  -2   8  -4 55.9998 2.07423   2
  -2   8  -4 57.1746 1.99568   1
  -3  -8  -4 26.6407 2.18933   1
  -3  -8  -4 29.6976 2.22623   2
  -3   8  -4 29.0328 1.53062   2
  -4  -8  -4 20.3493 2.32511   1
  -4  -8  -4 21.1181 2.29841   2
  -4   8  -4 22.2303 1.49525   2
  -5  -8  -4 1.61732 1.01967   1
  -5  -8  -4 4.13508 1.29464   2
  -5   8  -4 2.34234 0.73320   2
  -7  -9   4 23.5975 2.67580   2
  -7  -9   4 28.8475 3.10341   1
  -7   9   4 22.6683 2.45704   2
  -6  -9   4 123.263 5.09730   1
  -6  -9   4 121.504 4.93387   2
  -6   9   4 118.699 4.60116   2
  -6   9   4 118.436 4.91733   1
  -5  -9   4 46.3738 2.75837   1
  -5  -9   4 44.0566 2.58316   2
  -5   9   4 42.5036 2.42759   2
  -5   9   4 47.5394 2.59241   1
  -4  -9   4 24.9209 1.85465   1
  -4  -9   4 24.6570 1.75617   2
  -4   9   4 24.9791 1.78257   1
  -4   9   4 23.1111 1.70584   2
  -3  -9   4 20.3068 1.51376   1
  -3  -9   4 20.1842 1.43840   2
  -3   9   4 18.0450 1.46554   2
   3   9  -4 20.8652 1.46986   2
  -3   9   4 18.4262 1.49566   1
  -2  -9   4 9.14360 1.03369   1
  -2  -9   4 10.0252 1.00258   2
   2   9  -4 8.68203 0.96740   2
  -2   9   4 9.50241 1.22424   1
  -2   9   4 7.67247 1.06455   2
  -1  -9   4 37.7900 1.66003   1
  -1  -9   4 36.4613 1.51963   2
  -1   9   4 34.8834 2.03901   1
  -1   9   4 40.0980 2.09796   2
   1   9  -4 37.1624 1.62796   2
   0  -9   4 4.14945 0.49341   2
   0  -9   4 3.23122 0.54629   1
   0   9   4 2.37988 0.73971   1
   0   9   4 2.77234 0.77267   2
   0   9  -4 3.94109 0.55377   2
   1  -9   4 54.2353 1.80781   1
  -1  -9  -4 47.0074 2.64733   1
   1   9   4 55.5680 2.75782   1
  -1   9  -4 52.7537 1.69399   1
  -1   9  -4 51.7880 1.82444   2
  -2  -9  -4 151.603 5.20059   2
  -2  -9  -4 155.630 5.44790   1
  -2   9  -4 150.604 4.00011   2
  -3  -9  -4 29.1442 2.30468   1
  -3  -9  -4 31.7385 2.33568   2
  -3   9  -4 28.2245 1.47339   2
  -4  -9  -4 1.08915 0.81881   1
  -4  -9  -4 2.22278 0.97546   2
  -4   9  -4 2.05268 0.60848   2
  -5  -9  -4 1.77683 0.99363   1
  -5  -9  -4 2.44717 1.10251   2
  -5   9  -4 1.17356 0.60790   2
  -7 -10   4 63.8323 3.82845   2
  -7 -10   4 70.0635 4.01676   1
  -7  10   4 62.2224 3.38554   2
  -6 -10   4 98.0372 4.41165   2
  -6 -10   4 98.4738 4.51371   1
  -6  10   4 92.9471 3.99381   2
  -5 -10   4 9.19755 1.48228   1
  -5 -10   4 8.59995 1.36982   2
  -5  10   4 13.2503 1.69803   1
  -5  10   4 11.5482 1.49788   2
  -4 -10   4 21.5451 1.75142   1
  -4 -10   4 23.8458 1.72924   2
  -4  10   4 22.4581 1.68170   2
  -4  10   4 23.3996 1.76557   1
  -3 -10   4 116.404 4.08081   1
  -3 -10   4 120.061 3.92729   2
  -3  10   4 119.974 4.23625   1
  -3  10   4 127.243 4.22973   2
   3  10  -4 122.365 4.02607   2
  -2 -10   4 9.63352 1.06093   1
  -2 -10   4 10.6668 1.04400   2
  -2  10   4 8.94597 1.17582   2
   2  10  -4 10.6842 1.10840   2
  -2  10   4 7.88602 1.11649   1
  -1 -10   4 0.73835 0.38848   1
  -1 -10   4 0.58344 0.33708   2
  -1  10   4 0.43742 0.48223   2
  -1  10   4 0.38975 0.53069   1
   1  10  -4 0.72400 0.33568   2
   0 -10   4 29.5207 1.29014   1
   0 -10  -4 32.4527 2.03948   1
   0 -10   4 30.9957 1.06874   2
   0  10   4 29.2596 1.92168   2
   0  10  -4 30.4442 1.31316   2
   0  10   4 32.8033 2.03671   1
  -1 -10  -4 33.7081 2.23441   1
  -1  10  -4 36.0812 1.15041   1
   1  10   4 37.4184 2.29405   1
  -1  10  -4 34.3303 1.35742   2
  -2 -10  -4 126.753 4.82053   1
  -2 -10  -4 126.076 4.66936   2
  -2  10  -4 118.606 3.26321   2
  -3 -10  -4 31.6378 2.36932   2
  -3 -10  -4 22.5249 2.36660   1
  -3  10  -4 29.8406 1.41724   2
  -4 -10  -4 10.5414 1.75023   2
  -4 -10  -4 10.6199 1.79071   1
  -4  10  -4 9.53506 1.07331   2
  -5 -10  -4 1.54311 1.03938   2
  -5 -10  -4 -0.2257 0.78415   1
  -5  10  -4 0.19232 0.43071   2
  -7 -11   4 54.3099 3.64862   1
  -7 -11   4 62.7332 3.79665   2
  -7  11   4 58.2451 3.26644   2
  -6 -11   4 35.7384 2.62667   2
  -6 -11   4 35.6862 2.75721   1
  -6  11   4 31.9223 2.27403   2
  -5 -11   4 87.2447 3.92333   1
  -5 -11   4 91.9637 3.86488   2
  -5  11   4 79.6666 3.49907   2
  -5  11   4 83.5414 3.80887   1
  -4 -11   4 2.51037 0.84462   1
  -4 -11   4 2.20811 0.74266   2
  -4  11   4 3.05723 0.83021   2
  -4  11   4 2.37430 0.75494   1
  -3 -11   4 0.78962 0.49333   2
  -3 -11   4 -0.1853 0.42352   1
  -3  11   4 1.01921 0.59113   1
  -3  11   4 0.38956 0.43097   2
  -2 -11   4 9.31071 1.05942   1
  -2 -11   4 9.20932 0.97088   2
  -2  11   4 9.13448 1.25414   1
   2  11  -4 7.82313 0.95709   2
  -2  11   4 10.0343 1.28140   2
  -1 -11   4 4.20034 0.65220   1
  -1 -11   4 3.13324 0.51404   2
  -1  11   4 4.19236 0.90078   1
   1  11  -4 2.90933 0.55716   2
  -1  11   4 2.62867 0.72665   2
   0 -11   4 24.2286 1.09194   1
   0 -11  -4 22.7167 1.79425   1
   0  11   4 25.6081 1.83322   2
   0  11   4 24.0698 1.83015   1
   0  11  -4 25.0638 1.13769   2
  -1 -11  -4 137.723 5.04472   1
  -1  11  -4 135.241 3.41139   2
   1  11   4 141.164 5.00438   1
  -2 -11  -4 47.6527 2.81789   1
  -2 -11  -4 47.1844 2.72501   2
  -2  11  -4 46.0904 1.53862   2
  -3 -11  -4 70.2310 3.69210   1
  -3 -11  -4 57.1460 3.28512   2
  -3  11  -4 61.6620 2.05843   2
  -4 -11  -4 23.4462 2.63484   1
  -4 -11  -4 26.2084 2.67889   2
  -4  11  -4 27.7970 1.45864   2
  -6 -12   4 28.4656 2.78532   1
  -6 -12   4 32.5519 2.90905   2
  -6  12   4 28.4842 2.15403   2
  -5 -12   4 1.03983 0.73729   2
  -5 -12   4 1.75728 0.87358   1
  -5  12   4 0.76362 0.61392   2
  -4 -12   4 37.7739 2.32168   1
  -4 -12   4 35.0581 2.13376   2
  -4  12   4 37.0626 2.19715   2
  -4  12   4 37.1996 2.22879   1
  -3 -12   4 26.0675 1.77130   1
  -3 -12   4 25.9487 1.61849   2
  -3  12   4 29.9374 1.90279   2
  -3  12   4 26.4415 1.84942   1
  -2 -12   4 10.8556 1.04158   2
  -2 -12   4 8.58058 1.04211   1
  -2  12   4 10.2704 1.28188   2
  -2  12   4 9.46549 1.30556   1
  -1 -12   4 8.27230 0.87280   1
   1  12  -4 8.20427 0.86858   2
  -1  12   4 9.22302 1.27330   2
  -1  12   4 9.86471 1.38311   1
   0 -12  -4 12.4239 1.50846   1
   0 -12   4 16.5682 0.79981   1
   0  12   4 14.7913 1.60531   2
   0  12   4 14.9057 1.67365   1
   0  12  -4 15.1324 0.85817   2
  -1 -12  -4 44.6431 2.69170   1
  -2 -12  -4 109.850 4.38225   2
  -2 -12  -4 91.5671 4.22032   1
  -3 -12  -4 31.5040 2.52730   1
  -3 -12  -4 32.8912 2.49577   2
  -3  12  -4 31.8442 1.19387   2
  -4 -12  -4 38.6205 3.04015   1
  -4 -12  -4 40.0255 2.96538   2
  -6 -13   4 46.5312 3.19261   1
  -6  13   4 45.5360 2.70940   2
  -5 -13   4 34.3459 2.48916   1
  -5  13   4 36.1339 2.27012   2
  -4 -13   4 10.7165 1.48141   1
  -4  13   4 14.5280 1.68815   2
  -3 -13   4 201.121 6.15620   1
  -3  13   4 222.327 6.48588   1
  -3  13   4 218.127 6.34677   2
  -2 -13   4 20.7542 1.39252   1
  -2  13   4 16.7806 1.65815   2
  -2  13   4 19.0883 1.94458   1
  -1 -13   4 246.034 6.05572   1
  -1  13   4 245.694 7.09924   2
  -1  13   4 247.996 7.22930   1
   0 -13  -4 1.32726 0.69136   1
   0  13   4 0.50419 0.56827   1
   0  13   4 -0.1943 0.45618   2
  -1 -13  -4 13.8882 1.82911   1
  -2 -13  -4 8.82647 1.47375   2
  -2 -13  -4 6.47024 1.27928   1
  -3 -13  -4 30.6987 2.53039   1
  -3 -13  -4 30.0708 2.44888   2
  -4 -13  -4 3.22964 1.21169   1
  -4 -13  -4 3.99741 1.31916   2
  -6 -14   4 1.38702 0.91839   1
  -6  14   4 0.63429 0.65729   2
  -5 -14   4 18.4775 2.11384   1
  -5  14   4 15.5431 1.80871   2
  -4 -14   4 37.3943 2.39043   1
  -4  14   4 35.4300 2.20311   2
  -3 -14   4 13.0375 1.48886   1
  -3  14   4 12.2492 1.51667   2
  -2 -14   4 20.7144 1.39706   1
  -2  14   4 22.5633 1.76292   1
  -2  14   4 20.9977 1.97236   2
  -1 -14   4 0.59862 0.38820   1
   1 -14  -4 1.35670 0.68679   1
  -1  14   4 0.99009 0.57502   2
  -1  14   4 1.72255 0.73045   1
   0 -14  -4 103.718 4.19218   1
   0  14   4 94.5456 3.98843   1
   0  14   4 93.9490 3.97053   2
  -1 -14  -4 1.37844 0.76013   2
  -1 -14  -4 1.65104 0.80522   1
  -2 -14  -4 15.0756 1.91227   2
  -2 -14  -4 12.4540 1.73429   1
  -3 -14  -4 21.9621 2.43713   2
  -3 -14  -4 22.2196 2.44385   1
  -5 -15   4 -0.2317 0.66476   1
  -5  15   4 0.27793 0.56285   2
  -4 -15   4 27.0686 2.06663   1
  -4  15   4 23.7562 1.84577   2
  -3 -15   4 30.9702 1.95546   1
  -3  15   4 28.4643 1.99582   2
  -2 -15   4 12.1644 1.22936   1
  -2  15   4 12.2804 1.56315   2
   1 -15  -4 13.6452 1.65182   1
  -1 -15   4 15.6416 0.96022   1
  -1  15   4 14.4052 1.70736   1
  -1  15   4 13.0206 1.58124   2
   0 -15  -4 2.30174 0.84221   1
   0  15   4 0.51953 0.58297   1
  -1 -15  -4 13.8038 1.82145   2
  -1 -15  -4 10.4477 1.56356   1
  -2 -15  -4 6.69257 1.36078   1
  -2 -15  -4 6.06171 1.28067   2
  -3 -15  -4 3.63439 1.19532   1
  -3 -15  -4 5.46749 1.41013   2
  -5 -16   4 0.45009 0.73129   1
  -5  16   4 0.60653 0.65804   2
  -4 -16   4 51.8810 2.88999   1
  -4  16   4 53.9075 2.77058   2
  -3 -16   4 7.31155 1.13577   1
  -3  16   4 11.1972 1.46230   2
  -2 -16   4 -0.1775 0.43913   1
  -2  16   4 0.57055 0.58304   2
   1 -16  -4 66.4294 3.26177   1
  -1 -16   4 65.7636 2.00186   1
  -1  16   4 60.4351 3.06730   2
   0 -16  -4 85.7739 3.92305   1
  -1 -16  -4 20.8986 2.47140   2
  -1 -16  -4 23.4883 2.32384   1
  -2 -16  -4 2.95298 1.08791   1
  -2 -16  -4 4.38836 1.19228   2
  -3 -16  -4 16.8343 2.32797   1
  -3 -16  -4 24.3588 2.97883   2
  -4 -17   4 49.9075 2.87637   1
  -4  17   4 50.6689 2.72363   2
  -3 -17   4 0.94730 0.62335   1
  -3  17   4 0.92205 0.59406   2
  -2 -17   4 7.14054 0.98441   1
   2 -17  -4 5.41112 1.13332   1
  -2  17   4 5.40943 1.13399   2
   1 -17  -4 2.24477 0.84109   1
  -1  17   4 0.84805 0.66581   2
   0 -17  -4 4.10596 1.11702   1
  -1 -17  -4 43.7657 2.88984   1
  -2 -17  -4 7.74068 1.53786   1
  -4  18   4 10.2732 1.47941   2
  -3 -18   4 5.97749 1.06036   1
  -3  18   4 7.05577 1.31101   2
   2 -18  -4 10.2657 1.51825   1
  -2 -18   4 11.7545 1.17651   1
  -2  18   4 14.3798 1.68142   2
   1 -18  -4 1.56866 0.75992   1
   0 -18  -4 19.5359 2.21688   1
  -1 -18  -4 11.5045 1.77554   1
   2 -19  -4 6.61954 1.28039   1
  -2  19   4 6.11521 1.20310   2
   1 -19  -4 26.4888 2.18371   1
   0 -19  -4 10.5639 1.66653   1
  -8   0   5 -1.0536 0.65764   2
  -8   0   5 0.27681 0.81916   1
  -7   0   5 0.00230 0.66534   2
  -7   0   5 0.66214 0.84123   1
  -6   0   5 -0.6099 0.46061   2
  -6   0   5 1.33536 0.75004   1
  -5   0   5 1.71453 0.67626   2
  -5   0   5 1.10514 0.74100   1
  -4   0   5 0.55606 0.51457   1
  -4   0   5 0.75350 0.52007   2
  -3   0   5 1.09533 0.59596   2
  -3   0   5 -0.0282 0.41962   1
  -2   0   5 -0.0928 0.41506   2
  -2   0   5 0.88012 0.48613   1
  -1   0   5 -0.4104 0.33908   2
  -1   0   5 0.20207 0.47380   1
   0   0   5 -0.2054 0.41605   1
   0   0   5 0.76304 0.50445   2
   1   0   5 0.19999 0.48117   2
   1   0   5 0.27617 0.48369   1
  -1   0  -5 0.57871 0.44672   1
   2   0   5 0.32055 0.55028   1
  -2   0  -5 0.85351 0.53147   1
  -3   0  -5 0.17215 0.54751   1
  -3   0  -5 0.97027 0.61027   2
  -4   0  -5 -0.6603 0.48978   1
  -4   0  -5 0.27892 0.57338   2
  -5   0  -5 -0.1334 0.56743   2
  -8  -1   5 20.2894 2.65460   1
  -8  -1   5 20.4713 2.51946   2
  -8   1   5 20.7939 2.56897   2
  -8   1   5 32.1071 3.31109   1
  -7  -1   5 -0.2162 0.62402   1
  -7  -1   5 0.20759 0.72231   2
  -7   1   5 -0.0166 0.58733   2
  -7   1   5 0.39211 0.75231   1
  -6  -1   5 16.6345 2.12811   1
  -6  -1   5 16.7850 1.99200   2
  -6   1   5 14.7144 1.94504   1
  -6   1   5 20.5443 2.29837   2
  -5  -1   5 124.679 4.83829   1
  -5  -1   5 127.923 4.74754   2
  -5   1   5 134.231 5.01833   1
  -5   1   5 138.909 4.87100   2
  -4  -1   5 9.51252 1.32295   2
  -4  -1   5 12.4122 1.58699   1
  -4   1   5 15.4608 1.72361   1
  -4   1   5 7.67380 1.17307   2
  -3  -1   5 102.576 3.80783   1
  -3  -1   5 105.860 3.73305   2
  -3   1   5 106.853 3.92029   1
  -3   1   5 100.873 3.73072   2
  -2  -1   5 68.9596 2.76759   2
  -2  -1   5 64.2874 2.79149   1
  -2   1   5 70.5251 2.93116   1
  -2   1   5 69.9513 2.83226   2
  -1  -1   5 22.2227 1.53285   1
  -1  -1   5 23.9978 1.51745   2
  -1   1   5 21.4611 1.53158   2
   1   1  -5 21.9082 1.67596   2
  -1   1   5 20.2869 1.51596   1
   0  -1   5 132.265 4.14318   2
   0  -1   5 129.122 4.26430   1
   0   1   5 126.914 4.22082   2
   0   1  -5 129.644 4.15648   2
   0   1   5 136.687 4.41273   1
  -1  -1  -5 24.0461 1.73941   1
   1  -1   5 24.0790 1.63787   2
   1  -1   5 26.8676 1.76645   1
  -1   1  -5 24.1424 1.64699   1
   1   1   5 28.0561 1.78112   2
   1   1   5 29.3216 1.90475   1
  -2  -1  -5 119.001 4.40015   1
   2  -1   5 118.820 4.24812   1
  -2   1  -5 121.195 4.28721   1
   2   1   5 117.705 4.37501   1
  -3  -1  -5 12.7868 1.59784   2
  -3  -1  -5 12.7220 1.62448   1
  -3   1  -5 8.64111 1.29520   2
  -3   1  -5 10.5984 1.43112   1
  -4  -1  -5 35.3504 2.49009   1
  -4  -1  -5 26.5791 2.13805   2
  -4   1  -5 33.2194 2.27743   2
  -4   1  -5 32.4048 2.65732   1
  -5  -1  -5 0.23112 0.71796   2
  -5   1  -5 -0.0193 0.65558   2
  -8  -2   5 23.0349 2.78285   2
  -8  -2   5 25.7372 3.14237   1
  -8   2   5 24.1219 2.82471   2
  -8   2   5 24.0100 2.90529   1
  -7  -2   5 19.9996 2.41112   2
  -7  -2   5 15.7680 2.22715   1
  -7   2   5 15.4405 2.27607   1
  -7   2   5 11.2450 1.79723   2
  -6  -2   5 5.45704 1.33312   1
  -6  -2   5 6.11785 1.33329   2
  -6   2   5 3.66288 1.06079   2
  -6   2   5 3.61795 1.08233   1
  -5  -2   5 6.96108 1.23863   1
  -5  -2   5 6.14018 1.20093   2
  -5   2   5 4.18954 0.99063   2
  -5   2   5 8.55176 1.47647   1
  -4  -2   5 51.3499 2.71922   1
  -4  -2   5 56.8342 2.69467   2
  -4   2   5 51.9132 2.69231   1
  -4   2   5 52.7172 2.65243   2
  -3  -2   5 1.92337 0.65797   1
  -3  -2   5 1.87423 0.65294   2
  -3   2   5 2.13852 0.68239   2
  -3   2   5 2.70163 0.78844   1
  -2  -2   5 39.7514 2.09119   1
  -2  -2   5 38.6217 2.00428   2
  -2   2   5 40.4494 2.19900   1
  -2   2   5 39.7403 2.10631   2
  -1  -2   5 22.9369 1.49975   2
  -1  -2   5 20.7541 1.46620   1
   1   2  -5 21.7990 1.47057   2
  -1   2   5 21.3456 1.53567   2
  -1   2   5 22.5128 1.61263   1
   0  -2   5 142.086 4.48735   1
   0  -2   5 142.209 4.32853   2
   0   2   5 146.534 4.61952   2
   0   2  -5 141.505 4.38548   2
   0   2   5 141.687 4.69016   1
  -1  -2  -5 174.238 5.57513   1
   1  -2   5 173.088 5.31528   1
   1  -2   5 181.231 5.20024   2
   1   2   5 174.985 5.57282   1
  -1   2  -5 173.853 5.28036   1
  -1   2  -5 178.504 5.20766   2
   1   2   5 190.379 5.56718   2
  -2  -2  -5 17.8388 1.83199   1
   2  -2   5 20.0773 1.60205   1
   2   2   5 19.6805 1.95518   1
  -2   2  -5 18.9885 1.51409   1
  -3  -2  -5 193.423 6.28944   2
  -3  -2  -5 198.140 6.48492   1
  -3   2  -5 196.437 6.02609   2
  -3   2  -5 201.135 6.15875   1
  -4  -2  -5 2.52163 0.94137   1
  -4  -2  -5 1.46134 0.76958   2
  -4   2  -5 2.52488 0.82652   2
  -5  -2  -5 3.78052 1.12149   2
  -5   2  -5 3.20155 1.04076   2
  -8  -3   5 54.1273 3.76485   1
  -8  -3   5 62.4007 3.85182   2
  -8   3   5 54.2132 3.54808   2
  -8   3   5 58.2320 3.74086   1
  -7  -3   5 11.2176 1.82329   2
  -7  -3   5 8.82399 1.71556   1
  -7   3   5 13.7480 2.11061   1
  -7   3   5 10.6647 1.73802   2
  -6  -3   5 11.3023 1.69882   2
  -6  -3   5 14.3332 1.96914   1
  -6   3   5 12.7719 1.81448   2
  -6   3   5 17.8398 2.22604   1
  -5  -3   5 7.25599 1.29243   2
  -5  -3   5 5.67441 1.15575   1
  -5   3   5 5.57333 1.10133   2
  -5   3   5 6.26369 1.24107   1
  -4  -3   5 62.0142 2.97557   1
  -4  -3   5 55.5707 2.75268   2
  -4   3   5 59.9557 2.83991   2
  -4   3   5 59.9407 2.94125   1
  -3  -3   5 3.47867 0.81619   1
  -3  -3   5 3.03890 0.74407   2
  -3   3   5 3.75820 0.86856   1
  -3   3   5 2.31635 0.67846   2
  -2  -3   5 0.65776 0.51453   1
  -2  -3   5 1.48617 0.54240   2
  -2   3   5 0.68906 0.52136   2
   2   3  -5 2.16879 0.64079   2
  -2   3   5 0.62743 0.52301   1
  -1  -3   5 168.571 4.97178   2
  -1  -3   5 175.997 5.16484   1
   1   3  -5 177.028 5.06733   2
  -1   3   5 175.336 5.28683   2
  -1   3   5 182.390 5.49054   1
   0  -3   5 143.790 4.26725   2
   0  -3   5 141.778 4.42340   1
   0   3   5 136.194 4.57193   2
   0   3   5 141.438 4.73414   1
   0   3  -5 143.187 4.31799   2
   1  -3   5 44.1935 2.22740   1
  -1  -3  -5 47.2483 2.51479   1
   1  -3   5 47.6443 2.18401   2
   1   3   5 47.8163 2.46271   2
  -1   3  -5 50.3199 2.30438   1
  -1   3  -5 45.4986 2.18587   2
   1   3   5 50.6278 2.59847   1
  -2  -3  -5 203.389 6.44457   1
   2  -3   5 200.222 5.92660   1
   2   3   5 196.161 6.33140   1
  -2   3  -5 200.333 5.82282   2
  -2   3  -5 203.209 5.92770   1
  -3  -3  -5 10.1389 1.54654   1
  -3  -3  -5 7.06666 1.26293   2
  -3   3  -5 6.31542 1.11965   1
  -3   3  -5 7.27677 1.16233   2
  -4  -3  -5 54.6542 3.23359   1
  -4  -3  -5 61.8295 3.32933   2
  -4   3  -5 53.8106 2.84511   2
  -5  -3  -5 47.1448 3.16045   2
  -5  -3  -5 50.1571 3.33350   1
  -5   3  -5 52.1303 3.00411   2
  -7  -4   5 45.8986 3.16112   1
  -7  -4   5 45.2938 3.04487   2
  -7   4   5 41.0377 2.98669   1
  -7   4   5 36.9850 2.74197   2
  -6  -4   5 67.6743 3.55305   1
  -6  -4   5 63.4961 3.37139   2
  -6   4   5 61.5640 3.25672   2
  -6   4   5 64.9466 3.49400   1
  -5  -4   5 7.85023 1.30464   2
  -5  -4   5 8.33692 1.39787   1
  -5   4   5 8.13221 1.32064   2
  -5   4   5 6.22957 1.21865   1
  -4  -4   5 6.35292 1.15792   1
  -4  -4   5 5.29315 1.00033   2
  -4   4   5 8.84150 1.30393   1
  -4   4   5 5.85923 1.07247   2
  -3  -4   5 16.3125 1.68961   1
  -3  -4   5 13.7216 1.42127   2
  -3   4   5 14.1814 1.52434   2
  -3   4   5 16.1375 1.74398   1
  -2  -4   5 76.4847 3.04077   1
  -2  -4   5 81.9724 3.00198   2
   2   4  -5 81.1499 3.01881   2
  -2   4   5 77.1803 3.15533   2
  -2   4   5 83.0457 3.32008   1
  -1  -4   5 48.1339 2.14769   2
  -1  -4   5 51.8394 2.28265   1
   1   4  -5 49.5199 2.21028   2
  -1   4   5 45.9335 2.41624   1
  -1   4   5 47.7882 2.38296   2
   0  -4   5 2.03801 0.57626   2
   0  -4   5 1.44403 0.54179   1
   0   4  -5 1.76767 0.55059   2
   0   4   5 1.97212 0.70746   2
   0   4   5 1.01546 0.60883   1
  -1  -4  -5 64.2038 3.05237   1
   1  -4   5 67.0573 2.72982   1
   1  -4   5 64.7429 2.57743   2
   1   4   5 69.5420 3.12488   1
  -1   4  -5 66.1725 2.66542   2
   1   4   5 72.3282 3.11161   2
  -1   4  -5 64.6195 2.64759   1
  -2  -4  -5 12.2608 1.64038   1
  -2   4  -5 7.89139 1.09034   1
   2   4   5 6.59812 1.22292   1
  -3  -4  -5 56.9020 3.10063   2
  -3  -4  -5 59.3794 3.20495   1
  -3   4  -5 57.3851 2.70294   2
  -4  -4  -5 1.37905 0.82597   1
  -4  -4  -5 0.53176 0.74164   2
  -4   4  -5 0.56149 0.59869   2
  -5  -4  -5 13.7374 2.13418   1
  -5  -4  -5 11.3955 1.91797   2
  -5   4  -5 13.6356 1.82779   2
  -7  -5   5 2.25451 1.04544   1
  -7  -5   5 2.91444 1.15276   2
  -7   5   5 5.13948 1.34618   1
  -7   5   5 3.39398 1.09223   2
  -6  -5   5 18.1162 2.16822   1
  -6  -5   5 15.4127 1.89175   2
  -6   5   5 18.9328 2.19101   2
  -6   5   5 16.7280 2.09483   1
  -5  -5   5 15.2635 1.77395   2
  -5  -5   5 20.3825 2.13627   1
  -5   5   5 18.9299 2.10292   1
  -5   5   5 24.4090 2.29323   2
  -4  -5   5 1.29642 0.68119   1
  -4  -5   5 1.33842 0.62192   2
  -4   5   5 3.11508 0.84911   2
  -4   5   5 2.04189 0.79680   1
  -3  -5   5 42.3469 2.24662   1
  -3  -5   5 35.6622 2.01858   2
  -3   5   5 37.9735 2.24114   1
  -3   5   5 38.0600 2.17208   2
  -2  -5   5 89.1537 3.15140   2
  -2  -5   5 88.0955 3.27321   1
  -2   5   5 83.7108 3.44410   1
   2   5  -5 87.3119 3.16793   2
  -2   5   5 87.6582 3.41240   2
  -1  -5   5 1.37683 0.53317   2
  -1  -5   5 1.08845 0.51818   1
  -1   5   5 1.58571 0.66834   1
   1   5  -5 0.38828 0.41731   2
  -1   5   5 1.48233 0.61224   2
   0  -5   5 91.8225 3.19135   1
   0  -5   5 88.5365 3.01503   2
   0   5  -5 85.5405 3.06305   2
   0   5   5 90.6154 3.54448   2
   0   5   5 88.4205 3.62211   1
   1  -5   5 82.0294 3.01903   1
  -1  -5  -5 78.6193 3.47029   1
   1   5   5 84.0876 3.49323   2
  -1   5  -5 78.9843 2.93002   1
   1   5   5 81.6793 3.54614   1
  -1   5  -5 79.2179 2.92604   2
  -2  -5  -5 21.7580 2.23056   1
  -2   5  -5 20.5198 1.43269   1
   2   5   5 16.9542 1.94453   1
  -3  -5  -5 71.3769 3.53656   2
  -3  -5  -5 73.4977 3.65747   1
  -3   5  -5 70.5510 2.99262   2
  -4  -5  -5 1.18387 0.83116   1
  -4  -5  -5 0.01269 0.70575   2
  -4   5  -5 -0.1866 0.46901   2
  -5  -5  -5 10.6298 1.91856   1
  -5  -5  -5 4.33498 1.31703   2
  -5   5  -5 8.72723 1.44722   2
  -7  -6   5 29.9617 2.93424   2
  -7  -6   5 34.3440 2.81385   1
  -7   6   5 32.2420 2.55989   2
  -7   6   5 32.2760 2.58940   1
  -6  -6   5 6.51071 1.37000   1
  -6  -6   5 5.95862 1.35646   2
  -6   6   5 8.54243 1.52828   1
  -6   6   5 4.85189 1.14353   2
  -5  -6   5 21.8920 2.27680   1
  -5  -6   5 15.5720 1.84336   2
  -5   6   5 17.9102 2.02191   1
  -5   6   5 15.0106 1.84242   2
  -4  -6   5 71.4489 3.06533   2
  -4  -6   5 61.4190 3.00051   1
  -4   6   5 58.9992 2.96703   1
  -4   6   5 61.4543 2.95717   2
  -3  -6   5 16.0125 1.64723   1
  -3  -6   5 18.0582 1.44395   2
  -3   6   5 18.6354 1.78208   2
  -3   6   5 14.3587 1.66243   1
  -2  -6   5 91.2024 3.37771   1
  -2  -6   5 91.5584 3.23256   2
   2   6  -5 96.1408 3.35800   2
  -2   6   5 92.6458 3.67357   1
  -2   6   5 99.4863 3.69107   2
  -1  -6   5 3.09378 0.70224   1
  -1  -6   5 3.58894 0.70772   2
  -1   6   5 4.93790 0.96587   2
   1   6  -5 2.51276 0.63094   2
  -1   6   5 3.97133 0.86308   1
   0  -6   5 225.620 5.80580   2
   0  -6   5 222.995 6.02235   1
   0   6   5 226.453 6.59207   2
   0   6   5 224.726 6.74948   1
   0   6  -5 219.062 5.88291   2
  -1  -6  -5 9.92140 1.45475   1
   1  -6   5 11.8718 1.18128   1
  -1   6  -5 11.2347 1.14336   1
   1   6   5 11.0787 1.53487   2
   1   6   5 13.0033 1.66899   1
  -1   6  -5 12.6578 1.25473   2
  -2  -6  -5 0.31483 0.59583   1
  -2   6  -5 0.39783 0.46273   1
  -3  -6  -5 76.9271 3.68363   2
  -3  -6  -5 66.5136 3.56218   1
  -3   6  -5 69.9372 2.89852   2
  -4  -6  -5 17.6418 2.20409   1
  -4  -6  -5 18.8686 2.18450   2
  -4   6  -5 14.6760 1.63696   2
  -7  -7   5 0.69635 0.88011   1
  -7  -7   5 3.88362 1.24934   2
  -7   7   5 1.61232 0.98289   1
  -7   7   5 3.06325 1.11368   2
  -6  -7   5 4.51049 1.27523   1
  -6  -7   5 5.10469 1.24302   2
  -6   7   5 3.12179 0.97276   2
  -6   7   5 4.26381 1.21914   1
  -5  -7   5 34.8580 2.32486   2
  -5  -7   5 35.5140 2.42596   1
  -5   7   5 37.0725 2.42910   1
  -5   7   5 36.0634 2.33358   2
  -4  -7   5 10.3462 1.42363   1
  -4  -7   5 15.8230 1.70219   2
  -4   7   5 16.7347 1.81729   1
  -4   7   5 12.0032 1.57812   2
  -3  -7   5 62.9672 2.88948   1
  -3  -7   5 66.2158 2.74425   2
  -3   7   5 58.7599 2.83373   2
  -3   7   5 64.5926 3.02264   1
  -2  -7   5 12.3300 1.22569   2
  -2  -7   5 10.7172 1.20618   1
   2   7  -5 12.5096 1.29925   2
  -2   7   5 12.0636 1.48517   1
  -2   7   5 11.9587 1.37790   2
  -1  -7   5 90.1883 3.16845   1
  -1  -7   5 89.6526 3.00186   2
   1   7  -5 87.5937 3.05142   2
  -1   7   5 88.0734 3.60908   1
  -1   7   5 89.1892 3.55652   2
   0  -7   5 3.08931 0.64379   1
   0  -7   5 3.14553 0.60239   2
   0   7  -5 3.35455 0.65297   2
   0   7   5 3.41744 0.88823   1
   0   7   5 3.74723 0.89397   2
   1  -7   5 13.6761 1.13078   1
  -1  -7  -5 11.0401 1.50503   1
   1   7   5 12.6567 1.58442   2
  -1   7  -5 12.5941 1.04674   1
  -1   7  -5 13.3492 1.35824   2
   1   7   5 11.0655 1.45979   1
  -2  -7  -5 65.2389 3.36302   1
  -3  -7  -5 2.06567 0.90944   1
  -3  -7  -5 1.36841 0.82500   2
  -3   7  -5 0.75134 0.50270   2
  -4  -7  -5 27.3186 2.78468   2
  -4  -7  -5 31.0811 3.07340   1
  -4   7  -5 25.1427 1.80346   2
  -7  -8   5 4.30323 1.33655   1
  -7  -8   5 3.98283 1.22315   2
  -7   8   5 3.59608 1.12269   2
  -6  -8   5 37.2997 2.78694   1
  -6  -8   5 37.5168 2.68049   2
  -6   8   5 36.3500 2.62576   1
  -6   8   5 39.6983 2.60788   2
  -5  -8   5 35.5551 2.37002   2
  -5  -8   5 36.6316 2.51548   1
  -5   8   5 39.0134 2.50184   1
  -5   8   5 43.1485 2.56322   2
  -4  -8   5 0.14827 0.51107   2
  -4  -8   5 0.40638 0.58081   1
  -4   8   5 -0.3355 0.43360   1
  -4   8   5 0.99598 0.62194   2
  -3  -8   5 0.69933 0.57063   2
  -3  -8   5 0.63450 0.57285   1
  -3   8   5 1.56919 0.65914   2
  -3   8   5 1.27606 0.64635   1
  -2  -8   5 11.8340 1.26625   1
  -2  -8   5 11.7235 1.19028   2
  -2   8   5 10.4667 1.40171   1
  -2   8   5 14.5132 1.58852   2
   2   8  -5 11.3316 1.21119   2
  -1  -8   5 48.1482 2.00721   2
  -1  -8   5 46.9341 2.11511   1
  -1   8   5 46.4681 2.53991   1
  -1   8   5 48.5547 2.52690   2
   1   8  -5 45.3920 2.04117   2
   0  -8   5 14.8062 1.02345   2
   0  -8   5 13.0291 1.08366   1
   0   8   5 14.4897 1.67731   1
   0   8  -5 13.1526 1.07263   2
   0   8   5 11.7505 1.47945   2
  -1  -8  -5 7.20148 1.31837   1
   1  -8   5 9.43044 1.01276   1
   1   8   5 8.49635 1.37646   2
   1   8   5 7.98636 1.38406   1
  -1   8  -5 8.40636 1.00749   1
  -2  -8  -5 16.7453 1.96967   1
  -3  -8  -5 9.15241 1.54662   2
  -3  -8  -5 8.48525 1.53174   1
  -3   8  -5 9.37323 1.13812   2
  -4  -8  -5 4.44639 1.31000   2
  -4  -8  -5 2.92385 1.15354   1
  -4   8  -5 3.78027 0.88514   2
  -7  -9   5 0.11088 0.77017   2
  -7  -9   5 1.20271 0.95616   1
  -7   9   5 0.68609 0.75243   2
  -6  -9   5 78.8069 4.03693   1
  -6  -9   5 71.7709 3.72208   2
  -6   9   5 73.0611 3.63176   2
  -6   9   5 72.7925 3.71702   1
  -5  -9   5 43.0039 2.73879   1
  -5  -9   5 43.4027 2.64708   2
  -5   9   5 39.3410 2.55413   1
  -5   9   5 40.7664 2.54453   2
  -4  -9   5 9.43929 1.39703   1
  -4  -9   5 7.25138 1.18734   2
  -4   9   5 7.90160 1.29835   2
  -4   9   5 9.02624 1.41512   1
  -3  -9   5 43.7569 2.32375   1
  -3  -9   5 41.2379 2.12279   2
   3   9  -5 43.6195 2.39348   2
  -3   9   5 39.4981 2.33497   2
  -3   9   5 39.7664 2.40145   1
  -2  -9   5 0.17216 0.40726   1
  -2  -9   5 0.19127 0.39091   2
  -2   9   5 0.01453 0.44090   1
   2   9  -5 0.81553 0.46372   2
  -2   9   5 0.43328 0.52569   2
  -1  -9   5 0.14246 0.36937   2
  -1  -9   5 -0.0744 0.39339   1
  -1   9   5 1.03584 0.68487   1
  -1   9   5 0.55907 0.53579   2
   1   9  -5 0.66149 0.40197   2
   0  -9   5 63.6930 2.36565   1
   0  -9   5 60.6550 2.17562   2
   0   9   5 66.5620 3.21081   1
   0   9   5 62.8882 3.08835   2
  -1  -9  -5 82.1248 3.83392   1
   1  -9   5 78.9353 2.71479   1
   1   9   5 83.0754 3.75906   1
  -2  -9  -5 16.7655 2.00627   1
  -3  -9  -5 21.1204 2.33532   2
  -3  -9  -5 22.2537 2.53524   1
  -3   9  -5 20.5535 1.40424   2
  -4  -9  -5 0.90940 0.89781   1
  -4  -9  -5 1.02329 0.93246   2
  -4   9  -5 1.25237 0.61306   2
  -7 -10   5 18.0878 2.54743   1
  -7 -10   5 19.3750 2.52731   2
  -7  10   5 16.1929 2.19227   2
  -6 -10   5 33.3051 2.55470   2
  -6 -10   5 31.7809 3.06629   1
  -6  10   5 32.0876 2.39273   2
  -5 -10   5 23.9905 2.28926   2
  -5 -10   5 27.5012 2.25044   1
  -5  10   5 25.3122 2.44080   2
  -5  10   5 26.9648 2.13739   1
  -4 -10   5 -0.3272 0.53726   1
  -4 -10   5 -0.4751 0.46258   2
  -4  10   5 0.05081 0.51721   2
  -4  10   5 -0.2040 0.46188   1
  -3 -10   5 28.7977 1.89894   1
  -3 -10   5 25.8844 1.69496   2
  -3  10   5 25.8036 1.94106   2
  -3  10   5 28.4382 2.06221   1
  -2 -10   5 100.225 3.48998   1
  -2 -10   5 99.7348 3.29743   2
  -2  10   5 96.5202 3.88032   2
  -2  10   5 98.5825 3.97857   1
  -1 -10   5 0.79767 0.41114   2
  -1 -10   5 0.51912 0.44265   1
  -1  10   5 0.88912 0.60852   2
  -1  10   5 0.49508 0.59606   1
   0 -10  -5 13.7651 1.75791   1
   0 -10   5 13.8664 1.05502   1
   0  10   5 14.7867 1.70661   2
   0  10   5 13.9777 1.68255   1
  -1 -10  -5 300.392 8.94468   1
   1 -10   5 305.524 7.24293   1
   1  10   5 294.159 8.82022   1
  -2 -10  -5 5.45178 1.25726   1
  -2 -10  -5 3.04599 0.96734   2
  -2  10  -5 4.75386 0.72972   2
  -3 -10  -5 0.77315 0.78506   1
  -3 -10  -5 0.94834 0.80154   2
  -3  10  -5 1.24376 0.49323   2
  -4 -10  -5 26.6144 2.95337   1
  -4 -10  -5 27.5315 2.86717   2
  -4  10  -5 27.5045 1.68249   2
  -6 -11   5 13.9811 2.02721   1
  -6  11   5 15.0191 2.00715   2
  -5 -11   5 2.95908 0.99211   2
  -5 -11   5 2.19528 0.90614   1
  -5  11   5 2.08146 0.89851   2
  -5  11   5 1.47150 0.86750   1
  -4 -11   5 1.88084 0.75580   2
  -4 -11   5 2.01927 0.79840   1
  -4  11   5 0.91114 0.66235   1
  -4  11   5 0.56645 0.63834   2
  -3 -11   5 19.8600 1.84779   1
  -3 -11   5 21.1593 1.55871   2
  -3  11   5 20.4383 2.05554   1
  -3  11   5 23.4148 1.82916   2
  -2 -11   5 53.2237 2.38333   1
  -2  11   5 53.4539 2.83974   1
  -2  11   5 53.2198 2.77570   2
  -1 -11   5 15.5923 1.17894   1
  -1  11   5 19.1244 2.05321   1
  -1  11   5 15.2359 1.74359   2
   0 -11   5 59.1390 2.14616   1
   0 -11  -5 59.5185 3.16275   1
   0  11   5 57.8953 3.12830   1
   0  11   5 61.9782 3.12076   2
  -1 -11  -5 8.47206 1.50304   1
   1  11   5 7.22645 1.37190   1
  -2 -11  -5 95.7417 4.43418   1
  -2 -11  -5 97.1495 4.29492   2
  -2  11  -5 91.2143 2.82947   2
  -3 -11  -5 7.36557 1.53206   2
  -3 -11  -5 6.69251 1.54057   1
  -3  11  -5 7.87684 0.93293   2
  -6 -12   5 9.29990 1.77191   1
  -6  12   5 8.68428 1.54268   2
  -5 -12   5 0.02411 0.69167   1
  -5  12   5 0.90736 0.69163   2
  -4 -12   5 25.2208 1.99372   1
  -4  12   5 20.0981 2.10587   1
  -4  12   5 21.0838 2.18981   2
  -3 -12   5 12.7997 1.52525   1
  -3  12   5 15.8820 1.87321   1
  -3  12   5 13.5717 1.65471   2
  -2 -12   5 23.6027 1.56328   1
  -2  12   5 23.5250 1.91885   1
  -2  12   5 21.3848 2.04655   2
  -1 -12   5 28.5950 1.53521   1
  -1  12   5 30.8199 2.20359   1
  -1  12   5 30.7708 2.17038   2
   0 -12   5 -0.0145 0.33102   1
   0 -12  -5 -0.0741 0.56385   1
   0  12   5 0.53957 0.59547   2
   0  12   5 0.16089 0.59737   1
  -1 -12  -5 3.64772 1.07244   1
   1  12   5 2.80043 0.97666   1
  -2 -12  -5 5.71978 1.31348   2
  -2 -12  -5 9.90658 1.75085   1
  -2  12  -5 5.31665 0.65263   2
  -3 -12  -5 56.5349 3.58130   1
  -3 -12  -5 53.2441 3.40033   2
  -6 -13   5 20.5202 2.45527   1
  -6  13   5 21.3720 2.37023   2
  -5 -13   5 17.4317 2.13103   1
  -5  13   5 19.2568 2.12043   2
  -4 -13   5 262.748 7.81136   1
  -4  13   5 263.441 7.82462   2
  -3 -13   5 28.5409 1.93677   1
  -3  13   5 28.9658 2.15107   1
  -3  13   5 29.9189 2.14279   2
  -2 -13   5 0.17661 0.44934   1
  -2  13   5 -0.0307 0.44484   2
  -2  13   5 -0.0231 0.48612   1
  -1 -13   5 0.94039 0.45463   1
  -1  13   5 1.75071 0.76203   2
  -1  13   5 1.97318 0.83229   1
   0 -13  -5 0.36868 0.65691   1
   0 -13   5 0.43642 0.33863   1
   0  13   5 0.99179 0.72662   2
   0  13   5 0.46299 0.63204   1
  -1 -13  -5 32.6875 2.54702   1
  -2 -13  -5 15.3525 2.03093   2
  -2 -13  -5 12.4910 1.84840   1
  -3 -13  -5 0.08000 0.80734   1
  -3 -13  -5 0.28812 0.86063   2
  -5 -14   5 0.50335 0.75051   1
  -5  14   5 1.33091 0.75790   2
  -4 -14   5 95.2368 4.03420   1
  -4  14   5 94.3557 4.04242   2
  -3 -14   5 15.2244 1.61759   1
  -3  14   5 14.4885 1.82333   2
  -2 -14   5 1.71574 0.64105   1
  -2  14   5 1.41510 0.80528   1
  -2  14   5 0.06459 0.59663   2
   1 -14  -5 233.796 7.54737   1
  -1 -14   5 239.082 6.05270   1
  -1  14   5 248.066 7.54469   2
  -1  14   5 251.598 7.67458   1
   0 -14  -5 107.600 4.65042   1
   0  14   5 100.293 4.41880   2
   0  14   5 106.107 4.52910   1
  -1 -14  -5 5.69646 1.31586   1
  -2 -14  -5 11.7326 1.87293   2
  -2 -14  -5 14.6299 2.03655   1
  -5 -15   5 20.9943 2.32299   1
  -5  15   5 17.9337 2.10263   2
  -4 -15   5 6.56040 1.34011   1
  -4  15   5 7.13543 1.38922   2
  -3 -15   5 24.6145 1.82149   1
  -3  15   5 25.7812 2.45393   2
  -2 -15   5 81.2891 2.99091   1
  -2  15   5 75.5909 3.61478   2
  -1 -15   5 86.1359 2.61104   1
   1 -15  -5 77.9635 3.84092   1
  -1  15   5 84.7069 3.94336   1
  -1  15   5 77.9089 3.74797   2
   0 -15  -5 2.03094 0.94549   1
   0  15   5 2.32003 1.02135   1
  -1 -15  -5 26.5923 2.50486   2
  -1 -15  -5 19.6314 2.29508   1
  -2 -15  -5 6.64599 1.51971   2
  -2 -15  -5 9.41592 1.75431   1
  -4 -16   5 45.8319 2.75315   1
  -4  16   5 49.7779 2.85566   2
  -3 -16   5 41.1388 2.37126   1
  -3  16   5 41.8315 2.64406   2
  -2 -16   5 31.8112 1.76701   1
  -2  16   5 33.0557 2.40349   2
   1 -16  -5 -0.3243 0.61423   1
  -1  16   5 0.28150 0.60049   2
   0 -16  -5 1.14185 0.81677   1
  -1 -16  -5 36.0154 2.73893   1
  -3 -17   5 11.6321 1.41961   1
  -3  17   5 15.4334 1.87969   2
  -2 -17   5 0.08013 0.52272   1
   2 -17  -5 1.11026 0.81009   1
  -2  17   5 0.81987 0.69715   2
   1 -17  -5 100.735 4.59444   1
  -1  17   5 107.708 4.58348   2
   0 -17  -5 3.43144 1.09730   1
  -1 -17  -5 -0.1170 0.72311   1
   2 -18  -5 8.70582 1.55515   1
  -2  18   5 11.1909 1.71654   2
   1 -18  -5 0.13545 0.64485   1
  -7   0   6 60.8939 3.59989   2
  -7   0   6 57.2191 3.69070   1
  -6   0   6 1.45548 0.83722   2
  -6   0   6 0.96066 0.84330   1
  -5   0   6 43.3414 2.76399   1
  -5   0   6 49.6082 2.84105   2
  -4   0   6 7.26215 1.29846   1
  -4   0   6 11.2640 1.52694   2
  -3   0   6 1.58670 0.75593   2
  -3   0   6 1.59874 0.77642   1
  -2   0   6 60.3120 2.88819   1
  -2   0   6 52.2253 2.64319   2
  -1   0   6 14.0873 1.59563   1
  -1   0   6 15.0381 1.59038   2
   0   0   6 30.6074 2.01343   2
   0   0   6 30.4691 2.07317   1
   1   0   6 48.6199 2.72680   1
   1   0   6 55.5880 2.74461   2
  -1   0  -6 53.5915 2.78700   1
   2   0   6 49.1412 2.77709   1
  -2   0  -6 45.7062 2.69149   1
  -3   0  -6 49.2281 2.92186   1
  -3   0  -6 51.9286 2.88448   2
  -4   0  -6 0.57164 0.71084   2
  -7  -1   6 0.78715 0.81202   2
  -7  -1   6 0.66917 0.92056   1
  -7   1   6 -0.4203 0.60489   2
  -7   1   6 0.54220 0.84088   1
  -6  -1   6 15.9526 2.12786   1
  -6  -1   6 9.96590 1.63217   2
  -6   1   6 10.8355 1.68234   2
  -6   1   6 13.9248 2.03097   1
  -5  -1   6 12.0870 1.69440   1
  -5  -1   6 12.3158 1.68311   2
  -5   1   6 11.6864 1.74943   1
  -5   1   6 16.5775 1.94326   2
  -4  -1   6 46.6591 2.73884   1
  -4  -1   6 52.4742 2.76308   2
  -4   1   6 48.7122 2.71051   2
  -4   1   6 48.1535 2.78947   1
  -3  -1   6 876.735 20.7899   1
  -3  -1   6 907.753 20.3101   2
  -3   1   6 883.627 20.3245   2
  -3   1   6 909.858 20.9677   1
  -2  -1   6 75.2154 3.22810   2
  -2  -1   6 78.2690 3.40861   1
  -2   1   6 82.7029 3.48330   1
  -2   1   6 83.9642 3.41538   2
  -1  -1   6 62.0352 2.81750   2
  -1  -1   6 62.0054 2.91810   1
  -1   1   6 67.2302 3.08091   1
  -1   1   6 66.0105 2.97004   2
   0  -1   6 35.9396 2.09370   2
   0  -1   6 29.7223 2.00024   1
   0   1   6 28.0887 2.01495   1
   0   1   6 33.5644 2.13049   2
  -1  -1  -6 1.34571 0.73659   1
   1  -1   6 1.33048 0.65991   2
   1  -1   6 2.03637 0.76899   1
  -1   1  -6 0.53709 0.56344   1
   1   1   6 0.01827 0.53065   2
   1   1   6 1.35513 0.73126   1
  -2  -1  -6 13.1270 1.73987   1
   2  -1   6 11.5946 1.54610   1
  -2   1  -6 14.7092 1.72377   1
   2   1   6 12.3140 1.69957   1
  -3  -1  -6 1.39209 0.80558   2
  -3  -1  -6 1.94032 0.84031   1
  -3   1  -6 1.53884 0.75841   2
  -4  -1  -6 1.64234 0.95179   2
  -4   1  -6 1.33336 0.77818   2
  -7  -2   6 5.12714 1.44473   1
  -7  -2   6 5.12215 1.31578   2
  -7   2   6 5.42410 1.44261   1
  -7   2   6 3.48350 1.17247   2
  -6  -2   6 23.5714 2.53265   2
  -6  -2   6 21.9898 2.51463   1
  -6   2   6 24.0031 2.43515   2
  -6   2   6 26.8302 2.70745   1
  -5  -2   6 8.33165 1.47127   2
  -5  -2   6 7.20423 1.36405   1
  -5   2   6 9.06516 1.52315   2
  -5   2   6 8.85463 1.56281   1
  -4  -2   6 31.7308 2.20278   2
  -4  -2   6 38.8091 2.44069   1
  -4   2   6 33.3703 2.24412   2
  -4   2   6 33.5319 2.31638   1
  -3  -2   6 31.2042 2.10057   2
  -3  -2   6 28.3381 2.08730   1
  -3   2   6 31.4802 2.13000   2
  -3   2   6 34.5268 2.29353   1
  -2  -2   6 28.7337 1.89435   2
  -2  -2   6 30.0937 2.01073   1
  -2   2   6 29.1569 2.03322   1
  -2   2   6 30.8793 2.04042   2
  -1  -2   6 11.3817 1.35438   2
  -1  -2   6 11.0688 1.36533   1
  -1   2   6 13.5196 1.55937   1
  -1   2   6 12.0996 1.53606   2
   0  -2   6 5.28971 0.94741   2
   0  -2   6 4.32505 0.94047   1
   0   2   6 4.83675 1.10253   1
   0   2   6 5.26763 1.02261   2
  -1  -2  -6 3.53902 0.96387   1
   1  -2   6 5.45977 1.01080   2
   1  -2   6 3.42858 0.91174   1
  -1   2  -6 5.08159 0.96743   1
   1   2   6 4.71272 1.02720   2
   1   2   6 3.84323 1.00558   1
  -2  -2  -6 35.0677 2.46860   1
   2  -2   6 34.7406 2.27753   1
   2   2   6 36.5690 2.50142   1
  -2   2  -6 33.1783 2.19170   1
  -3  -2  -6 3.81100 1.04341   2
  -3  -2  -6 5.11959 1.22424   1
  -3   2  -6 3.84597 0.97023   2
  -4  -2  -6 45.9633 3.02858   2
  -4   2  -6 45.3502 2.82622   2
  -7  -3   6 13.6339 2.15083   2
  -7  -3   6 13.9004 2.15452   1
  -7   3   6 12.3279 1.95858   2
  -7   3   6 13.4794 2.18982   1
  -6  -3   6 34.8191 2.68240   1
  -6  -3   6 38.0725 2.67848   2
  -6   3   6 35.2765 2.67868   1
  -6   3   6 32.8534 2.50695   2
  -5  -3   6 7.27106 1.42120   1
  -5  -3   6 6.87276 1.33174   2
  -5   3   6 7.25701 1.39991   1
  -5   3   6 7.67924 1.34733   2
  -4  -3   6 6.18887 1.18355   2
  -4  -3   6 7.66496 1.33821   1
  -4   3   6 4.00070 1.04569   2
  -4   3   6 10.1773 1.64478   1
  -3  -3   6 6.27147 1.11023   2
  -3  -3   6 5.66785 1.14087   1
  -3   3   6 6.06377 1.15329   1
  -3   3   6 9.01742 1.42730   2
  -2  -3   6 32.7886 1.99989   2
  -2  -3   6 28.5695 1.96513   1
  -2   3   6 28.2681 2.03027   2
  -2   3   6 33.0068 2.18571   1
  -1  -3   6 1.26969 0.62490   2
  -1  -3   6 0.73624 0.56753   1
  -1   3   6 0.65531 0.58147   2
  -1   3   6 1.69782 0.65986   1
   0  -3   6 76.7003 3.23331   1
   0  -3   6 85.1016 3.24885   2
   0   3   6 77.1703 3.53684   1
   0   3   6 79.2145 3.46233   2
   1  -3   6 11.9603 1.38648   2
  -1  -3  -6 11.0154 1.53075   1
   1  -3   6 11.3451 1.41797   1
   1   3   6 10.0453 1.51509   1
   1   3   6 14.3786 1.72146   2
  -1   3  -6 10.5969 1.35727   1
  -2  -3  -6 37.3715 2.54544   1
   2  -3   6 34.1087 2.25649   1
  -2   3  -6 35.7354 2.23694   1
   2   3   6 37.8507 2.56543   1
  -3  -3  -6 0.89593 0.70722   1
  -3  -3  -6 1.07840 0.82992   2
  -3   3  -6 1.35241 0.70198   2
  -4  -3  -6 16.3151 2.13248   2
  -4  -3  -6 21.9468 2.52349   1
  -4   3  -6 19.6834 2.11271   2
  -7  -4   6 5.19320 1.41285   1
  -7  -4   6 4.77705 1.38261   2
  -7   4   6 3.02890 1.12232   2
  -7   4   6 6.17996 1.50201   1
  -6  -4   6 -0.1111 0.64732   2
  -6  -4   6 0.36955 0.75004   1
  -6   4   6 0.32311 0.67041   2
  -6   4   6 0.85748 0.78416   1
  -5  -4   6 96.0857 4.13168   2
  -5  -4   6 104.325 4.48188   1
  -5   4   6 93.2553 4.13542   2
  -5   4   6 95.3094 4.31427   1
  -4  -4   6 4.62958 1.05190   1
  -4  -4   6 7.05810 1.23800   2
  -4   4   6 7.31923 1.23805   2
  -4   4   6 7.27483 1.28545   1
  -3  -4   6 42.1755 2.33051   2
  -3  -4   6 44.4442 2.51183   1
  -3   4   6 42.9662 2.51994   2
  -3   4   6 43.8981 2.63409   1
  -2  -4   6 14.6907 1.60725   1
  -2  -4   6 7.68222 1.17313   2
  -2   4   6 7.17410 1.25116   1
  -2   4   6 8.16924 1.27125   2
  -1  -4   6 1.05369 0.56789   2
  -1  -4   6 0.45609 0.54034   1
  -1   4   6 1.82618 0.77188   1
  -1   4   6 0.55973 0.55125   2
   0  -4   6 2.21789 0.69365   2
   0  -4   6 2.36444 0.71607   1
   0   4   6 1.11111 0.71492   1
   0   4  -6 1.29399 0.59426   2
   0   4   6 1.85546 0.78727   2
   1  -4   6 5.84746 1.04848   1
  -1  -4  -6 7.85632 1.32059   1
   1  -4   6 5.86523 1.00727   2
   1   4   6 4.69939 1.11942   1
   1   4   6 6.93636 1.24182   2
  -1   4  -6 7.16119 1.10341   1
  -2  -4  -6 110.032 4.63658   1
   2   4   6 102.164 4.48733   1
  -3  -4  -6 117.484 5.00460   1
  -3  -4  -6 112.029 4.81485   2
  -3   4  -6 113.067 4.29661   2
  -4  -4  -6 4.83896 1.30071   2
  -4  -4  -6 2.93598 1.10467   1
  -4   4  -6 4.89423 1.12366   2
  -7  -5   6 0.57996 0.89397   1
  -7  -5   6 5.04472 1.39684   2
  -7   5   6 1.64427 1.00686   1
  -7   5   6 2.02053 1.02319   2
  -6  -5   6 1.45409 0.88365   2
  -6  -5   6 0.40010 0.78439   1
  -6   5   6 0.08320 0.69659   2
  -6   5   6 0.87180 0.83211   1
  -5  -5   6 5.86629 1.39461   1
  -5  -5   6 7.08452 1.31107   2
  -5   5   6 7.39197 1.46524   1
  -5   5   6 3.86078 1.02731   2
  -4  -5   6 -0.0402 0.51797   1
  -4  -5   6 0.95561 0.63720   2
  -4   5   6 1.48628 0.82320   1
  -4   5   6 2.50666 0.88371   2
  -3  -5   6 90.1161 3.70710   1
  -3  -5   6 95.5935 3.64706   2
  -3   5   6 88.8612 3.79117   2
  -3   5   6 87.5113 3.85924   1
  -2  -5   6 3.88844 0.85888   2
  -2  -5   6 5.57404 1.02201   1
  -2   5   6 3.34292 0.90425   2
  -2   5   6 4.54874 1.04890   1
  -1  -5   6 3.09625 0.77602   2
  -1  -5   6 3.95226 0.90741   1
  -1   5   6 4.68877 1.07023   1
  -1   5   6 4.67099 1.04177   2
   1   5  -6 4.19034 0.87232   2
   0  -5   6 1.20543 0.55163   2
   0  -5   6 0.84382 0.55829   1
   0   5   6 1.30978 0.75119   1
   0   5   6 1.83333 0.78576   2
   1  -5   6 18.7443 1.55409   1
  -1  -5  -6 20.6632 2.20513   1
   1   5   6 17.9253 2.03294   1
   1   5   6 18.1045 1.93611   2
  -1   5  -6 18.8074 1.50883   1
  -2  -5  -6 49.3514 3.01725   1
   2   5   6 41.7539 2.81396   1
  -3  -5  -6 23.1679 2.52208   1
  -3  -5  -6 21.4314 2.34948   2
  -3   5  -6 24.6476 1.87711   2
  -4  -5  -6 21.2009 2.54527   1
  -4  -5  -6 19.4123 2.38055   2
  -4   5  -6 18.5331 1.97366   2
  -7  -6   6 20.7161 2.65169   1
  -7  -6   6 19.3895 2.41953   2
  -7   6   6 22.3134 2.66443   1
  -7   6   6 17.5883 2.28278   2
  -6  -6   6 4.30839 1.33155   1
  -6  -6   6 8.21375 1.59368   2
  -6   6   6 4.54023 1.20903   1
  -6   6   6 4.71933 1.30234   2
  -5  -6   6 2.60943 0.92881   2
  -5  -6   6 3.51229 1.09949   1
  -5   6   6 3.10545 1.01451   1
  -5   6   6 4.32028 1.08815   2
  -4  -6   6 16.0700 1.84148   1
  -4  -6   6 11.8799 1.53020   2
  -4   6   6 15.0093 1.84937   1
  -4   6   6 16.4593 1.90054   2
  -3  -6   6 17.6053 1.79427   1
  -3  -6   6 20.0786 1.85234   2
  -3   6   6 21.6516 2.13719   1
  -3   6   6 21.7229 2.18633   2
  -2  -6   6 38.4003 2.10882   2
  -2  -6   6 37.3326 2.18801   1
  -2   6   6 40.7836 2.50965   1
  -2   6   6 38.6014 2.41417   2
  -1  -6   6 152.478 4.93234   1
  -1  -6   6 155.394 4.76733   2
  -1   6   6 162.827 5.44300   2
  -1   6   6 157.078 5.49737   1
   0  -6   6 -0.0797 0.43480   2
   0  -6   6 -0.1136 0.47711   1
   0   6   6 0.92777 0.71542   1
   0   6   6 1.20383 0.73078   2
  -1  -6  -6 4.12760 1.12872   1
   1  -6   6 6.04723 1.01568   1
   1   6   6 6.92436 1.36359   1
   1   6   6 9.52118 1.55820   2
  -2  -6  -6 1.16389 0.85457   1
  -3  -6  -6 53.1474 3.31679   2
  -3  -6  -6 58.4134 3.49544   1
  -3   6  -6 55.1528 2.74702   2
  -7  -7   6 0.96878 0.96141   1
  -7  -7   6 -0.1320 0.68379   2
  -7   7   6 -0.1695 0.76212   1
  -7   7   6 0.33488 0.74298   2
  -6  -7   6 7.65399 1.50444   2
  -6  -7   6 6.12965 1.42696   1
  -6   7   6 7.70689 1.57791   1
  -6   7   6 8.09352 1.61066   2
  -5  -7   6 17.3478 2.05539   1
  -5  -7   6 16.0601 1.91062   2
  -5   7   6 14.4641 1.94994   1
  -5   7   6 15.0322 1.96079   2
  -4  -7   6 5.61391 1.13400   2
  -4  -7   6 6.70855 1.26373   1
  -4   7   6 6.53449 1.29080   1
  -4   7   6 4.79028 1.12326   2
  -3  -7   6 7.99506 1.20085   2
  -3  -7   6 9.45373 1.36725   1
  -3   7   6 5.17632 1.16786   1
  -3   7   6 7.87881 1.34388   2
  -2  -7   6 103.206 3.85793   1
  -2  -7   6 99.9140 3.63431   2
  -2   7   6 105.847 4.20241   2
  -2   7   6 104.275 4.29335   1
  -1  -7   6 25.3765 1.61196   2
  -1  -7   6 24.2365 1.69062   1
  -1   7   6 21.5747 2.09512   2
  -1   7   6 19.8322 2.07817   1
   0  -7   6 4.21538 0.82839   1
   0   7   6 1.67077 0.80443   2
   0   7   6 2.89671 0.94885   1
  -1  -7  -6 0.89174 0.75729   1
   1  -7   6 0.59340 0.55231   1
   1   7   6 0.23186 0.65652   1
   1   7   6 -0.3863 0.65462   2
  -2  -7  -6 14.9187 1.94385   1
  -3  -7  -6 11.5416 1.84775   1
  -3  -7  -6 15.2355 2.09444   2
  -3   7  -6 13.7067 1.52228   2
  -7  -8   6 2.41007 1.13479   2
  -7  -8   6 1.53691 0.96205   1
  -7   8   6 0.48164 0.79940   2
  -6  -8   6 0.31842 0.76333   2
  -6  -8   6 0.49191 0.79880   1
  -6   8   6 0.20066 0.71010   2
  -6   8   6 0.64565 0.82806   1
  -5  -8   6 30.4843 2.36010   1
  -5  -8   6 28.5576 2.23674   2
  -5   8   6 29.4923 2.36613   1
  -5   8   6 29.9177 2.34363   2
  -4  -8   6 20.3357 2.12050   1
  -4  -8   6 22.8168 2.11609   2
  -4   8   6 25.3433 2.44976   2
  -4   8   6 20.0175 2.20045   1
  -3  -8   6 7.29538 1.14440   2
  -3  -8   6 6.74343 1.21073   1
  -3   8   6 6.53151 1.28521   2
  -3   8   6 9.74801 1.54436   1
  -2  -8   6 11.2742 1.29355   2
  -2  -8   6 11.1476 1.36375   1
  -2   8   6 11.1556 1.58144   1
  -2   8   6 10.3052 1.46293   2
  -1  -8   6 4.01031 0.86574   2
  -1  -8   6 5.49831 0.95237   1
  -1   8   6 4.60187 1.07487   2
  -1   8   6 4.47589 1.10013   1
   0  -8   6 40.8112 2.13316   1
   0   8   6 47.1603 2.84158   1
   0   8   6 44.5904 2.74600   2
   1  -8   6 64.9227 2.71418   1
  -1  -8  -6 65.8245 3.55353   1
   1   8   6 66.1004 3.54237   2
   1   8   6 63.7415 3.48373   1
  -2  -8  -6 33.7781 2.65777   1
  -3  -8  -6 2.48344 1.10880   2
  -3  -8  -6 3.20036 1.15717   1
  -3   8  -6 4.18321 0.90839   2
  -6  -9   6 16.7362 2.15116   2
  -6  -9   6 21.2727 2.54205   1
  -6   9   6 26.1649 2.87712   1
  -6   9   6 16.9186 2.19943   2
  -5  -9   6 4.82708 1.21757   1
  -5  -9   6 4.66457 1.17674   2
  -5   9   6 4.68310 1.20210   2
  -5   9   6 5.62265 1.32882   1
  -4  -9   6 108.460 4.53857   1
  -4  -9   6 114.324 4.32652   2
  -4   9   6 113.088 4.68703   1
  -4   9   6 115.153 4.64340   2
  -3  -9   6 5.39280 1.09941   1
  -3  -9   6 8.42241 1.20363   2
  -3   9   6 6.24910 1.29421   1
  -3   9   6 4.33504 1.09490   2
  -2  -9   6 33.5621 2.05658   1
  -2   9   6 38.7977 2.45665   2
  -2   9   6 38.7187 2.53357   1
  -1  -9   6 23.9635 1.63178   1
  -1   9   6 24.0542 2.47497   1
  -1   9   6 23.4311 2.28169   2
   0  -9   6 0.81234 0.55926   1
   0   9   6 -0.1151 0.61810   1
   0   9   6 1.21886 0.83352   2
   1  -9   6 59.2137 2.51839   1
  -1  -9  -6 60.6040 3.47275   1
   1   9   6 63.6203 3.52548   1
  -2  -9  -6 56.2881 3.45110   1
  -3  -9  -6 4.46306 1.34730   1
  -3  -9  -6 3.22274 1.21403   2
  -3   9  -6 5.34248 0.94428   2
  -6 -10   6 71.8905 4.01635   1
  -6  10   6 71.0965 3.80720   2
  -5 -10   6 14.3030 1.91217   1
  -5  10   6 13.1843 1.88744   2
  -5  10   6 12.7511 1.95150   1
  -4 -10   6 2.72359 0.96105   1
  -4  10   6 0.91493 0.74753   1
  -4  10   6 1.85834 0.85075   2
  -3 -10   6 5.69592 1.13616   1
  -3  10   6 3.27644 1.00487   1
  -3  10   6 4.01169 1.11864   2
  -2 -10   6 2.18253 0.74442   1
  -2  10   6 2.17605 0.85780   2
  -2  10   6 3.28967 1.02088   1
  -1 -10   6 1.79559 0.65253   1
  -1  10   6 -0.2246 0.61569   2
  -1  10   6 1.01277 0.75562   1
   0 -10  -6 76.0455 3.84931   1
   0 -10   6 75.9412 2.89832   1
   0  10   6 81.9324 3.85372   2
   0  10   6 76.4910 3.81872   1
  -1 -10  -6 30.1300 2.50812   1
   1 -10   6 31.1366 1.71709   1
   1  10   6 35.4390 2.65730   1
  -2 -10  -6 0.52000 0.78248   1
  -2  10  -6 1.58154 0.55611   2
  -3 -10  -6 21.6724 2.56410   2
  -3 -10  -6 15.9880 2.34769   1
  -3  10  -6 15.2572 1.51473   2
  -6 -11   6 9.65896 1.83214   1
  -6  11   6 17.6077 2.29172   2
  -5 -11   6 17.0314 2.13311   1
  -5  11   6 14.0131 2.00272   1
  -5  11   6 21.8075 2.39030   2
  -4 -11   6 3.94736 1.11325   1
  -4  11   6 2.12935 0.89235   2
  -4  11   6 2.13466 0.94726   1
  -3 -11   6 0.12947 0.56000   1
  -3  11   6 1.46762 0.82405   2
  -3  11   6 0.21836 0.60304   1
  -2 -11   6 1.44894 0.64351   1
  -2  11   6 2.00345 0.82255   1
  -2  11   6 1.18698 0.75018   2
  -1 -11   6 -0.9961 0.40942   1
  -1  11   6 -0.0047 0.62452   1
  -1  11   6 0.26012 0.63477   2
   0 -11  -6 3.44133 1.15389   1
   0 -11   6 2.95451 0.70617   1
   0  11   6 1.63473 0.89277   2
   0  11   6 2.26607 0.97007   1
  -1 -11  -6 126.022 5.36709   1
   1  11   6 123.396 5.30176   1
  -2 -11  -6 12.7414 1.84012   2
  -2 -11  -6 15.2233 2.17886   1
  -2  11  -6 14.2882 1.30004   2
  -5 -12   6 0.03912 0.74255   1
  -5  12   6 0.06618 0.61877   2
  -4 -12   6 90.6384 4.08164   1
  -4  12   6 87.4951 4.15062   1
  -4  12   6 84.6198 4.01467   2
  -3 -12   6 0.28458 0.56164   1
  -3  12   6 0.55483 0.64622   2
  -3  12   6 1.48602 0.84623   1
  -2 -12   6 72.5471 3.01123   1
  -2  12   6 73.8153 3.73745   1
  -2  12   6 71.2270 3.58726   2
  -1 -12   6 29.8857 1.73938   1
  -1  12   6 29.1278 2.75591   1
  -1  12   6 33.5609 2.48004   2
   0 -12   6 14.8390 1.16774   1
   0 -12  -6 12.5158 1.80343   1
   0  12   6 15.7232 2.18134   1
   0  12   6 15.2711 2.00839   2
  -1 -12  -6 55.2141 3.45434   1
   1  12   6 51.4174 3.32886   1
  -2 -12  -6 45.9755 3.21368   2
  -2 -12  -6 36.6655 2.93153   1
  -2  12  -6 40.2386 1.82912   2
  -5 -13   6 18.8754 2.25052   1
  -5  13   6 21.3247 2.42836   2
  -4 -13   6 6.61508 1.32023   1
  -4  13   6 4.79488 1.26313   2
  -3 -13   6 2.72075 0.85205   1
  -3  13   6 2.63370 0.91583   2
  -3  13   6 2.54831 0.96070   1
  -2 -13   6 0.67665 0.55858   1
  -2  13   6 0.51975 0.72403   1
  -2  13   6 0.27007 0.71170   2
  -1 -13   6 57.8049 2.40326   1
  -1  13   6 59.9509 3.39469   2
  -1  13   6 56.0764 3.33195   1
   0 -13  -6 11.0431 1.81978   1
   0 -13   6 11.4906 1.03059   1
   0  13   6 10.0982 1.64447   2
   0  13   6 11.8805 1.91388   1
  -1 -13  -6 5.64332 1.45332   1
  -2 -13  -6 2.72267 1.12130   1
  -2 -13  -6 2.01951 1.12406   2
  -5  14   6 3.62470 1.14233   2
  -4 -14   6 28.5610 2.29899   1
  -4  14   6 36.4826 2.61486   2
  -3 -14   6 3.29900 0.92807   1
  -3  14   6 3.97655 1.08260   2
  -2 -14   6 19.8955 1.55889   1
  -2  14   6 23.1774 2.43323   2
  -2  14   6 21.3574 2.39701   1
   1 -14  -6 12.1189 1.84581   1
  -1 -14   6 16.1789 1.25983   1
  -1  14   6 12.3022 1.88904   1
  -1  14   6 11.2893 1.76754   2
   0 -14  -6 27.9306 2.82666   1
   0  14   6 32.7159 3.10132   1
   0  14   6 23.7602 2.66822   2
  -1 -14  -6 19.5032 2.48858   1
  -4 -15   6 0.08181 0.71897   1
  -4  15   6 0.22386 0.69598   2
  -3 -15   6 5.82421 1.13091   1
  -3  15   6 5.71562 1.28051   2
  -2 -15   6 27.3191 1.77588   1
  -2  15   6 26.7291 2.60712   2
   1 -15  -6 58.8773 3.54518   1
  -1  15   6 64.6911 3.67815   1
  -1  15   6 57.9288 3.43211   2
   0 -15  -6 -0.1191 0.68853   1
   0  15   6 0.81380 0.98022   1
  -3 -16   6 1.67815 0.86144   1
  -3  16   6 2.66276 1.11195   2
  -2 -16   6 26.9280 1.71404   1
  -2  16   6 25.6930 2.68353   2
   1 -16  -6 20.5341 2.46054   1
  -1  16   6 18.1277 2.33014   2
  -7   0   7 -1.1182 0.62781   2
  -7   0   7 1.37562 0.99617   1
  -6   0   7 -0.3092 0.65108   2
  -6   0   7 0.02032 0.64393   1
  -5   0   7 -0.4801 0.54252   2
  -5   0   7 -0.4948 0.57151   1
  -4   0   7 0.47952 0.65968   2
  -4   0   7 0.10004 0.56685   1
  -3   0   7 0.57696 0.70039   2
  -3   0   7 1.43458 0.79726   1
  -2   0   7 -0.0362 0.62492   1
  -2   0   7 -0.2917 0.51548   2
  -1   0   7 1.81797 0.71044   2
  -1   0   7 1.26259 0.74331   1
   0   0   7 0.38722 0.64581   2
   0   0   7 0.09333 0.64040   1
   1   0   7 -0.1581 0.58786   2
  -1   0  -7 0.66235 0.67861   1
   1   0   7 0.26387 0.70441   1
  -2   0  -7 0.42565 0.67388   1
   2   0   7 0.57265 0.77045   1
  -3   0  -7 0.68896 0.76674   2
  -7  -1   7 4.49648 1.38508   1
  -7  -1   7 5.43815 1.56452   2
  -7   1   7 7.05109 1.59547   2
  -7   1   7 4.42149 1.36764   1
  -6  -1   7 3.11098 1.23424   1
  -6  -1   7 4.98882 1.35198   2
  -6   1   7 1.33605 0.99077   2
  -6   1   7 1.08704 0.79384   1
  -5  -1   7 4.65662 1.25272   1
  -5  -1   7 5.30327 1.35643   2
  -5   1   7 4.41201 1.20473   2
  -5   1   7 7.65152 1.54488   1
  -4  -1   7 0.73843 0.75647   1
  -4  -1   7 1.30076 0.74205   2
  -4   1   7 0.23719 0.58606   2
  -4   1   7 1.06296 0.71523   1
  -3  -1   7 93.8599 4.00764   2
  -3  -1   7 96.5054 4.19921   1
  -3   1   7 97.9139 4.13572   2
  -3   1   7 100.388 4.30996   1
  -2  -1   7 16.3167 1.91479   1
  -2  -1   7 18.7105 1.91768   2
  -2   1   7 17.5279 1.90723   2
  -2   1   7 19.5919 2.04088   1
  -1  -1   7 105.473 4.21466   2
  -1  -1   7 109.327 4.40389   1
  -1   1   7 113.595 4.54569   1
  -1   1   7 111.588 4.38209   2
   0  -1   7 1.17719 0.75459   2
   0  -1   7 0.70770 0.67973   1
   0   1   7 1.10125 0.71949   2
   0   1   7 0.19985 0.59336   1
  -1  -1  -7 0.01997 0.61774   1
   1  -1   7 -0.5822 0.58536   2
   1  -1   7 0.53928 0.67655   1
  -1   1  -7 -0.3317 0.54653   1
   1   1   7 -0.6871 0.57736   2
   1   1   7 0.53800 0.77156   1
   2  -1   7 0.76118 0.82149   1
  -2  -1  -7 2.02826 0.89408   1
   2   1   7 1.93909 0.94259   1
  -3  -1  -7 0.58033 0.82853   2
  -3   1  -7 2.50958 0.95897   2
  -7  -2   7 18.4046 2.47305   2
  -7  -2   7 14.2725 2.27321   1
  -7   2   7 17.1773 2.52517   1
  -7   2   7 18.3372 2.54603   2
  -6  -2   7 25.7793 2.76967   1
  -6  -2   7 31.0408 2.99239   2
  -6   2   7 26.8397 2.79670   2
  -6   2   7 30.2462 3.15024   1
  -5  -2   7 13.1103 2.00624   1
  -5  -2   7 9.43920 1.63295   2
  -5   2   7 12.7234 1.96001   1
  -5   2   7 9.98890 1.59329   2
  -4  -2   7 2.37007 0.91974   1
  -4  -2   7 4.77128 1.20454   2
  -4   2   7 1.76155 0.87036   2
  -4   2   7 1.19250 0.80051   1
  -3  -2   7 6.35860 1.26556   1
  -3  -2   7 7.83540 1.32696   2
  -3   2   7 6.03182 1.21832   2
  -3   2   7 5.19405 1.21209   1
  -2  -2   7 14.5641 1.75035   1
  -2  -2   7 15.9401 1.78823   2
  -2   2   7 14.9177 1.85879   1
  -2   2   7 15.5348 1.78899   2
  -1  -2   7 1.33683 0.67605   2
  -1  -2   7 0.54818 0.64784   1
  -1   2   7 1.33714 0.76499   2
  -1   2   7 1.36981 0.76861   1
   0  -2   7 14.0836 1.73162   1
   0  -2   7 19.7736 1.98135   2
   0   2   7 16.5075 2.00104   1
   0   2   7 18.6370 2.05891   2
  -1  -2  -7 5.69596 1.27194   1
   1  -2   7 5.94630 1.22328   2
   1  -2   7 4.60125 1.12521   1
   1   2   7 5.93249 1.32839   1
  -1   2  -7 5.40942 1.13016   1
   1   2   7 4.45341 1.16341   2
   2  -2   7 0.93893 0.81704   1
  -2  -2  -7 1.71262 0.90828   1
   2   2   7 0.32883 0.82409   1
  -3  -2  -7 3.72406 1.15066   2
  -3   2  -7 2.01972 0.90216   2
  -7  -3   7 4.06720 1.37297   2
  -7  -3   7 1.69495 1.13154   1
  -7   3   7 1.98571 1.12115   1
  -7   3   7 2.65993 1.18126   2
  -6  -3   7 0.63893 0.89072   2
  -6  -3   7 2.31258 1.08734   1
  -6   3   7 2.36641 1.09582   1
  -6   3   7 0.63311 0.82297   2
  -5  -3   7 59.2527 3.34585   2
  -5  -3   7 58.3970 3.44339   1
  -5   3   7 67.3188 3.68760   1
  -5   3   7 64.7394 3.49506   2
  -4  -3   7 -0.6139 0.56564   2
  -4  -3   7 -0.3138 0.55900   1
  -4   3   7 0.48382 0.71386   2
  -4   3   7 0.24937 0.73281   1
  -3  -3   7 0.05338 0.61312   1
  -3  -3   7 1.29321 0.74030   2
  -3   3   7 0.78834 0.72462   2
  -3   3   7 1.71533 0.78122   1
  -2  -3   7 -0.1059 0.50260   2
  -2  -3   7 0.18349 0.59679   1
  -2   3   7 0.44647 0.70901   2
  -2   3   7 0.03588 0.56878   1
  -1  -3   7 0.32251 0.56691   2
  -1  -3   7 0.84274 0.71846   1
  -1   3   7 0.62441 0.70091   1
  -1   3   7 1.59498 0.80872   2
   0  -3   7 61.4711 3.19313   1
   0  -3   7 67.8022 3.16359   2
   0   3   7 71.6444 3.52730   2
   0   3   7 71.9941 3.61534   1
   1  -3   7 15.4700 1.84693   1
  -1  -3  -7 17.2975 2.10540   1
   1   3   7 18.2495 2.13547   1
   1   3   7 15.8442 1.98692   2
  -2  -3  -7 225.114 7.55809   1
   2   3   7 211.372 7.42121   1
  -3  -3  -7 0.77152 0.90054   1
  -3  -3  -7 0.79213 0.84954   2
  -3   3  -7 -0.1213 0.64081   2
  -7  -4   7 3.84776 1.34970   2
  -7  -4   7 2.42861 1.21100   1
  -7   4   7 3.25224 1.23102   2
  -7   4   7 4.02409 1.33679   1
  -6  -4   7 0.13992 0.80498   1
  -6  -4   7 0.12470 0.75862   2
  -6   4   7 -0.1430 0.71247   2
  -6   4   7 -0.2297 0.65558   1
  -5  -4   7 16.4471 2.08091   2
  -5  -4   7 11.9386 1.82959   1
  -5   4   7 12.7463 1.96750   1
  -5   4   7 11.9305 1.72696   2
  -4  -4   7 13.0857 1.75590   1
  -4  -4   7 11.8729 1.61373   2
  -4   4   7 12.8815 1.76191   2
  -4   4   7 12.0644 1.86854   1
  -3  -4   7 6.65720 1.22345   2
  -3  -4   7 7.12146 1.31948   1
  -3   4   7 6.05496 1.37647   1
  -3   4   7 5.84343 1.27343   2
  -2  -4   7 2.93080 0.88926   2
  -2  -4   7 2.12723 0.82769   1
  -2   4   7 2.77631 0.96892   1
  -2   4   7 3.46683 1.08162   2
  -1  -4   7 2.42974 0.83623   2
  -1  -4   7 2.49482 0.91916   1
  -1   4   7 1.61311 0.78597   2
  -1   4   7 2.19197 0.92266   1
   0  -4   7 47.1845 2.57825   2
   0  -4   7 49.3738 2.75983   1
   0   4   7 46.8477 2.97337   1
   0   4   7 47.3630 2.91818   2
   1  -4   7 34.9621 2.37512   1
  -1  -4  -7 34.7208 2.60444   1
   1   4   7 36.9887 2.70673   2
   1   4   7 39.1176 2.81874   1
  -2  -4  -7 31.7436 2.66226   1
   2   4   7 38.7382 2.87492   1
  -3  -4  -7 3.26025 1.15223   1
  -3  -4  -7 5.31236 1.37415   2
  -3   4  -7 6.64414 1.32563   2
  -6  -5   7 18.9424 2.51340   1
  -6  -5   7 15.0875 2.06515   2
  -6   5   7 23.1179 2.74254   1
  -6   5   7 24.2191 2.72831   2
  -5  -5   7 1.78293 0.89889   1
  -5  -5   7 1.00850 0.83008   2
  -5   5   7 1.15227 0.87741   2
  -5   5   7 3.13614 1.10639   1
  -4  -5   7 4.97450 1.21976   1
  -4  -5   7 3.56899 0.99119   2
  -4   5   7 5.21241 1.29103   1
  -4   5   7 6.06991 1.36017   2
  -3  -5   7 28.6761 2.17184   1
  -3  -5   7 26.6362 2.02463   2
  -3   5   7 27.8975 2.63584   1
  -3   5   7 27.1647 2.21336   2
  -2  -5   7 24.5116 1.94655   1
  -2  -5   7 28.1363 2.02054   2
  -2   5   7 25.6829 2.39320   2
  -2   5   7 28.7256 2.30093   1
  -1  -5   7 0.74759 0.59318   2
  -1  -5   7 0.38418 0.62819   1
  -1   5   7 0.21887 0.65586   2
  -1   5   7 1.07012 0.76421   1
   0  -5   7 111.816 4.30976   1
   0   5   7 112.312 4.79671   1
   0   5   7 107.938 4.65783   2
  -1  -5  -7 2.62263 1.07179   1
   1  -5   7 4.41862 1.08268   1
   1   5   7 5.40478 1.33731   1
   1   5   7 3.03170 1.08199   2
  -2  -5  -7 2.00718 1.00770   1
  -6  -6   7 26.2055 2.71522   2
  -6  -6   7 30.1904 3.13680   1
  -6   6   7 35.1501 2.76346   2
  -6   6   7 34.1890 3.35853   1
  -5  -6   7 1.78212 0.98128   1
  -5  -6   7 2.79063 1.04164   2
  -5   6   7 1.88578 1.03725   1
  -5   6   7 3.16884 1.08675   2
  -4  -6   7 16.2545 2.01188   1
  -4  -6   7 10.0109 1.51176   2
  -4   6   7 10.9210 1.68379   2
  -4   6   7 15.4545 2.03275   1
  -3  -6   7 5.26674 1.12875   2
  -3   6   7 4.84351 1.23553   2
  -3   6   7 5.56260 1.32148   1
  -2  -6   7 45.1605 2.49143   2
  -2  -6   7 40.2188 2.48967   1
  -2   6   7 43.1514 2.76843   2
  -2   6   7 49.4663 2.98990   1
  -1  -6   7 1.56501 0.73889   1
  -1   6   7 2.88896 1.03028   2
  -1   6   7 1.15845 0.80922   1
   0  -6   7 0.18591 0.63323   1
   0   6   7 0.67142 0.76536   1
   0   6   7 0.78566 0.84048   2
   1  -6   7 82.2862 3.55648   1
  -1  -6  -7 79.7537 4.13995   1
   1   6   7 86.0607 4.27390   1
  -2  -6  -7 9.16520 1.78463   1
  -6  -7   7 12.6668 2.07583   1
  -6  -7   7 13.6208 2.02492   2
  -6   7   7 12.9461 2.05046   1
  -6   7   7 12.2400 1.90741   2
  -5  -7   7 43.9585 2.87755   2
  -5  -7   7 42.6363 2.93730   1
  -5   7   7 41.6371 3.05629   1
  -5   7   7 44.4281 2.97773   2
  -4  -7   7 11.3301 1.67484   2
  -4  -7   7 11.6912 1.70284   1
  -4   7   7 11.6009 1.86755   1
  -4   7   7 11.1081 1.81513   2
  -3  -7   7 102.203 4.05703   2
  -3  -7   7 102.363 4.21768   1
  -3   7   7 102.062 4.47099   2
  -3   7   7 101.972 4.59719   1
  -2  -7   7 0.75535 0.67556   1
  -2   7   7 0.40494 0.69364   2
  -2   7   7 0.24198 0.69137   1
  -1  -7   7 69.6809 3.25102   1
  -1   7   7 74.5009 3.85439   1
  -1   7   7 79.0118 3.90231   2
   0  -7   7 17.0617 1.78153   1
   0   7   7 20.8029 2.45639   1
   0   7   7 18.8896 2.28809   2
  -1  -7  -7 18.3059 2.28210   1
   1  -7   7 18.9566 1.86155   1
   1   7   7 22.3127 2.56366   1
  -2  -7  -7 27.7007 2.85719   1
  -6  -8   7 8.16280 1.77783   1
  -6   8   7 4.80649 1.33631   2
  -6   8   7 6.07284 1.54292   1
  -5  -8   7 24.2804 2.57288   1
  -5   8   7 29.1840 3.03887   1
  -5   8   7 25.0494 2.65897   2
  -4  -8   7 1.86806 0.87171   1
  -4   8   7 3.37826 1.09361   2
  -4   8   7 0.58809 0.84398   1
  -3  -8   7 0.63979 0.65512   1
  -3   8   7 0.53421 0.75342   1
  -3   8   7 1.25082 0.81544   2
  -2  -8   7 0.25560 0.55996   1
  -2   8   7 0.51394 0.77217   1
  -2   8   7 0.79757 0.75598   2
  -1  -8   7 51.6874 2.70652   1
  -1   8   7 48.9935 3.19726   1
  -1   8   7 50.8507 3.13870   2
   0  -8   7 7.60901 1.22233   1
   0  -8  -7 8.63382 1.58629   1
   0   8   7 7.70109 1.49177   2
   0   8   7 9.15743 1.64517   1
  -1  -8  -7 19.6317 2.40040   1
   1  -8   7 17.0708 1.75832   1
   1   8   7 16.6736 2.27858   1
  -2  -8  -7 4.74297 1.35210   1
  -6  -9   7 1.75534 1.13155   1
  -6   9   7 -0.4239 0.75723   1
  -6   9   7 0.40782 0.84174   2
  -5  -9   7 7.78009 1.54356   1
  -5   9   7 6.75857 1.57762   1
  -5   9   7 8.99590 1.70135   2
  -4  -9   7 6.50148 1.34862   1
  -4   9   7 5.65538 1.35875   2
  -4   9   7 9.59768 1.78416   1
  -3  -9   7 2.00189 0.84828   1
  -3   9   7 1.07054 0.88280   2
  -3   9   7 2.89780 1.19460   1
  -2  -9   7 27.3630 1.97515   1
  -2   9   7 20.9461 2.40295   1
  -2   9   7 22.7329 2.35433   2
  -1  -9   7 44.4450 2.44212   1
  -1   9   7 40.9315 2.86225   2
  -1   9   7 43.7668 3.01906   1
   0  -9  -7 45.3426 3.12902   1
   0  -9   7 44.3413 2.41255   1
   0   9   7 46.9021 3.14112   2
   0   9   7 50.2520 3.26938   1
  -1  -9  -7 3.16411 1.13132   1
   1  -9   7 2.76670 0.88681   1
   1   9   7 3.46476 1.24895   1
  -2  -9  -7 18.8871 2.51281   1
  -5 -10   7 -0.4605 0.65078   1
  -5  10   7 -0.9836 0.60402   1
  -5  10   7 0.01562 0.67793   2
  -4 -10   7 75.4890 3.75566   1
  -4  10   7 80.6493 4.07432   2
  -4  10   7 81.0140 4.18457   1
  -3 -10   7 6.67505 1.27861   1
  -3  10   7 8.06126 1.53401   2
  -3  10   7 9.05608 1.69376   1
  -2 -10   7 12.7488 1.56824   1
  -2  10   7 12.3426 1.90672   2
  -2  10   7 10.1586 1.78409   1
  -1 -10   7 14.6042 1.60592   1
  -1  10   7 15.9742 2.17108   1
  -1  10   7 14.8456 2.03694   2
   0 -10   7 49.7727 2.48892   1
   0 -10  -7 48.8316 3.28400   1
   0  10   7 44.8026 3.13669   2
   0  10   7 55.7637 3.52639   1
   1 -10   7 35.7037 2.08916   1
  -1 -10  -7 37.1589 3.02304   1
   1  10   7 38.7600 3.02745   1
  -5 -11   7 -0.1231 0.75666   1
  -5  11   7 0.13317 0.90398   1
  -5  11   7 0.82470 0.84159   2
  -4 -11   7 3.27229 1.07207   1
  -4  11   7 3.10700 1.12311   1
  -4  11   7 3.09457 1.14467   2
  -3 -11   7 7.04757 1.28529   1
  -3  11   7 9.27160 1.68408   2
  -3  11   7 11.4047 1.93159   1
  -2 -11   7 8.33345 1.28339   1
  -2  11   7 9.02368 1.61499   2
  -2  11   7 10.0052 1.75742   1
  -1 -11   7 0.24315 0.62454   1
  -1  11   7 1.34424 0.87828   2
  -1  11   7 -0.1732 0.77384   1
   0 -11   7 53.4027 2.49605   1
   0 -11  -7 47.2929 3.30667   1
   0  11   7 55.3373 3.47200   2
   0  11   7 52.4459 3.47443   1
  -1 -11  -7 1.36862 1.08531   1
   1  11   7 0.85318 0.97036   1
  -4 -12   7 19.4491 2.20613   1
  -4  12   7 21.7989 2.47877   2
  -4  12   7 22.4642 2.61241   1
  -3 -12   7 2.90009 0.97488   1
  -3  12   7 4.42268 1.29347   1
  -3  12   7 4.29930 1.28760   2
  -2 -12   7 37.8412 2.29194   1
  -2  12   7 37.1361 2.84901   2
  -2  12   7 42.1740 3.05016   1
  -1 -12   7 0.66182 0.63650   1
  -1  12   7 1.19186 0.85870   2
  -1  12   7 0.64683 0.82933   1
   0 -12   7 20.2988 1.52680   1
   0 -12  -7 16.0978 2.35758   1
   0  12   7 19.0661 2.44887   2
   0  12   7 20.1195 2.69672   1
  -4 -13   7 16.0392 1.93771   1
  -4  13   7 13.5853 2.05804   2
  -3 -13   7 5.90931 1.23208   1
  -3  13   7 7.12536 1.51398   2
  -3  13   7 7.68065 1.67036   1
  -2 -13   7 69.0443 3.09099   1
  -2  13   7 63.3245 3.71582   2
  -2  13   7 67.9475 3.95721   1
   1 -13  -7 14.9202 2.21226   1
  -1 -13   7 19.8825 1.58105   1
  -1  13   7 16.9246 2.28594   1
  -1  13   7 16.2620 2.17072   2
   0 -13  -7 2.06653 1.14362   1
   0  13   7 0.98031 0.92485   1
   0  13   7 -0.5019 0.82510   2
  -3 -14   7 17.4057 1.89853   1
  -3  14   7 20.2893 2.46052   2
  -2 -14   7 49.1079 2.57060   1
  -2  14   7 51.4772 3.35462   2
  -2  14   7 53.4845 3.51298   1
   1 -14  -7 4.82687 1.41443   1
  -1 -14   7 8.64567 1.13865   1
  -1  14   7 7.22342 1.69231   1
  -1  14   7 9.69422 1.77120   2
  -6   0   8 16.2259 2.44045   1
  -6   0   8 12.4363 2.15061   2
  -5   0   8 10.2830 1.83954   2
  -5   0   8 11.1739 2.02941   1
  -4   0   8 428.395 12.3387   1
  -4   0   8 440.426 12.0292   2
  -3   0   8 64.2084 3.50880   2
  -3   0   8 62.2471 3.54577   1
  -2   0   8 29.4299 2.34954   2
  -2   0   8 26.4760 2.71032   1
  -1   0   8 23.4897 2.44819   1
  -1   0   8 30.6101 2.41987   2
   0   0   8 0.42819 0.82571   1
   0   0   8 0.54316 0.81683   2
   1   0   8 1.32746 1.00287   1
  -6  -1   8 0.88161 1.04316   1
  -6  -1   8 1.55576 1.00026   2
  -6   1   8 0.64499 0.85395   2
  -6   1   8 1.12396 1.01004   1
  -5  -1   8 6.28675 1.52042   1
  -5  -1   8 7.47170 1.61461   2
  -5   1   8 7.92946 1.62668   1
  -5   1   8 6.80577 1.47225   2
  -4  -1   8 7.85520 1.57302   1
  -4  -1   8 7.36103 1.50397   2
  -4   1   8 6.84209 1.56733   1
  -4   1   8 7.24488 1.58810   2
  -3  -1   8 21.9972 2.37752   2
  -3  -1   8 22.8844 2.43807   1
  -3   1   8 16.9353 2.21734   1
  -3   1   8 21.0190 2.36618   2
  -2  -1   8 4.60446 1.22884   1
  -2  -1   8 9.81414 1.55082   2
  -2   1   8 9.70949 1.73775   1
  -2   1   8 7.75846 1.52891   2
  -1  -1   8 4.10126 1.19901   1
  -1  -1   8 7.05081 1.43085   2
  -1   1   8 4.53818 1.28594   1
  -1   1   8 7.71646 1.48286   2
   0  -1   8 7.98513 1.53753   1
   0  -1   8 11.1111 1.80329   2
   0   1   8 8.73829 1.58221   2
   0   1   8 10.1454 1.68946   1
  -1  -1  -8 12.1501 1.89509   1
   1  -1   8 12.1940 1.84990   1
   1   1   8 10.6819 1.82011   1
  -6  -2   8 -0.0564 0.88411   1
  -6  -2   8 -0.0267 0.83402   2
  -6   2   8 0.99558 0.89573   2
  -6   2   8 0.68200 0.88038   1
  -5  -2   8 16.4249 2.31252   1
  -5  -2   8 13.9778 2.00577   2
  -5   2   8 15.6334 2.23973   1
  -5   2   8 18.0157 2.37482   2
  -4  -2   8 114.364 4.81911   2
  -4  -2   8 110.476 4.93926   1
  -4   2   8 114.016 4.96541   2
  -4   2   8 106.937 4.97564   1
  -3  -2   8 0.36753 0.72248   2
  -3  -2   8 0.32207 0.71966   1
  -3   2   8 1.24799 0.89307   1
  -3   2   8 0.44316 0.72186   2
  -2  -2   8 9.03914 1.63562   1
  -2  -2   8 10.8768 1.61925   2
  -2   2   8 10.0337 1.67657   2
  -2   2   8 11.0477 1.76150   1
  -1  -2   8 15.4321 1.86160   2
  -1  -2   8 16.7104 2.05123   1
  -1   2   8 17.3298 2.14405   2
  -1   2   8 16.9977 2.15233   1
   0  -2   8 0.39319 0.77509   1
   0   2   8 1.66627 0.92599   1
   0   2   8 0.62427 0.82255   2
  -1  -2  -8 0.51506 0.87839   1
   1  -2   8 -0.2197 0.73392   1
   1   2   8 0.24395 0.86762   1
  -6  -3   8 16.7345 2.33072   2
  -6  -3   8 12.1808 2.09064   1
  -6   3   8 12.5445 2.12821   2
  -6   3   8 12.8631 2.26717   1
  -5  -3   8 20.0798 2.45127   2
  -5  -3   8 13.1812 2.07527   1
  -5   3   8 16.4225 2.31333   1
  -5   3   8 14.7597 2.12655   2
  -4  -3   8 4.27102 1.22725   2
  -4  -3   8 4.65696 1.25349   1
  -4   3   8 1.56138 0.86044   1
  -4   3   8 5.39130 1.34331   2
  -3  -3   8 17.4159 2.12493   1
  -3  -3   8 17.6630 2.09537   2
  -3   3   8 18.1003 2.25401   1
  -3   3   8 17.8286 2.23497   2
  -2  -3   8 0.40785 0.71259   2
  -2  -3   8 1.31208 0.85907   1
  -2   3   8 1.76933 0.91967   2
  -2   3   8 1.80418 0.98951   1
  -1  -3   8 0.07523 0.71596   1
  -1   3   8 -0.1719 0.64749   1
  -1   3   8 -0.8260 0.62899   2
   0  -3   8 0.80656 0.86062   1
   0   3   8 1.64629 1.00991   1
   0   3   8 1.49106 0.94677   2
  -1  -3  -8 52.0896 3.44319   1
   1  -3   8 47.5396 3.07055   1
   1   3   8 51.2757 3.44968   1
  -6  -4   8 3.74831 1.32710   2
  -6  -4   8 2.02351 1.10597   1
  -6   4   8 2.41970 1.10189   2
  -6   4   8 4.65353 1.45384   1
  -5  -4   8 8.93701 1.67543   2
  -5  -4   8 9.00239 1.77509   1
  -5   4   8 13.7027 2.27834   1
  -5   4   8 10.1373 1.86289   2
  -4  -4   8 14.3731 1.98360   2
  -4  -4   8 17.9957 2.22986   1
  -4   4   8 17.5947 2.37195   2
  -4   4   8 12.9869 1.98905   1
  -3  -4   8 9.21241 1.62004   1
  -3  -4   8 13.6479 1.81532   2
  -3   4   8 11.4567 1.83956   1
  -3   4   8 9.78103 1.76724   2
  -2  -4   8 0.76441 0.81434   1
  -2  -4   8 -0.4344 0.59112   2
  -2   4   8 0.61932 0.75359   1
  -2   4   8 0.01841 0.69666   2
  -1  -4   8 17.9088 2.07632   1
  -1   4   8 20.2473 2.36593   2
  -1   4   8 18.9177 2.35443   1
   0  -4   8 18.4123 2.12488   1
   0   4   8 20.7182 2.43918   1
   0   4   8 20.7703 2.39697   2
   1  -4   8 43.2550 2.87304   1
  -1  -4  -8 40.3789 3.12833   1
   1   4   8 43.8091 3.20365   1
  -5  -5   8 2.31634 1.06335   2
  -5  -5   8 2.36488 1.13536   1
  -5   5   8 1.59465 0.96816   2
  -5   5   8 0.51659 0.86825   1
  -4  -5   8 0.08993 0.72775   2
  -4  -5   8 0.56028 0.82090   1
  -4   5   8 0.42967 0.82428   2
  -4   5   8 0.37452 0.85276   1
  -3  -5   8 10.0462 1.63096   1
  -3   5   8 10.3812 1.79897   2
  -3   5   8 9.27447 1.73410   1
  -2  -5   8 11.4292 1.72681   1
  -2   5   8 14.6290 2.11420   2
  -2   5   8 12.4940 1.95382   1
  -1  -5   8 3.20248 1.04794   1
  -1   5   8 1.93643 1.05252   2
  -1   5   8 2.62679 1.06696   1
   0  -5   8 11.5812 1.73859   1
   0   5   8 10.0576 1.77785   2
   0   5   8 12.7629 2.01047   1
  -1  -5  -8 11.4865 1.96912   1
   1  -5   8 10.9748 1.70057   1
   1   5   8 13.7373 2.13434   1
  -5  -6   8 0.63645 0.95548   1
  -5   6   8 0.28783 0.83696   2
  -5   6   8 0.38116 0.84059   1
  -4  -6   8 1.82926 0.96240   1
  -4   6   8 1.95626 1.01152   2
  -4   6   8 2.00122 1.12228   1
  -3  -6   8 2.30709 1.03371   1
  -3   6   8 5.59876 1.42453   1
  -3   6   8 5.87554 1.42752   2
  -2  -6   8 8.75899 1.56390   1
  -2   6   8 11.4703 1.87454   2
  -2   6   8 11.3156 1.89160   1
  -1  -6   8 0.05565 0.75284   1
  -1   6   8 -0.2395 0.83983   1
  -1   6   8 1.27406 0.91041   2
   0  -6   8 -0.2802 0.64460   1
   0  -6  -8 0.28039 0.82688   1
   0   6   8 0.53033 0.86909   2
   0   6   8 0.73336 0.90540   1
   1  -6   8 18.0331 2.02476   1
  -1  -6  -8 20.3147 2.57726   1
   1   6   8 19.5363 2.51110   1
  -5  -7   8 7.37147 1.67317   1
  -5   7   8 4.52394 1.51997   1
  -5   7   8 7.76480 1.60101   2
  -4  -7   8 1.39634 0.89232   1
  -4   7   8 0.86421 0.89444   2
  -4   7   8 -0.5836 0.71817   1
  -3  -7   8 4.48004 1.26912   1
  -3   7   8 3.24477 1.23051   1
  -3   7   8 3.87189 1.27089   2
  -2  -7   8 45.7563 2.85824   1
  -2   7   8 49.6817 3.28709   1
  -2   7   8 49.8078 3.29704   2
  -1  -7   8 19.3220 2.07791   1
  -1   7   8 18.9502 2.36152   2
  -1   7   8 20.4143 2.54670   1
   0  -7   8 2.14886 0.94706   1
   0  -7  -8 2.17476 1.15489   1
   0   7   8 3.50572 1.33786   1
   0   7   8 4.35107 1.34689   2
  -5  -8   8 13.2940 2.10708   1
  -5   8   8 14.2691 2.17686   2
  -5   8   8 19.3628 2.60283   1
  -4  -8   8 1.85974 0.99442   1
  -4   8   8 2.35090 1.08973   1
  -4   8   8 1.86639 1.03773   2
  -3  -8   8 38.8791 2.71147   1
  -3   8   8 38.2803 3.00557   1
  -3   8   8 42.2113 3.03557   2
  -2  -8   8 3.87898 1.14048   1
  -2   8   8 3.24435 1.27430   1
  -2   8   8 3.81903 1.21741   2
  -1  -8   8 0.47102 0.68007   1
  -1   8   8 0.69110 0.90758   2
  -1   8   8 -0.4129 0.74999   1
   0  -8   8 3.14703 1.04287   1
   0  -8  -8 2.05675 1.10640   1
   0   8   8 2.94999 1.24099   1
   0   8   8 2.87051 1.22227   2
  -4  -9   8 0.08319 0.74708   1
  -4   9   8 0.16212 0.83536   2
  -4   9   8 -0.2908 0.79439   1
  -3  -9   8 3.55558 1.13740   1
  -3   9   8 3.99039 1.35001   1
  -3   9   8 4.62552 1.39191   2
  -2  -9   8 0.95939 0.77893   1
  -2   9   8 0.08530 0.78617   2
  -2   9   8 1.84029 1.06828   1
  -1  -9   8 36.2798 2.41305   1
  -1   9   8 34.2353 3.34531   2
  -1   9   8 35.4489 3.54745   1
   0  -9   8 67.8851 3.25969   1
   0  -9  -8 62.0662 3.95357   1
   0   9   8 67.9311 4.04852   2
   0   9   8 67.6441 4.16464   1
  -4 -10   8 0.45070 0.82543   1
  -4  10   8 0.38449 0.80765   2
  -4  10   8 0.07510 0.88656   1
  -3 -10   8 1.20676 0.87793   1
  -3  10   8 2.50336 1.11661   2
  -3  10   8 0.31039 0.89071   1
  -2 -10   8 -0.0012 0.69446   1
  -2  10   8 0.87448 0.97906   1
  -2  10   8 0.04757 0.89111   2
  -1 -10   8 3.89043 1.08111   1
  -1  10   8 4.30546 1.39426   2
  -1  10   8 2.87878 1.22999   1
  -3 -11   8 1.02108 0.85715   1
  -3  11   8 -0.4160 0.86402   1
  -3  11   8 0.35611 0.83999   2
  -2 -11   8 6.36350 1.28538   1
  -2  11   8 6.31979 1.60859   2
  -2  11   8 6.38247 1.59971   1
  -4   0   9 0.35263 0.93864   1
  -4   0   9 0.28942 0.86135   2
  -3   0   9 0.28806 0.89667   1
  -3   0   9 0.85486 0.95260   2
  -2   0   9 0.43097 0.81233   2
  -2   0   9 1.37683 0.99253   1
  -1   0   9 0.05544 0.85793   1
  -4  -1   9 0.00926 0.89973   2
  -4  -1   9 0.77670 0.89078   1
  -4   1   9 -0.3700 0.75091   1
  -4   1   9 -0.5646 0.82796   2
  -3  -1   9 14.1097 2.02876   2
  -3  -1   9 16.7211 2.40525   1
  -3   1   9 13.5170 2.09273   2
  -3   1   9 12.7773 2.09438   1
  -2  -1   9 5.38734 1.40513   1
  -2   1   9 4.45358 1.34280   2
  -2   1   9 2.88174 1.22572   1
  -1  -1   9 26.3450 2.83671   1
  -1   1   9 38.7413 3.07722   1
  -1   1   9 26.5584 2.78539   2
  -4  -2   9 10.6399 1.90918   2
  -4  -2   9 4.25302 1.36270   1
  -4   2   9 7.07815 1.68764   2
  -4   2   9 8.29014 1.77809   1
  -3  -2   9 1.72724 1.04144   1
  -3  -2   9 1.00790 1.07026   2
  -3   2   9 2.08933 1.15355   2
  -3   2   9 3.12811 1.18277   1
  -2  -2   9 6.67598 1.54917   1
  -2   2   9 8.44209 1.69552   2
  -2   2   9 3.36868 1.22552   1
  -1  -2   9 17.4557 2.27335   1
  -1   2   9 20.4241 2.48232   2
  -1   2   9 18.2786 2.54583   1
  -4  -3   9 6.36367 1.58662   1
  -4   3   9 3.67631 1.34916   1
  -4   3   9 5.07072 1.46032   2
  -3  -3   9 38.1892 3.03299   1
  -3   3   9 43.5495 3.27638   1
  -3   3   9 40.3115 3.13199   2
  -2  -3   9 0.23336 0.82410   1
  -2   3   9 0.06455 0.86474   2
  -2   3   9 -0.5364 0.86451   1
  -1  -3   9 0.83290 0.95592   1
  -1   3   9 0.14593 0.84118   1
  -1   3   9 1.78287 1.15399   2
  -4  -4   9 11.4727 2.00689   1
  -4   4   9 10.8500 1.93832   2
  -4   4   9 12.6279 2.27882   1
  -3  -4   9 6.05208 1.57596   1
  -3   4   9 4.87147 1.39501   2
  -3   4   9 6.07791 1.68075   1
  -2  -4   9 0.00641 0.72834   1
  -2   4   9 0.55932 0.89752   1
  -2   4   9 1.75896 1.11417   2
  -1  -4   9 5.81865 1.45765   1
  -1   4   9 10.3121 1.92951   1
  -1   4   9 8.37485 1.77178   2
  -3  -5   9 2.18576 1.11325   1
  -3   5   9 2.90802 1.24171   2
  -3   5   9 2.85434 1.22579   1
  -2  -5   9 2.99299 1.16221   1
  -2   5   9 3.49559 1.31999   2
  -2   5   9 1.87746 1.12124   1
   0   0   0    0.00    0.00   0
;
_shelx_hkl_checksum              6597
loop_
_space_group_symop_operation_xyz
'x, y, z'
'-x, y+1/2, -z+1/2'
'-x, -y, -z'
'x, -y-1/2, z-1/2'
loop_
_atom_site_label
_atom_site_type_symbol
_atom_site_fract_x
_atom_site_fract_y
_atom_site_fract_z
_atom_site_U_iso_or_equiv
_atom_site_adp_type
_atom_site_occupancy
_atom_site_site_symmetry_order
_atom_site_calc_flag
_atom_site_refinement_flags_posn
_atom_site_refinement_flags_adp
_atom_site_refinement_flags_occupancy
_atom_site_disorder_assembly
_atom_site_disorder_group
Li Li 0.7381(4) 0.41581(16) 0.5103(4) 0.0200(6) Uani 1 1 d . . . . .
N1 N -0.0531(2) 0.25764(7) 0.10011(18) 0.0160(3) Uani 1 1 d . . . . .
H1 H -0.1845 0.2442 0.0335 0.019 Uiso 1 1 calc R U . . .
O1 O -0.14878(18) 0.38880(6) 0.05965(16) 0.0215(3) Uani 1 1 d . . . . .
C2 C -0.0067(2) 0.33645(9) 0.1266(2) 0.0154(3) Uani 1 1 d . . . . .
N3 N 0.2028(2) 0.35516(8) 0.23122(18) 0.0166(3) Uani 1 1 d . . . . .
H3 H 0.2360 0.4050 0.2497 0.020 Uiso 1 1 calc R U . . .
C4 C 0.3682(2) 0.29949(9) 0.3110(2) 0.0157(3) Uani 1 1 d . . . . .
O2 O 0.55557(17) 0.32604(6) 0.40300(16) 0.0216(3) Uani 1 1 d . . . . .
C5 C 0.3099(2) 0.21895(9) 0.2809(2) 0.0160(3) Uani 1 1 d . . . . .
H5 H 0.4143 0.1797 0.3335 0.019 Uiso 1 1 calc R U . . .
C6 C 0.0983(2) 0.19654(9) 0.1737(2) 0.0150(3) Uani 1 1 d . . . . .
O3 O 0.02722(17) 0.12584(6) 0.13568(16) 0.0207(3) Uani 1 1 d . . . . .
O1W O 0.68490(19) 0.47542(7) 0.72439(17) 0.0195(3) Uani 1 1 d . . . . .
H11 H 0.547(3) 0.4824(11) 0.723(3) 0.029 Uiso 1 1 d . U . . .
H12 H 0.755(3) 0.4463(11) 0.831(3) 0.029 Uiso 1 1 d . U . . .
O2W O 0.73598(18) 0.49248(7) 0.30371(17) 0.0188(3) Uani 1 1 d . . . . .
H21 H 0.773(3) 0.4646(11) 0.222(3) 0.028 Uiso 1 1 d . U . . .
H22 H 0.813(3) 0.5392(12) 0.316(3) 0.028 Uiso 1 1 d . U . . .
loop_
_atom_site_aniso_label
_atom_site_aniso_U_11
_atom_site_aniso_U_22
_atom_site_aniso_U_33
_atom_site_aniso_U_23
_atom_site_aniso_U_13
_atom_site_aniso_U_12
Li 0.0163(13) 0.0154(14) 0.0254(14) 0.0007(11) 0.0022(11) 0.0009(10)
N1 0.0104(6) 0.0140(7) 0.0203(7) -0.0016(5) 0.0003(5) -0.0009(5)
O1 0.0210(6) 0.0185(6) 0.0222(6) 0.0016(5) 0.0029(5) 0.0075(5)
C2 0.0156(7) 0.0160(8) 0.0143(7) -0.0004(6) 0.0040(6) 0.0016(6)
N3 0.0167(7) 0.0091(7) 0.0214(7) -0.0014(5) 0.0022(5) -0.0010(5)
C4 0.0139(7) 0.0164(8) 0.0161(7) 0.0000(6) 0.0034(6) -0.0003(6)
O2 0.0135(6) 0.0174(6) 0.0288(6) -0.0009(5) -0.0008(5) -0.0040(4)
C5 0.0127(7) 0.0125(8) 0.0207(8) 0.0008(6) 0.0023(6) 0.0011(6)
C6 0.0149(7) 0.0136(8) 0.0166(7) -0.0002(6) 0.0053(6) 0.0006(6)
O3 0.0139(6) 0.0121(6) 0.0325(7) -0.0011(5) 0.0018(5) -0.0006(4)
O1W 0.0160(6) 0.0180(6) 0.0226(6) 0.0036(5) 0.0031(5) 0.0043(5)
O2W 0.0180(6) 0.0135(6) 0.0252(6) -0.0023(5) 0.0073(5) -0.0017(5)
loop_
_atom_type_symbol
_atom_type_description
_atom_type_scat_dispersion_real
_atom_type_scat_dispersion_imag
_atom_type_scat_source
C C 0.0033 0.0016 'International Tables Vol C Tables 4.2.6.8 and 6.1.1.4'
H H 0.0000 0.0000 'International Tables Vol C Tables 4.2.6.8 and 6.1.1.4'
Li Li -0.0003 0.0001 'International Tables Vol C Tables 4.2.6.8 and 6.1.1.4'
N N 0.0061 0.0033 'International Tables Vol C Tables 4.2.6.8 and 6.1.1.4'
O O 0.0106 0.0060 'International Tables Vol C Tables 4.2.6.8 and 6.1.1.4'
loop_
_geom_angle_atom_site_label_1
_geom_angle_atom_site_label_2
_geom_angle_atom_site_label_3
_geom_angle
_geom_angle_site_symmetry_1
_geom_angle_site_symmetry_3
O2 Li O3 106.58(13) . 4_666
O2 Li O1W 118.78(15) . .
O3 Li O1W 101.48(13) 4_666 .
O2 Li O2W 110.60(14) . .
O3 Li O2W 111.57(14) 4_666 .
O1W Li O2W 107.49(14) . .
O2 Li H12 113.7(5) . .
O3 Li H12 83.0(5) 4_666 .
O1W Li H12 22.1(5) . .
O2W Li H12 126.4(5) . .
O2 Li H21 97.9(5) . .
O3 Li H21 101.3(5) 4_666 .
O1W Li H21 128.2(5) . .
O2W Li H21 20.9(5) . .
H12 Li H21 145.6(7) . .
C2 N1 C6 124.30(13) . .
C2 N1 H1 117.9 . .
C6 N1 H1 117.9 . .
O1 C2 N1 121.82(14) . .
O1 C2 N3 122.10(14) . .
N1 C2 N3 116.08(13) . .
C2 N3 C4 124.77(13) . .
C2 N3 H3 117.6 . .
C4 N3 H3 117.6 . .
O2 C4 N3 117.47(14) . .
O2 C4 C5 125.97(14) . .
N3 C4 C5 116.56(13) . .
C4 O2 Li 148.57(14) . .
C6 C5 C4 121.00(14) . .
C6 C5 H5 119.5 . .
C4 C5 H5 119.5 . .
O3 C6 C5 126.62(14) . .
O3 C6 N1 116.10(13) . .
C5 C6 N1 117.28(13) . .
C6 O3 Li 132.02(12) . 4_465
Li O1W H11 118.5(12) . .
Li O1W H12 103.3(12) . .
H11 O1W H12 108.2(17) . .
Li O2W H21 103.4(13) . .
Li O2W H22 127.6(11) . .
H21 O2W H22 106.1(18) . .
loop_
_geom_bond_atom_site_label_1
_geom_bond_atom_site_label_2
_geom_bond_distance
_geom_bond_site_symmetry_2
Li O2 1.912(3) .
Li O3 1.925(3) 4_666
Li O1W 1.949(3) .
Li O2W 1.956(3) .
Li H12 2.328(19) .
Li H21 2.302(19) .
N1 C2 1.3513(19) .
N1 C6 1.3956(19) .
N1 H1 0.8600 .
O1 C2 1.2479(18) .
C2 N3 1.3575(19) .
N3 C4 1.394(2) .
N3 H3 0.8600 .
C4 O2 1.2595(18) .
C4 C5 1.396(2) .
C5 C6 1.388(2) .
C5 H5 0.9300 .
C6 O3 1.2660(18) .
O3 Li 1.925(3) 4_465
O1W H11 0.89(2) .
O1W H12 0.90(2) .
O2W H21 0.842(19) .
O2W H22 0.91(2) .
loop_
_geom_torsion_atom_site_label_1
_geom_torsion_atom_site_label_2
_geom_torsion_atom_site_label_3
_geom_torsion_atom_site_label_4
_geom_torsion
_geom_torsion_site_symmetry_1
_geom_torsion_site_symmetry_2
_geom_torsion_site_symmetry_3
_geom_torsion_site_symmetry_4
C6 N1 C2 O1 -179.11(13) . . . .
C6 N1 C2 N3 0.4(2) . . . .
O1 C2 N3 C4 179.46(13) . . . .
N1 C2 N3 C4 -0.1(2) . . . .
C2 N3 C4 O2 179.31(14) . . . .
C2 N3 C4 C5 -0.7(2) . . . .
N3 C4 O2 Li 6.6(3) . . . .
C5 C4 O2 Li -173.4(2) . . . .
O2 C4 C5 C6 -178.84(15) . . . .
N3 C4 C5 C6 1.1(2) . . . .
C4 C5 C6 O3 179.38(14) . . . .
C4 C5 C6 N1 -0.8(2) . . . .
C2 N1 C6 O3 179.81(14) . . . .
C2 N1 C6 C5 0.0(2) . . . .
C5 C6 O3 Li 174.01(16) . . . 4_465
N1 C6 O3 Li -5.8(2) . . . 4_465
