#------------------------------------------------------------------------------
#$Date: 2017-09-07 09:28:32 +0300 (Thu, 07 Sep 2017) $
#$Revision: 200335 $
#$URL: file:///home/coder/svn-repositories/cod/cif/4/03/27/4032755.cif $
#------------------------------------------------------------------------------
#
# This file is available in the Crystallography Open Database (COD),
# http://www.crystallography.net/
#
# All data on this site have been placed in the public domain by the
# contributors.
#
data_4032755
loop_
_publ_author_name
'Chen, Chun-Hua'
'Liu, Qing-Qing'
'Ma, Xiao-Pan'
'Feng, Yu'
'Liang, Cui'
'Pan, Cheng-Xue'
'Su, Gui-Fa'
'Mo, Dong-Liang'
_publ_section_title
;
 Copper-Catalyzed Selective N-Vinylation of 3-(Hydroxyimino)indolin-2-ones
 with Alkenyl Boronic Acids: Synthesis of N-Vinyl Nitrones and
 Spirooxindoles.
;
_journal_issue                   12
_journal_name_full               'The Journal of organic chemistry'
_journal_page_first              6417
_journal_page_last               6425
_journal_paper_doi               10.1021/acs.joc.7b00620
_journal_volume                  82
_journal_year                    2017
_chemical_formula_moiety         'C14.88 H14.75 F3 N2 O3'
_chemical_formula_sum            'C14.88 H14.76 F3 N2 O3'
_chemical_formula_weight         326.60
_chemical_name_systematic
;
 ? 
;
_space_group_crystal_system      triclinic
_space_group_IT_number           2
_space_group_name_Hall           '-P 1'
_space_group_name_H-M_alt        'P -1'
_symmetry_space_group_name_Hall  '-P 1'
_symmetry_space_group_name_H-M   'P -1'
_atom_sites_solution_hydrogens   geom
_atom_sites_solution_primary     direct
_atom_sites_solution_secondary   difmap
_audit_creation_date             2017-03-10
_audit_creation_method
;
Olex2 1.2
(compiled 2017.03.02 svn.r3394 for OlexSys, GUI svn.r5324)
;
_cell_angle_alpha                87.872(11)
_cell_angle_beta                 87.558(11)
_cell_angle_gamma                83.708(12)
_cell_formula_units_Z            2
_cell_length_a                   5.158(4)
_cell_length_b                   9.565(7)
_cell_length_c                   16.058(11)
_cell_measurement_reflns_used    8312
_cell_measurement_temperature    296.15
_cell_measurement_theta_max      26.345
_cell_measurement_theta_min      2.585
_cell_volume                     786.3(10)
_computing_molecular_graphics    'Olex2 (Dolomanov et al., 2009)'
_computing_publication_material  'Olex2 (Dolomanov et al., 2009)'
_computing_structure_refinement  'XL (Sheldrick, 2008)'
_computing_structure_solution    'XS (Sheldrick, 2008)'
_diffrn_ambient_temperature      296.15
_diffrn_measured_fraction_theta_full 0.997
_diffrn_measured_fraction_theta_max 0.997
_diffrn_measurement_device_type  'Bruker APEX-II CCD'
_diffrn_measurement_method       '\f and \w scans'
_diffrn_radiation_monochromator  graphite
_diffrn_radiation_type           MoK\a
_diffrn_radiation_wavelength     0.71073
_diffrn_reflns_av_R_equivalents  0.0363
_diffrn_reflns_av_unetI/netI     0.0348
_diffrn_reflns_limit_h_max       6
_diffrn_reflns_limit_h_min       -6
_diffrn_reflns_limit_k_max       11
_diffrn_reflns_limit_k_min       -11
_diffrn_reflns_limit_l_max       19
_diffrn_reflns_limit_l_min       -19
_diffrn_reflns_number            8427
_diffrn_reflns_theta_full        25.00
_diffrn_reflns_theta_max         25.00
_diffrn_reflns_theta_min         1.27
_diffrn_source                   'fine-focus sealed tube'
_exptl_absorpt_coefficient_mu    0.120
_exptl_absorpt_correction_T_max  0.9917
_exptl_absorpt_correction_T_min  0.9604
_exptl_crystal_colour            'metallic blackish black'
_exptl_crystal_colour_lustre     metallic
_exptl_crystal_colour_modifier   blackish
_exptl_crystal_colour_primary    black
_exptl_crystal_density_diffrn    1.379
_exptl_crystal_density_method    'not measured'
_exptl_crystal_description       block
_exptl_crystal_F_000             338
_exptl_crystal_size_max          0.34
_exptl_crystal_size_mid          0.18
_exptl_crystal_size_min          0.07
_refine_diff_density_max         0.609
_refine_diff_density_min         -0.454
_refine_diff_density_rms         0.079
_refine_ls_extinction_method     none
_refine_ls_goodness_of_fit_ref   1.358
_refine_ls_hydrogen_treatment    constr
_refine_ls_matrix_type           full
_refine_ls_number_parameters     211
_refine_ls_number_reflns         2762
_refine_ls_number_restraints     0
_refine_ls_restrained_S_all      1.358
_refine_ls_R_factor_all          0.0976
_refine_ls_R_factor_gt           0.0860
_refine_ls_shift/su_max          0.002
_refine_ls_shift/su_mean         0.000
_refine_ls_structure_factor_coef Fsqd
_refine_ls_weighting_details
'calc w=1/[\s^2^(Fo^2^)+(0.2000P)^2^+0.0000P] where P=(Fo^2^+2Fc^2^)/3'
_refine_ls_weighting_scheme      calc
_refine_ls_wR_factor_gt          0.2952
_refine_ls_wR_factor_ref         0.3103
_reflns_number_gt                2212
_reflns_number_total             2762
_reflns_threshold_expression     >2sigma(I)
_iucr_refine_instructions_details
;
TITL AAAA in P-1 #2
REM reset to P-1 #2
CELL 0.71073 5.158 9.565 16.0582 87.872 87.558 83.708
ZERR 2 0.0037 0.0068 0.0114 0.011 0.011 0.012
LATT 1
SFAC C H F N O
UNIT 29.76 29.51 6 4 6
 
L.S. 4 0 0
PLAN  20
SIZE 0.34 0.18 0.07
TEMP 23
BOND
fmap 2 53
acta
OMIT 0 50
REM <olex2.extras>
REM <HklSrc "%.\\AAAA.hkl">
REM </olex2.extras>
 
WGHT    0.200000
FVAR       0.28537   0.99175   0.88921
N1    4    0.131435    0.786413    0.536132    11.00000    0.04409    0.04793 =
         0.05855   -0.01113   -0.00582   -0.00660
O2    5    0.297694    0.839062    0.579097    11.00000    0.06408    0.06981 =
         0.06992   -0.01496   -0.01375   -0.02679
O3    5   -0.282274    0.627609    0.456442    11.00000    0.05450    0.06371 =
         0.05760   -0.00837   -0.00990   -0.01486
C4    1   -0.021317    0.695325    0.571907    11.00000    0.04488    0.04420 =
         0.05535   -0.00760   -0.00530   -0.00455
C5    1   -0.019771    0.646870    0.657206    11.00000    0.04932    0.05544 =
         0.05691   -0.00904   -0.00565   -0.00180
N6    4   -0.318283    0.536998    0.590595    11.00000    0.05074    0.05547 =
         0.06199   -0.00417   -0.00639   -0.01482
AFIX  43
H6    2   -0.436287    0.482397    0.582857    11.00000   -1.20000
AFIX   0
C7    1   -0.204370    0.549550    0.666405    11.00000    0.05586    0.05725 =
         0.05897   -0.00369   -0.00798   -0.00404
C8    1    0.114844    0.825817    0.449267    11.00000    0.04759    0.05615 =
         0.06583   -0.00198   -0.00936   -0.00908
AFIX  43
H8    2   -0.012226    0.792063    0.418432    11.00000   -1.20000
AFIX   0
C9    1    0.274750    0.908357    0.412319    11.00000    0.05653    0.05842 =
         0.07388   -0.00782    0.00229   -0.00915
AFIX  43
H9    2    0.397137    0.943161    0.444605    11.00000   -1.20000
AFIX   0
C10   1   -0.219426    0.622220    0.529884    11.00000    0.04232    0.04756 =
         0.05734   -0.01077   -0.00483   -0.00187
C11   1   -0.253943    0.479499    0.740868    11.00000    0.08344    0.08279 =
         0.06768    0.01154   -0.00113   -0.01989
AFIX  43
H11   2   -0.377920    0.415719    0.745732    11.00000   -1.20000
AFIX   0
C12   1    0.272930    0.949589    0.322713    11.00000    0.06722    0.08856 =
         0.07550    0.01505   -0.00019   -0.01183
AFIX  23
H12A  2    0.237024    1.051131    0.317284    11.00000   -1.20000
H12B  2    0.131756    0.908941    0.297728    11.00000   -1.20000
AFIX   0
C13   1    0.122344    0.675095    0.726003    11.00000    0.06183    0.08780 =
         0.05792   -0.01122   -0.01351   -0.00956
AFIX  43
H13   2    0.245224    0.739538    0.722342    11.00000   -1.20000
AFIX   0
C14   1    0.070444    0.602622    0.798922    11.00000    0.08318    0.12623 =
         0.05515   -0.00437   -0.01749   -0.01119
O15   5    0.226661    0.624748    0.867953    11.00000    0.11501    0.23048 =
         0.06369   -0.01183   -0.02945   -0.02241
C16   1    0.522772    0.904885    0.274993    11.00000    0.09474    0.09509 =
         0.08658    0.00206    0.01095   -0.00793
AFIX  23
H16A  2    0.573579    0.805952    0.287570    11.00000   -1.20000
H16B  2    0.658559    0.957311    0.293927    11.00000   -1.20000
AFIX   0
C17   1   -0.110240    0.508257    0.808762    11.00000    0.09640    0.11830 =
         0.06999    0.01628   -0.00760   -0.01692
AFIX  43
H17   2   -0.137238    0.463531    0.860324    11.00000   -1.20000
AFIX   0
F     3    0.013395    0.824233    0.904083    11.00000    0.40921    0.18029 =
         0.16155   -0.04747   -0.06829    0.02219
C1    1    0.506145    0.926717    0.181656    31.00000    0.15883    0.18811 =
         0.12434    0.06324    0.05580    0.03443
AFIX  23
H1A   2    0.334477    0.906198    0.166598    31.00000   -1.20000
H1B   2    0.516890    1.025759    0.168480    31.00000   -1.20000
AFIX   0
F1    3    0.304301    0.711719    0.982478    11.00000    0.23049    0.40705 =
         0.08896   -0.05931   -0.05907   -0.08792
F2    3   -0.058051    0.651887    0.969555    11.00000    0.29367    0.32044 =
         0.12961   -0.09997    0.07899   -0.13754
C3    1    0.134435    0.698291    0.927385    11.00000    0.23961    0.17066 =
         0.06556   -0.00561   -0.02521   -0.10052
C0AA  1    0.687707    0.850633    0.131073    21.00000    0.39002    0.26505 =
         0.09742   -0.04744    0.02590    0.02895
AFIX 137
H0AA  2    0.702061    0.898976    0.077884    21.00000   -1.50000
H0AB  2    0.633609    0.759205    0.123517    21.00000   -1.50000
H0AC  2    0.854031    0.840674    0.156554    21.00000   -1.50000
HKLF 4
 
REM  AAAA in P-1 #2
REM R1 =  0.0860 for   2212 Fo > 4sig(Fo)  and  0.0976 for all   2762 data
REM    211 parameters refined using      0 restraints
 
END  
     
WGHT      0.2000      0.0000 
REM Highest difference peak  0.609,  deepest hole -0.454,  1-sigma level  0.079
Q1    1   0.2985  0.5184  0.9356  11.00000  0.05    0.61
Q2    1   0.3336  0.7818  0.8802  11.00000  0.05    0.52
Q3    1   0.6526  0.9555  0.1906  11.00000  0.05    0.40
Q4    1   0.4740  0.9811  0.1732  11.00000  0.05    0.39
Q5    1   0.7209  0.8919  0.1251  11.00000  0.05    0.26
Q6    1   0.4629  0.8912  0.1224  11.00000  0.05    0.25
Q7    1   0.2603  0.7161  1.0009  11.00000  0.05    0.25
Q8    1   0.4660  0.9080  0.1976  11.00000  0.05    0.23
Q9    1   0.2505  0.5839  0.8755  11.00000  0.05    0.22
Q10   1  -0.2782  0.6593  0.4597  11.00000  0.05    0.21
Q11   1   0.0881  0.7225  0.8653  11.00000  0.05    0.17
Q12   1   0.0495  0.7100  0.8738  11.00000  0.05    0.16
Q13   1   0.0847  0.6146  0.8193  11.00000  0.05    0.16
Q14   1  -0.0865  0.6195  0.8192  11.00000  0.05    0.16
Q15   1  -0.1423  0.8416  0.7981  11.00000  0.05    0.15
Q16   1  -0.0905  0.7150  0.9185  11.00000  0.05    0.15
Q17   1   0.1369  0.7231  0.9435  11.00000  0.05    0.15
Q18   1  -0.2648  0.5855  0.8404  11.00000  0.05    0.14
Q19   1  -0.4374  0.5482  0.9238  11.00000  0.05    0.14
Q20   1  -0.3495  0.5993  0.8438  11.00000  0.05    0.14

  REM The information below was added by Olex2.
  REM
  REM R1 = 0.0860 for 2212 Fo > 4sig(Fo) and 0.0976 for all 9737 data
  REM n/a parameters refined using n/a restraints
  REM Highest difference peak 0.61, deepest hole -0.45
  REM Mean Shift 0, Max Shift 0.002.

  REM +++ Tabular Listing of Refinement Information +++
  REM R1_all = 0.0976
  REM R1_gt = 0.0860
  REM wR_ref = 0.3103
  REM GOOF = 1.358
  REM Shift_max = 0.002
  REM Shift_mean = 0
  REM Reflections_all = 9737
  REM Reflections_gt = 2212
  REM Parameters = n/a
  REM Hole = -0.45
  REM Peak = 0.61
  REM Flack = n/a

  
;
_cod_data_source_file            jo7b00620_si_002.cif
_cod_data_source_block           aaaa
_cod_database_code               4032755
_olex2_refinement_description
;
1. Fixed Uiso
 At 1.2 times of:
  All C(H) groups, All C(H,H) groups, All N(H) groups
 At 1.5 times of:
  All C(H,H,H) groups
2. Others
 Sof(C0AA)=Sof(H0AA)=Sof(H0AB)=Sof(H0AC)=FVAR(1)
 Sof(C1)=Sof(H1A)=Sof(H1B)=FVAR(2)
3.a Secondary CH2 refined with riding coordinates:
 C12(H12A,H12B), C16(H16A,H16B), C1(H1A,H1B)
3.b Aromatic/amide H refined with riding coordinates:
 N6(H6), C8(H8), C9(H9), C11(H11), C13(H13), C17(H17)
3.c Idealised Me refined as rotating group:
 C0AA(H0AA,H0AB,H0AC)
;
_olex2_submission_special_instructions 'No special instructions were received'
loop_
_space_group_symop_id
_space_group_symop_operation_xyz
1 'x, y, z'
2 '-x, -y, -z'
loop_
_atom_site_label
_atom_site_type_symbol
_atom_site_fract_x
_atom_site_fract_y
_atom_site_fract_z
_atom_site_U_iso_or_equiv
_atom_site_adp_type
_atom_site_occupancy
_atom_site_calc_flag
_atom_site_refinement_flags_posn
N1 N 0.1314(4) 0.7864(2) 0.53613(14) 0.0497(6) Uani 1 d .
O2 O 0.2977(4) 0.8391(2) 0.57910(13) 0.0659(7) Uani 1 d .
O3 O -0.2823(4) 0.6276(2) 0.45644(11) 0.0576(6) Uani 1 d .
C4 C -0.0213(5) 0.6953(2) 0.57191(16) 0.0479(7) Uani 1 d .
C5 C -0.0198(5) 0.6469(3) 0.65721(17) 0.0539(7) Uani 1 d .
N6 N -0.3183(4) 0.5370(2) 0.59059(14) 0.0552(7) Uani 1 d .
H6 H -0.4363 0.4824 0.5829 0.066 Uiso 1 calc R
C7 C -0.2044(6) 0.5495(3) 0.66640(17) 0.0573(8) Uani 1 d .
C8 C 0.1148(5) 0.8258(3) 0.44927(18) 0.0561(8) Uani 1 d .
H8 H -0.0122 0.7921 0.4184 0.067 Uiso 1 calc R
C9 C 0.2747(6) 0.9084(3) 0.4123(2) 0.0627(8) Uani 1 d .
H9 H 0.3971 0.9432 0.4446 0.075 Uiso 1 calc R
C10 C -0.2194(5) 0.6222(3) 0.52988(16) 0.0490(7) Uani 1 d .
C11 C -0.2539(8) 0.4795(4) 0.7409(2) 0.0776(10) Uani 1 d .
H11 H -0.3779 0.4157 0.7457 0.093 Uiso 1 calc R
C12 C 0.2729(7) 0.9496(4) 0.3227(2) 0.0774(10) Uani 1 d .
H12A H 0.2370 1.0511 0.3173 0.093 Uiso 1 calc R
H12B H 0.1318 0.9089 0.2977 0.093 Uiso 1 calc R
C13 C 0.1223(6) 0.6751(4) 0.72600(18) 0.0685(9) Uani 1 d .
H13 H 0.2452 0.7395 0.7223 0.082 Uiso 1 calc R
C14 C 0.0704(8) 0.6026(5) 0.7989(2) 0.0877(12) Uani 1 d .
O15 O 0.2267(7) 0.6247(5) 0.86795(19) 0.1352(15) Uani 1 d .
C16 C 0.5228(8) 0.9049(5) 0.2750(2) 0.0928(12) Uani 1 d .
H16A H 0.5736 0.8060 0.2876 0.111 Uiso 1 calc R
H16B H 0.6586 0.9573 0.2939 0.111 Uiso 1 calc R
C17 C -0.1102(9) 0.5083(5) 0.8088(2) 0.0949(12) Uani 1 d .
H17 H -0.1372 0.4635 0.8603 0.114 Uiso 1 calc R
F F 0.0134(16) 0.8242(6) 0.9041(3) 0.252(3) Uani 1 d .
C1 C 0.5061(15) 0.9267(9) 0.1817(4) 0.164(5) Uani 0.889(19) d .
H1A H 0.3345 0.9062 0.1666 0.197 Uiso 0.889(19) calc R
H1B H 0.5169 1.0258 0.1685 0.197 Uiso 0.889(19) calc R
F1 F 0.3043(11) 0.7117(7) 0.9825(2) 0.235(3) Uani 1 d .
F2 F -0.0581(13) 0.6519(7) 0.9696(3) 0.240(3) Uani 1 d .
C3 C 0.1344(19) 0.6983(9) 0.9274(3) 0.152(3) Uani 1 d .
C0AA C 0.688(3) 0.8506(11) 0.1311(4) 0.256(8) Uani 0.99(2) d .
H0AA H 0.7021 0.8990 0.0779 0.383 Uiso 0.99(2) calc GR
H0AB H 0.6336 0.7592 0.1235 0.383 Uiso 0.99(2) calc GR
H0AC H 0.8540 0.8407 0.1566 0.383 Uiso 0.99(2) calc GR
loop_
_atom_site_aniso_label
_atom_site_aniso_U_11
_atom_site_aniso_U_22
_atom_site_aniso_U_33
_atom_site_aniso_U_23
_atom_site_aniso_U_13
_atom_site_aniso_U_12
N1 0.0441(12) 0.0479(12) 0.0585(13) -0.0111(9) -0.0058(9) -0.0066(9)
O2 0.0641(12) 0.0698(13) 0.0699(13) -0.0150(10) -0.0138(9) -0.0268(9)
O3 0.0545(11) 0.0637(12) 0.0576(12) -0.0084(8) -0.0099(8) -0.0149(9)
C4 0.0449(13) 0.0442(13) 0.0553(15) -0.0076(11) -0.0053(11) -0.0046(10)
C5 0.0493(14) 0.0554(15) 0.0569(15) -0.0090(12) -0.0057(11) -0.0018(11)
N6 0.0507(12) 0.0555(13) 0.0620(14) -0.0042(10) -0.0064(10) -0.0148(9)
C7 0.0559(15) 0.0573(15) 0.0590(16) -0.0037(12) -0.0080(12) -0.0040(12)
C8 0.0476(15) 0.0562(15) 0.0658(17) -0.0020(12) -0.0094(12) -0.0091(11)
C9 0.0565(16) 0.0584(17) 0.0739(19) -0.0078(13) 0.0023(13) -0.0091(12)
C10 0.0423(13) 0.0476(13) 0.0573(15) -0.0108(10) -0.0048(10) -0.0019(10)
C11 0.083(2) 0.083(2) 0.068(2) 0.0115(16) -0.0011(16) -0.0199(17)
C12 0.067(2) 0.089(2) 0.075(2) 0.0150(17) -0.0002(16) -0.0118(16)
C13 0.0618(17) 0.088(2) 0.0579(17) -0.0112(15) -0.0135(13) -0.0096(15)
C14 0.083(2) 0.126(3) 0.0551(19) -0.0044(18) -0.0175(16) -0.011(2)
O15 0.115(2) 0.230(4) 0.0637(17) -0.012(2) -0.0294(16) -0.022(2)
C16 0.095(3) 0.095(3) 0.087(2) 0.002(2) 0.011(2) -0.008(2)
C17 0.096(3) 0.118(3) 0.070(2) 0.016(2) -0.0076(19) -0.017(2)
F 0.409(10) 0.180(4) 0.162(4) -0.047(3) -0.068(5) 0.022(5)
C1 0.159(7) 0.188(8) 0.124(6) 0.063(5) 0.056(5) 0.034(5)
F1 0.230(5) 0.407(8) 0.089(2) -0.059(3) -0.059(3) -0.088(5)
F2 0.294(7) 0.320(7) 0.130(3) -0.100(4) 0.079(4) -0.138(6)
C3 0.240(8) 0.171(6) 0.066(3) -0.006(3) -0.025(4) -0.101(6)
C0AA 0.390(18) 0.265(13) 0.097(5) -0.047(6) 0.026(7) 0.029(11)
loop_
_atom_type_symbol
_atom_type_description
_atom_type_scat_dispersion_real
_atom_type_scat_dispersion_imag
_atom_type_scat_source
C C 0.0033 0.0016 'International Tables Vol C Tables 4.2.6.8 and 6.1.1.4'
H H 0.0000 0.0000 'International Tables Vol C Tables 4.2.6.8 and 6.1.1.4'
F F 0.0171 0.0103 'International Tables Vol C Tables 4.2.6.8 and 6.1.1.4'
N N 0.0061 0.0033 'International Tables Vol C Tables 4.2.6.8 and 6.1.1.4'
O O 0.0106 0.0060 'International Tables Vol C Tables 4.2.6.8 and 6.1.1.4'
loop_
_geom_angle_atom_site_label_1
_geom_angle_atom_site_label_2
_geom_angle_atom_site_label_3
_geom_angle
O2 N1 C4 120.1(2)
O2 N1 C8 118.8(2)
C4 N1 C8 121.1(2)
N1 C4 C5 126.0(2)
N1 C4 C10 126.5(2)
C5 C4 C10 107.4(2)
C7 C5 C4 106.5(2)
C13 C5 C4 134.1(3)
C13 C5 C7 119.4(3)
C10 N6 C7 111.5(2)
N6 C7 C5 109.5(3)
C11 C7 C5 122.7(3)
C11 C7 N6 127.7(3)
C9 C8 N1 121.5(3)
C8 C9 C12 124.2(3)
O3 C10 C4 130.5(2)
O3 C10 N6 124.3(2)
N6 C10 C4 105.1(2)
C7 C11 C17 117.2(4)
C9 C12 C16 114.3(3)
C14 C13 C5 116.4(3)
C13 C14 O15 116.5(4)
C17 C14 C13 124.7(3)
C17 C14 O15 118.8(4)
C3 O15 C14 120.9(5)
C12 C16 C1 114.0(4)
C14 C17 C11 119.5(4)
C0AA C1 C16 118.5(6)
O15 C3 F 114.3(5)
O15 C3 F1 112.7(8)
O15 C3 F2 115.7(6)
F1 C3 F 110.8(7)
F2 C3 F 97.8(9)
F2 C3 F1 104.2(5)
loop_
_geom_bond_atom_site_label_1
_geom_bond_atom_site_label_2
_geom_bond_distance
N1 O2 1.279(3)
N1 C4 1.336(4)
N1 C8 1.435(4)
O3 C10 1.234(3)
C4 C5 1.430(4)
C4 C10 1.496(4)
C5 C7 1.403(4)
C5 C13 1.402(4)
N6 C7 1.389(4)
N6 C10 1.366(4)
C7 C11 1.377(5)
C8 C9 1.312(4)
C9 C12 1.478(5)
C11 C17 1.396(6)
C12 C16 1.500(5)
C13 C14 1.370(5)
C14 O15 1.433(4)
C14 C17 1.367(7)
O15 C3 1.253(9)
C16 C1 1.510(7)
F C3 1.343(9)
C1 C0AA 1.377(12)
F1 C3 1.291(7)
F2 C3 1.288(8)
loop_
_refln_index_h
_refln_index_k
_refln_index_l
_refln_F_squared_meas
_refln_F_squared_sigma
-1 0 0 153.2 6.21
-1 0 0 161.54 6.3
-1 0 0 155.44 6.77
-1 0 0 155.06 6.64
-2 0 0 76.9 3.21
-2 0 0 78.33 3.6
-2 0 0 94.03 3.35
-3 0 0 3.09 0.16
-3 0 0 3.15 0.17
-3 0 0 3.19 0.14
3 0 0 3.08 0.16
-4 0 0 6.35 0.28
-4 0 0 6.64 0.29
-4 0 0 6.45 0.32
4 0 0 6.67 0.32
-5 0 0 2.72 0.15
-5 0 0 2.69 0.18
5 0 0 2.78 0.18
-6 0 0 -0.03 0.06
-6 0 0 -0.08 0.07
6 0 0 -0.03 0.07
6 -1 0 1.14 0.13
-6 1 0 1.1 0.11
-6 1 0 0.89 0.13
5 -1 0 0.08 0.06
-5 1 0 -0.12 0.04
-5 1 0 -0.09 0.07
4 -1 0 0.68 0.08
4 -1 0 0.59 0.05
-4 1 0 0.63 0.08
-4 1 0 0.59 0.06
3 -1 0 3.43 0.18
3 -1 0 3.46 0.15
-3 1 0 3.42 0.15
-3 1 0 3.45 0.15
-3 1 0 3.18 0.18
2 -1 0 0.04 0.01
2 -1 0 0.05 0.03
-2 1 0 0.01 0.01
-2 1 0 0 0.01
-2 1 0 0.06 0.01
1 -1 0 429.99 17.05
1 -1 0 465.48 18.71
-1 1 0 407.45 16.51
-1 1 0 388.54 17.68
0 -1 0 103.82 5.09
0 -1 0 127.08 4.74
0 1 0 122.42 4.9
-1 -1 0 1.84 0.09
-1 -1 0 1.9 0.09
-1 -1 0 1.76 0.09
-1 -1 0 1.86 0.08
-2 -1 0 65.96 2.58
-2 -1 0 52.98 2.44
-3 -1 0 -0.04 0.03
-3 -1 0 0.01 0.03
-3 -1 0 0.04 0.03
-3 -1 0 -0.01 0.03
-4 -1 0 0.04 0.05
-4 -1 0 0.03 0.04
-4 -1 0 -0.09 0.03
-4 -1 0 0 0.04
4 1 0 0.02 0.04
-5 -1 0 4.44 0.25
-5 -1 0 4.74 0.22
-5 -1 0 4.72 0.24
5 1 0 4.52 0.25
-6 -1 0 2.08 0.14
-6 -1 0 2.05 0.17
6 1 0 1.51 0.15
6 -2 0 0.08 0.08
-6 2 0 0 0.08
-6 2 0 -0.04 0.06
5 -2 0 0.34 0.08
-5 2 0 0.28 0.08
-5 2 0 0.39 0.06
4 -2 0 0.03 0.05
-4 2 0 0.04 0.03
-4 2 0 0.06 0.05
3 -2 0 6.61 0.28
3 -2 0 7.38 0.34
-3 2 0 6.89 0.29
2 -2 0 16.14 0.62
2 -2 0 16.08 0.69
-2 2 0 16.25 0.66
-2 2 0 13.56 0.61
1 -2 0 324.91 12.25
1 -2 0 260.39 13.45
-1 2 0 299.71 11.86
-1 2 0 322.15 12.36
0 -2 0 2.64 0.12
0 -2 0 2.35 0.11
0 2 0 2.54 0.11
-1 -2 0 1.17 0.06
1 2 0 1.11 0.05
1 2 0 1.16 0.06
-2 -2 0 27.81 1.2
-2 -2 0 26.97 1.13
-3 -2 0 11.75 0.46
-3 -2 0 11.05 0.51
-3 -2 0 11.33 0.49
-3 -2 0 11.72 0.49
-4 -2 0 12.39 0.55
-4 -2 0 12.38 0.57
-4 -2 0 12.56 0.51
-4 -2 0 12.7 0.54
-5 -2 0 0.3 0.07
-5 -2 0 0.36 0.08
-5 -2 0 0.33 0.07
-5 -2 0 0.35 0.07
5 2 0 0.26 0.07
-6 -2 0 0.36 0.09
-6 -2 0 0.36 0.07
6 2 0 0.55 0.09
6 -3 0 -0.01 0.07
-6 3 0 0.01 0.09
5 -3 0 0.26 0.09
-5 3 0 0.14 0.07
-5 3 0 0.25 0.06
4 -3 0 0.84 0.1
-4 3 0 0.94 0.07
-4 3 0 0.66 0.09
3 -3 0 1.12 0.09
-3 3 0 0.91 0.07
-3 3 0 0.82 0.08
2 -3 0 9.77 0.45
-2 3 0 9.61 0.38
-2 3 0 9.44 0.42
1 -3 0 53.83 2.14
-1 3 0 52.51 2.18
0 -3 0 0.71 0.05
0 -3 0 0.78 0.05
0 3 0 0.72 0.04
-1 -3 0 0.85 0.06
-1 -3 0 0.89 0.05
1 3 0 0.91 0.05
1 3 0 0.88 0.04
-2 -3 0 6.34 0.28
-2 -3 0 5.51 0.28
-2 -3 0 6.5 0.26
2 3 0 6.48 0.26
2 3 0 6.51 0.27
-3 -3 0 0.82 0.08
-3 -3 0 0.94 0.07
-3 -3 0 0.8 0.07
-3 -3 0 0.88 0.07
3 3 0 0.89 0.07
-4 -3 0 6.6 0.31
-4 -3 0 6.53 0.31
-4 -3 0 6.84 0.32
-4 -3 0 6.6 0.29
4 3 0 6.43 0.31
-5 -3 0 5.16 0.27
-5 -3 0 5.2 0.25
-5 -3 0 5.18 0.26
-5 -3 0 4.96 0.26
5 3 0 4.51 0.26
-6 -3 0 -0.15 0.06
-6 -3 0 -0.08 0.06
6 3 0 0.14 0.06
5 -4 0 -0.06 0.07
-5 4 0 -0.05 0.07
-5 4 0 0.06 0.05
4 -4 0 1.26 0.12
-4 4 0 1.23 0.09
-4 4 0 1.15 0.12
3 -4 0 1.72 0.12
-3 4 0 1.77 0.1
-3 4 0 1.6 0.12
2 -4 0 5.97 0.29
-2 4 0 6.07 0.25
-2 4 0 5.9 0.28
1 -4 0 3.08 0.13
1 -4 0 2.89 0.16
-1 4 0 2.94 0.15
-1 4 0 3 0.13
0 -4 0 42.1 1.61
0 -4 0 34.84 1.72
0 4 0 41.77 1.62
1 4 0 0.54 0.05
1 4 0 0.5 0.03
-2 -4 0 1.66 0.11
2 4 0 1.83 0.1
2 4 0 1.89 0.09
-3 -4 0 13.15 0.58
-3 -4 0 12.88 0.53
-3 -4 0 12.32 0.56
3 4 0 13.07 0.53
3 4 0 12.88 0.55
-4 -4 0 6.73 0.32
-4 -4 0 6.47 0.29
-4 -4 0 6.74 0.32
4 4 0 6.42 0.3
4 4 0 6.68 0.3
-5 -4 0 0.02 0.06
-5 -4 0 0.1 0.06
-5 -4 0 0.09 0.06
5 4 0 0.1 0.06
-6 -4 0 0.09 0.07
-6 -4 0 0.12 0.08
6 4 0 0.12 0.07
5 -5 0 0.34 0.09
-5 5 0 0.5 0.07
-5 5 0 0.45 0.11
4 -5 0 0.84 0.11
-4 5 0 0.82 0.11
-4 5 0 0.65 0.07
3 -5 0 0.04 0.06
-3 5 0 0.07 0.06
-3 5 0 0.04 0.03
2 -5 0 1.21 0.06
-2 5 0 1.08 0.1
-2 5 0 1.25 0.08
1 -5 0 3.89 0.2
1 -5 0 3.76 0.17
-1 5 0 3.75 0.18
-1 5 0 3.83 0.17
0 -5 0 0.07 0.04
0 -5 0 0.13 0.04
0 5 0 0.19 0.03
0 5 0 0.16 0.03
-1 -5 0 1.33 0.09
1 5 0 1.06 0.08
1 5 0 1.35 0.06
-2 -5 0 1.9 0.1
2 5 0 1.75 0.08
2 5 0 1.88 0.11
-3 -5 0 1.47 0.09
-3 -5 0 1.28 0.11
3 5 0 1.56 0.1
3 5 0 1.37 0.08
-4 -5 0 1.01 0.09
-4 -5 0 0.84 0.1
4 5 0 0.73 0.08
4 5 0 0.87 0.09
-5 -5 0 1.12 0.13
-5 -5 0 0.9 0.1
5 5 0 1 0.1
-6 -5 0 0.03 0.07
-6 -5 0 -0.05 0.06
6 5 0 -0.01 0.06
5 -6 0 0.05 0.09
-5 6 0 0.04 0.09
-5 6 0 0.08 0.05
4 -6 0 0.21 0.08
-4 6 0 0.16 0.05
-4 6 0 0.14 0.08
3 -6 0 0.08 0.07
-3 6 0 -0.03 0.04
-3 6 0 0.02 0.06
2 -6 0 0.08 0.04
-2 6 0 0.25 0.06
-2 6 0 0.18 0.04
1 -6 0 5.48 0.24
1 -6 0 5.1 0.26
-1 6 0 5.28 0.23
-1 6 0 5.27 0.25
0 -6 0 12.63 0.54
0 -6 0 11.25 0.5
0 6 0 11.36 0.5
0 6 0 11.65 0.48
-1 -6 0 11.29 0.49
-1 -6 0 11.79 0.52
1 6 0 10.99 0.47
-2 -6 0 1.17 0.1
-2 -6 0 1.24 0.08
2 6 0 1.35 0.09
2 6 0 1.16 0.06
-3 -6 0 5.75 0.29
-3 -6 0 6 0.28
3 6 0 5.89 0.27
-4 -6 0 0.26 0.06
-4 -6 0 0.26 0.08
4 6 0 0.18 0.06
-5 -6 0 1.27 0.14
5 6 0 1.15 0.12
4 -7 0 0.11 0.09
-4 7 0 -0.03 0.08
-4 7 0 0.06 0.05
3 -7 0 0.33 0.09
-3 7 0 0.14 0.04
-3 7 0 0.08 0.07
2 -7 0 0.09 0.05
-2 7 0 -0.01 0.05
-2 7 0 0.07 0.04
1 -7 0 1.79 0.13
1 -7 0 1.7 0.1
-1 7 0 1.71 0.11
-1 7 0 1.72 0.1
0 -7 0 7.9 0.37
0 -7 0 7.38 0.34
0 7 0 7.69 0.32
0 7 0 7.45 0.33
-1 -7 0 0.42 0.07
-1 -7 0 0.57 0.06
-2 -7 0 1.71 0.13
-2 -7 0 1.84 0.11
2 7 0 1.68 0.11
-3 -7 0 0.01 0.04
-3 -7 0 -0.08 0.06
3 7 0 0 0.05
-4 -7 0 0.16 0.05
-4 -7 0 0.19 0.08
4 7 0 0.2 0.07
-5 -7 0 0.02 0.08
5 7 0 0.09 0.07
4 -8 0 0 0.08
-4 8 0 -0.04 0.08
-4 8 0 -0.03 0.05
3 -8 0 0.01 0.07
-3 8 0 -0.04 0.07
-3 8 0 -0.07 0.04
2 -8 0 -0.01 0.06
-2 8 0 -0.05 0.04
-2 8 0 -0.07 0.05
1 -8 0 1.44 0.13
-1 8 0 1.36 0.1
-1 8 0 1.42 0.1
0 -8 0 0.54 0.07
0 -8 0 0.53 0.07
0 8 0 0.55 0.06
-1 -8 0 0.06 0.05
-1 -8 0 0.01 0.05
1 8 0 0.01 0.04
-2 -8 0 1.8 0.12
-2 -8 0 1.58 0.14
2 8 0 1.92 0.12
-3 -8 0 0.07 0.05
-3 -8 0 -0.04 0.06
3 8 0 -0.03 0.06
-4 -8 0 1.99 0.17
4 8 0 1.93 0.15
-5 -8 0 -0.01 0.07
5 8 0 0.1 0.07
3 -9 0 0.13 0.09
-3 9 0 0.2 0.09
-3 9 0 0.13 0.06
2 -9 0 0.5 0.09
-2 9 0 0.38 0.08
-2 9 0 0.31 0.06
1 -9 0 1.62 0.15
-1 9 0 1.82 0.12
0 -9 0 0.08 0.06
0 -9 0 0.18 0.07
0 9 0 0.2 0.05
-1 -9 0 2.17 0.15
-1 -9 0 2.23 0.15
1 9 0 2.32 0.14
-2 -9 0 0.02 0.07
-2 -9 0 0.18 0.05
2 9 0 0.16 0.06
-3 -9 0 0.05 0.07
-3 -9 0 0.06 0.05
3 9 0 0.01 0.06
-4 -9 0 0.4 0.1
4 9 0 0.44 0.09
3 -10 0 0.01 0.09
2 -10 0 0.15 0.09
-2 10 0 0.17 0.06
1 -10 0 0 0.07
-1 10 0 0.05 0.05
0 -10 0 0.04 0.06
0 -10 0 -0.04 0.05
0 10 0 -0.03 0.05
-1 -10 0 0.64 0.09
-1 -10 0 0.55 0.08
1 10 0 0.69 0.08
-2 -10 0 0.64 0.1
-2 -10 0 0.47 0.07
2 10 0 0.49 0.09
-3 -10 0 0.49 0.1
3 10 0 0.39 0.09
-4 -10 0 0.17 0.08
4 10 0 0.07 0.08
2 -11 0 0.32 0.1
1 -11 0 -0.05 0.07
-1 11 0 0.05 0.06
0 -11 0 0.58 0.09
0 11 0 0.72 0.09
-1 -11 0 0.32 0.08
-1 -11 0 0.43 0.09
1 11 0 0.57 0.09
-2 -11 0 0.04 0.06
-2 -11 0 0.2 0.08
2 11 0 0 0.07
-3 -11 0 0.36 0.1
3 11 0 0.3 0.08
-1 -12 0 0.03 0.07
-1 -12 0 0.17 0.08
1 12 0 0.1 0.07
-1 -12 1 -0.14 0.07
0 -12 1 0.19 0.09
3 11 -1 0.47 0.09
-3 -11 1 0.57 0.11
2 11 -1 0.36 0.09
-2 -11 1 0.33 0.07
-2 -11 1 0.62 0.1
1 11 -1 1.56 0.13
-1 -11 1 1.46 0.15
0 11 -1 0.61 0.08
0 -11 1 0.56 0.1
-1 11 -1 0.26 0.07
1 -11 1 0.23 0.09
2 -11 1 0.05 0.08
4 10 -1 0.17 0.08
-4 -10 1 0.13 0.08
3 10 -1 0.26 0.08
-3 -10 1 0.13 0.06
-3 -10 1 0.2 0.08
2 10 -1 0.44 0.08
-2 -10 1 0.36 0.07
-2 -10 1 0.45 0.09
1 10 -1 0.95 0.1
-1 -10 1 0.83 0.11
-1 -10 1 0.9 0.11
0 10 -1 0.08 0.05
0 -10 1 0.05 0.06
0 -10 1 0.09 0.07
-1 10 -1 0.39 0.07
1 -10 1 0.33 0.09
-2 10 -1 0.04 0.06
2 -10 1 0.05 0.08
3 -10 1 0.09 0.09
4 9 -1 0.85 0.11
-4 -9 1 0.66 0.11
3 9 -1 0.36 0.08
-3 -9 1 0.21 0.08
-3 -9 1 0.27 0.06
2 9 -1 0.84 0.09
-2 -9 1 1.01 0.1
-2 -9 1 0.95 0.11
1 9 -1 0.62 0.08
-1 -9 1 0.45 0.08
-1 -9 1 0.52 0.08
0 9 -1 0.2 0.06
0 -9 1 0.09 0.05
0 -9 1 0.21 0.06
-1 9 -1 3.27 0.16
1 -9 1 2.63 0.19
-2 9 -1 -0.04 0.05
2 -9 1 -0.01 0.07
-3 9 -1 0.39 0.07
-3 9 -1 0.55 0.1
3 -9 1 0.46 0.1
5 8 -1 0.31 0.09
-5 -8 1 0.3 0.1
4 8 -1 0.4 0.08
-4 -8 1 0.38 0.07
-4 -8 1 0.43 0.09
3 8 -1 0.74 0.09
-3 -8 1 0.93 0.1
-3 -8 1 0.74 0.1
2 8 -1 4.37 0.22
-2 -8 1 4.12 0.23
-2 -8 1 4.75 0.24
1 8 -1 0.59 0.07
-1 -8 1 0.38 0.07
-1 -8 1 0.44 0.06
0 8 -1 0.15 0.05
0 -8 1 0.08 0.05
0 -8 1 0.12 0.05
-1 8 -1 0.39 0.06
-1 8 -1 0.46 0.06
1 -8 1 0.38 0.08
-2 8 -1 0.03 0.04
-2 8 -1 0.07 0.06
2 -8 1 0.12 0.07
-3 8 -1 0.28 0.09
-3 8 -1 0.25 0.06
3 -8 1 0.21 0.08
-4 8 -1 0.05 0.08
-4 8 -1 -0.01 0.06
4 -8 1 -0.04 0.07
5 7 -1 0.64 0.1
-5 -7 1 0.53 0.1
4 7 -1 0.1 0.06
-4 -7 1 0.1 0.05
-4 -7 1 0.07 0.07
3 7 -1 -0.02 0.05
-3 -7 1 -0.06 0.05
-3 -7 1 -0.02 0.04
2 7 -1 1.53 0.11
-2 -7 1 1.59 0.12
-2 -7 1 1.58 0.11
-1 -7 1 1.36 0.11
-1 -7 1 1.52 0.1
0 7 -1 10.7 0.47
0 -7 1 11.36 0.51
0 -7 1 10.84 0.47
-1 7 -1 2.61 0.13
-1 7 -1 2.55 0.14
1 -7 1 2.77 0.17
1 -7 1 2.47 0.13
-2 7 -1 -0.05 0.05
-2 7 -1 0.04 0.04
2 -7 1 -0.03 0.05
-3 7 -1 0.19 0.08
-3 7 -1 0.14 0.05
3 -7 1 0.1 0.07
-4 7 -1 0.05 0.05
-4 7 -1 0.04 0.09
4 -7 1 0.12 0.09
5 6 -1 2.05 0.15
-5 -6 1 2.17 0.17
4 6 -1 -0.02 0.05
-4 -6 1 0.02 0.04
-4 -6 1 -0.05 0.06
3 6 -1 4.92 0.22
-3 -6 1 4.51 0.24
-3 -6 1 4.55 0.23
2 6 -1 0.12 0.04
-2 -6 1 0.08 0.05
-2 -6 1 0.18 0.04
1 6 -1 0.15 0.04
-1 -6 1 0.18 0.04
-1 -6 1 0.05 0.04
0 6 -1 2.39 0.12
0 -6 1 2.37 0.13
0 -6 1 2.65 0.14
-1 6 -1 0.14 0.04
-1 6 -1 0.17 0.03
1 -6 1 0.22 0.03
1 -6 1 0.19 0.05
-2 6 -1 0.47 0.07
-2 6 -1 0.58 0.06
2 -6 1 0.39 0.06
-3 6 -1 0.07 0.06
-3 6 -1 0 0.03
3 -6 1 0 0.06
-4 6 -1 0.03 0.05
-4 6 -1 0.04 0.08
4 -6 1 -0.04 0.06
-5 6 -1 0.31 0.11
-5 6 -1 0.27 0.07
5 -6 1 0.26 0.1
6 5 -1 0.01 0.07
-6 -5 1 0.03 0.08
5 5 -1 0.15 0.07
-5 -5 1 0.07 0.06
-5 -5 1 0.03 0.07
4 5 -1 0.01 0.05
-4 -5 1 -0.03 0.05
-4 -5 1 -0.03 0.04
3 5 -1 5.32 0.23
3 5 -1 4.87 0.22
-3 -5 1 4.94 0.25
-3 -5 1 4.93 0.24
2 5 -1 0.21 0.04
2 5 -1 0.19 0.02
-2 -5 1 0.16 0.05
-2 -5 1 0.25 0.04
1 5 -1 15.84 0.65
-1 -5 1 15.79 0.68
-1 -5 1 17.05 0.72
0 5 -1 22.77 0.94
0 -5 1 23.33 1.01
0 -5 1 22.52 0.94
-1 5 -1 0.6 0.06
-1 5 -1 0.7 0.05
1 -5 1 0.72 0.05
1 -5 1 0.6 0.07
-2 5 -1 1.74 0.12
-2 5 -1 1.7 0.09
-3 5 -1 0.02 0.05
-3 5 -1 0.04 0.03
3 -5 1 0.06 0.06
-4 5 -1 0.18 0.05
-4 5 -1 0.13 0.07
4 -5 1 0.2 0.08
-5 5 -1 0.91 0.09
-5 5 -1 0.93 0.13
5 -5 1 0.78 0.12
6 4 -1 0.77 0.1
-6 -4 1 0.78 0.11
-6 -4 1 0.7 0.1
5 4 -1 -0.01 0.05
5 4 -1 0.02 0.06
-5 -4 1 0.07 0.07
-5 -4 1 -0.04 0.05
-5 -4 1 0.03 0.06
-5 -4 1 0.01 0.05
4 4 -1 1.39 0.1
4 4 -1 1.63 0.11
-4 -4 1 1.47 0.11
-4 -4 1 1.58 0.13
-4 -4 1 1.59 0.11
-4 -4 1 1.62 0.11
3 4 -1 2.53 0.13
3 4 -1 2.51 0.13
-3 -4 1 2.56 0.15
-3 -4 1 2.66 0.14
2 4 -1 3.39 0.16
2 4 -1 3.34 0.15
-2 -4 1 3.53 0.17
1 4 -1 59.55 2.28
-1 -4 1 58.16 2.39
0 4 -1 0.29 0.03
0 -4 1 0.3 0.04
0 -4 1 0.3 0.04
-1 4 -1 7.85 0.35
-1 4 -1 7.96 0.33
1 -4 1 8.29 0.33
-2 4 -1 7.05 0.29
-2 4 -1 6.96 0.32
2 -4 1 7.03 0.34
-3 4 -1 0.19 0.04
-3 4 -1 0.04 0.05
3 -4 1 0.07 0.05
-4 4 -1 0 0.04
-4 4 -1 -0.1 0.06
4 -4 1 0 0.06
-5 4 -1 0.18 0.09
-5 4 -1 0.07 0.05
5 -4 1 0.09 0.08
6 3 -1 0.16 0.07
-6 -3 1 0.06 0.06
-6 -3 1 0.19 0.08
-5 -3 1 0.29 0.07
-5 -3 1 0.2 0.07
-5 -3 1 0.13 0.06
-5 -3 1 0.28 0.06
-4 -3 1 6.76 0.32
-4 -3 1 6.87 0.33
-4 -3 1 6.98 0.3
-4 -3 1 6.97 0.33
-3 -3 1 1.27 0.1
-3 -3 1 1.44 0.09
-3 -3 1 1.43 0.09
-3 -3 1 1.44 0.09
2 3 -1 12.88 0.52
-2 -3 1 13.19 0.54
-2 -3 1 12.62 0.55
1 3 -1 3.86 0.16
1 3 -1 3.75 0.16
-1 -3 1 3.85 0.18
-1 -3 1 3.77 0.17
0 3 -1 -0.03 0.01
0 -3 1 -0.02 0.02
0 -3 1 -0.03 0.02
-1 3 -1 14.28 0.6
1 -3 1 14.42 0.58
-2 3 -1 2.76 0.12
-2 3 -1 2.76 0.14
2 -3 1 2.66 0.15
-3 3 -1 0.36 0.06
-3 3 -1 0.38 0.04
3 -3 1 0.38 0.06
-4 3 -1 4.34 0.2
-4 3 -1 4.14 0.24
4 -3 1 4.18 0.24
-5 3 -1 0.28 0.09
-5 3 -1 0.25 0.06
5 -3 1 0.22 0.08
-6 3 -1 -0.11 0.06
-6 3 -1 0.06 0.09
6 -3 1 -0.02 0.08
6 2 -1 -0.06 0.06
-6 -2 1 0.11 0.08
-6 -2 1 0.12 0.07
-6 -2 1 -0.02 0.06
-5 -2 1 0.81 0.1
-5 -2 1 0.63 0.08
-5 -2 1 0.67 0.09
-5 -2 1 0.81 0.08
-4 -2 1 9.59 0.4
-4 -2 1 9.47 0.44
-4 -2 1 9.7 0.45
-4 -2 1 9.78 0.43
-3 -2 1 2.81 0.16
-3 -2 1 3.06 0.14
-3 -2 1 3.13 0.16
-3 -2 1 3.07 0.16
-2 -2 1 11.51 0.55
-2 -2 1 14.69 0.55
1 2 -1 29.02 1.19
-1 -2 1 32.3 1.26
-1 -2 1 30.82 1.33
0 2 -1 378.49 16.18
0 2 -1 440.15 17.01
0 -2 1 419.65 16.84
-1 2 -1 64.88 2.56
-1 2 -1 64.79 2.71
1 -2 1 68.59 2.87
-2 2 -1 0.99 0.06
2 -2 1 0.97 0.07
-3 2 -1 2.19 0.11
3 -2 1 2.23 0.13
3 -2 1 2.1 0.09
-4 2 -1 0.22 0.04
-4 2 -1 0.05 0.05
4 -2 1 0.15 0.06
-5 2 -1 0.27 0.06
-5 2 -1 0.25 0.09
5 -2 1 0.31 0.07
-6 2 -1 0.14 0.09
-6 2 -1 -0.05 0.06
6 -2 1 0.03 0.08
6 1 -1 1.46 0.15
-6 -1 1 1.51 0.12
-6 -1 1 1.55 0.16
5 1 -1 5.56 0.26
5 1 -1 5.45 0.29
-5 -1 1 5.4 0.29
-5 -1 1 5.29 0.26
-5 -1 1 5.62 0.29
-5 -1 1 5.4 0.25
-4 -1 1 1.11 0.1
-4 -1 1 1.21 0.08
-4 -1 1 1.08 0.1
-4 -1 1 1.11 0.09
-3 -1 1 0.65 0.07
-3 -1 1 0.66 0.06
-3 -1 1 0.71 0.07
-3 -1 1 0.73 0.06
-2 -1 1 1.6 0.09
-2 -1 1 1.79 0.09
-1 -1 1 67.43 3.02
-1 -1 1 70.56 2.81
-1 -1 1 70.55 2.85
-1 -1 1 70.25 2.7
0 1 -1 81.11 3.23
0 1 -1 83.79 3.41
0 -1 1 87.7 3.41
0 -1 1 80.13 3.37
-1 1 -1 71 2.78
-1 1 -1 72.31 2.93
1 -1 1 71.8 3.1
-2 1 -1 5.71 0.23
2 -1 1 5.51 0.26
-3 1 -1 16.62 0.66
-3 1 -1 16.8 0.68
-3 1 -1 16.38 0.71
3 -1 1 16.73 0.75
-4 1 -1 0.4 0.07
-4 1 -1 0.49 0.05
4 -1 1 0.54 0.07
-5 1 -1 -0.06 0.06
-5 1 -1 -0.05 0.04
5 -1 1 0.03 0.05
-6 1 -1 0.04 0.09
-6 1 -1 0.03 0.06
6 -1 1 0.1 0.07
6 0 -1 0.03 0.08
-6 0 1 0.04 0.08
5 0 -1 1.8 0.14
-5 0 1 1.64 0.12
-5 0 1 1.6 0.15
4 0 -1 0.98 0.07
4 0 -1 1.09 0.09
-4 0 1 0.88 0.09
-4 0 1 0.89 0.1
-4 0 1 0.97 0.07
-4 0 1 0.98 0.08
3 0 -1 16.15 0.7
-3 0 1 15.35 0.62
-3 0 1 15.16 0.67
-3 0 1 15.55 0.7
-2 0 1 44.18 1.8
-2 0 1 45.04 1.73
-1 0 1 1.69 0.08
-1 0 1 1.6 0.08
-1 0 1 1.53 0.08
-1 0 1 1.76 0.07
0 0 1 20.87 0.91
-1 0 -1 1.66 0.07
-1 0 -1 1.45 0.07
1 0 1 1.4 0.07
-2 0 -1 41.34 1.83
-2 0 -1 43.04 1.7
2 0 1 41.51 1.82
-3 0 -1 0.26 0.05
-3 0 -1 0.23 0.03
-3 0 -1 0.22 0.03
3 0 1 0.25 0.04
-4 0 -1 1.84 0.11
-4 0 -1 1.87 0.1
-4 0 -1 1.81 0.13
4 0 1 1.89 0.12
-5 0 -1 0.09 0.07
-5 0 -1 0.14 0.05
5 0 1 0.09 0.06
-6 0 -1 0.43 0.08
-6 0 -1 0.49 0.11
6 0 1 0.39 0.09
6 -1 -1 1.57 0.16
-6 1 1 1.29 0.16
5 -1 -1 0.39 0.08
-5 1 1 0.38 0.06
-5 1 1 0.37 0.08
4 -1 -1 3.39 0.16
4 -1 -1 3.34 0.19
-4 1 1 3.45 0.2
-4 1 1 3.43 0.16
3 -1 -1 5.15 0.22
3 -1 -1 5 0.25
-3 1 1 5.07 0.21
-3 1 1 4.75 0.24
2 -1 -1 8.74 0.35
2 -1 -1 8.84 0.39
-2 1 1 7.97 0.39
-2 1 1 8.96 0.34
1 -1 -1 345.6 13.08
1 -1 -1 290.74 14.27
-1 1 1 328.94 12.6
0 -1 -1 111.69 4.63
0 -1 -1 116.61 4.97
0 1 1 116.48 4.44
0 1 1 113.19 4.8
-1 -1 -1 90.52 3.68
-1 -1 -1 91.82 3.96
-1 -1 -1 92.1 3.74
1 1 1 91.25 3.74
-2 -1 -1 16.59 0.69
-2 -1 -1 16.69 0.73
-3 -1 -1 4.5 0.19
-3 -1 -1 4.4 0.21
-3 -1 -1 4.33 0.2
-3 -1 -1 4.45 0.21
-4 -1 -1 0.34 0.06
-4 -1 -1 0.34 0.05
-4 -1 -1 0.35 0.05
-4 -1 -1 0.3 0.06
4 1 1 0.43 0.06
-5 -1 -1 1.92 0.15
-5 -1 -1 2.04 0.13
5 1 1 2 0.14
-6 -1 -1 2.55 0.16
-6 -1 -1 2.45 0.19
6 1 1 2.48 0.18
6 -2 -1 0.13 0.09
-6 2 1 0.12 0.08
5 -2 -1 0.21 0.08
-5 2 1 0.17 0.07
-5 2 1 0.21 0.05
4 -2 -1 2.25 0.15
-4 2 1 2.37 0.12
-4 2 1 2.31 0.16
3 -2 -1 43.09 1.85
3 -2 -1 41.95 1.7
-3 2 1 41.41 1.64
2 -2 -1 31.92 1.27
2 -2 -1 33.51 1.39
-2 2 1 29.09 1.31
1 -2 -1 1000 38.1
-1 2 1 868.68 36.6
-1 2 1 961.37 39.06
0 -2 -1 245.03 10.11
0 -2 -1 231.24 9.41
0 2 1 224.92 9.7
0 2 1 233.01 9.3
-1 -2 -1 518.73 21.75
1 2 1 426.69 19.39
1 2 1 549.29 20.56
-2 -2 -1 26.46 1.08
-2 -2 -1 28.97 1.2
-2 -2 -1 26.72 1.14
2 2 1 28.33 1.14
-3 -2 -1 10.39 0.49
-3 -2 -1 10.81 0.47
-3 -2 -1 10.79 0.47
-3 -2 -1 11.24 0.44
-4 -2 -1 3.85 0.2
-4 -2 -1 3.93 0.19
-4 -2 -1 3.8 0.2
-4 -2 -1 3.85 0.2
-5 -2 -1 0.51 0.08
-5 -2 -1 0.52 0.09
-5 -2 -1 0.71 0.09
-5 -2 -1 0.54 0.08
5 2 1 0.6 0.08
5 2 1 0.51 0.09
-6 -2 -1 1.1 0.13
-6 -2 -1 1.24 0.12
6 2 1 1.2 0.13
6 -3 -1 0.01 0.08
-6 3 1 -0.01 0.09
5 -3 -1 0.82 0.11
-5 3 1 0.61 0.1
-5 3 1 0.84 0.09
4 -3 -1 0.28 0.07
-4 3 1 0.17 0.07
-4 3 1 0.29 0.05
3 -3 -1 1.8 0.12
3 -3 -1 1.59 0.08
-3 3 1 1.71 0.09
2 -3 -1 32.28 1.4
2 -3 -1 31.78 1.28
-2 3 1 31.53 1.32
-2 3 1 31.39 1.24
1 -3 -1 154.07 6.04
-1 3 1 146.34 6.13
0 -3 -1 72.54 3.1
0 -3 -1 70.96 2.89
0 3 1 71.54 2.92
0 3 1 71.3 2.77
-1 -3 -1 6.03 0.25
-1 -3 -1 4.59 0.24
1 3 1 5.84 0.23
-2 -3 -1 10.52 0.46
-2 -3 -1 10.6 0.47
-2 -3 -1 10.86 0.43
2 3 1 10.82 0.45
-3 -3 -1 2.75 0.13
-3 -3 -1 2.64 0.15
-3 -3 -1 2.62 0.14
3 3 1 2.66 0.14
-4 -3 -1 5.21 0.23
-4 -3 -1 4.86 0.25
-4 -3 -1 4.94 0.24
-4 -3 -1 5.15 0.25
4 3 1 4.78 0.24
-5 -3 -1 6.98 0.35
-5 -3 -1 7.53 0.32
-5 -3 -1 7.1 0.34
-5 -3 -1 6.86 0.34
5 3 1 6.7 0.34
5 3 1 6.68 0.34
-6 -3 -1 0.13 0.07
6 3 1 0.16 0.07
5 -4 -1 0 0.08
-5 4 1 0.06 0.08
-5 4 1 -0.06 0.04
4 -4 -1 2.2 0.16
-4 4 1 2.24 0.17
-4 4 1 2.34 0.12
3 -4 -1 2.26 0.15
-3 4 1 2.11 0.14
-3 4 1 2.33 0.12
2 -4 -1 35.23 1.44
-2 4 1 36.49 1.49
-2 4 1 35.48 1.39
1 -4 -1 0.03 0.02
1 -4 -1 0.06 0.04
-1 4 1 0.21 0.04
-1 4 1 0.06 0.02
0 -4 -1 46.59 1.86
0 4 1 45.31 1.78
0 4 1 45.35 1.88
-1 -4 -1 71.56 3.22
-1 -4 -1 75 3.01
1 4 1 76.68 3.04
-2 -4 -1 20.23 0.85
2 4 1 20.62 0.81
2 4 1 20.06 0.84
-3 -4 -1 13.01 0.59
-3 -4 -1 13.44 0.54
-3 -4 -1 13.29 0.57
3 4 1 12.71 0.56
3 4 1 13.66 0.54
-4 -4 -1 3.78 0.19
-4 -4 -1 4.02 0.2
-4 -4 -1 3.65 0.21
4 4 1 3.73 0.19
-5 -4 -1 1.73 0.13
-5 -4 -1 2.01 0.15
5 4 1 1.63 0.13
-6 -4 -1 0.17 0.08
-6 -4 -1 0.09 0.07
5 -5 -1 0.22 0.09
-5 5 1 0.21 0.06
-5 5 1 0.27 0.1
4 -5 -1 0.26 0.08
-4 5 1 0.14 0.07
-4 5 1 0.2 0.05
3 -5 -1 3.89 0.24
-3 5 1 4.03 0.23
-3 5 1 4.64 0.19
2 -5 -1 7.49 0.32
-2 5 1 7.58 0.35
-2 5 1 7.65 0.31
1 -5 -1 3.17 0.17
1 -5 -1 3 0.14
-1 5 1 2.98 0.14
-1 5 1 2.99 0.15
0 -5 -1 0.21 0.04
0 -5 -1 0.26 0.04
0 5 1 0.3 0.04
0 5 1 0.25 0.03
-1 -5 -1 17.36 0.75
-1 -5 -1 16.8 0.72
1 5 1 16.92 0.7
-2 -5 -1 4.94 0.23
2 5 1 4.78 0.21
2 5 1 4.77 0.22
-3 -5 -1 4.95 0.24
-3 -5 -1 5.08 0.25
3 5 1 5.2 0.23
3 5 1 4.82 0.22
-4 -5 -1 11.52 0.52
-4 -5 -1 11.35 0.51
-4 -5 -1 11.58 0.48
4 5 1 10.05 0.48
4 5 1 11.78 0.48
-5 -5 -1 -0.08 0.06
-5 -5 -1 0.15 0.07
5 5 1 0.08 0.07
-6 -5 -1 -0.01 0.06
-6 -5 -1 0.01 0.07
6 5 1 0.04 0.07
5 -6 -1 0.06 0.08
-5 6 1 0.08 0.09
4 -6 -1 0.1 0.08
-4 6 1 0.07 0.04
-4 6 1 0.12 0.08
3 -6 -1 2.79 0.2
-3 6 1 3.05 0.19
-3 6 1 3.15 0.15
2 -6 -1 -0.04 0.05
-2 6 1 0.04 0.05
-2 6 1 0.03 0.03
1 -6 -1 2.13 0.13
1 -6 -1 1.87 0.11
-1 6 1 2.12 0.11
-1 6 1 2.07 0.12
0 -6 -1 -0.04 0.04
0 6 1 0 0.03
0 6 1 0.02 0.03
-1 -6 -1 0.08 0.03
-1 -6 -1 0 0.04
1 6 1 0.13 0.02
1 6 1 0.05 0.03
-2 -6 -1 10.78 0.46
-2 -6 -1 8.97 0.45
2 6 1 10.45 0.42
-3 -6 -1 9.63 0.44
-3 -6 -1 9.68 0.45
3 6 1 9.69 0.41
-4 -6 -1 0.14 0.07
-4 -6 -1 -0.03 0.04
4 6 1 0.1 0.06
-5 -6 -1 0.52 0.1
5 6 1 0.54 0.09
4 -7 -1 0.24 0.1
-4 7 1 0.33 0.1
-4 7 1 0.35 0.06
3 -7 -1 0.05 0.06
-3 7 1 0.19 0.08
-3 7 1 0.13 0.05
2 -7 -1 0.15 0.06
-2 7 1 0.05 0.06
-2 7 1 0.1 0.04
1 -7 -1 0.34 0.05
1 -7 -1 0.33 0.07
-1 7 1 0.34 0.06
-1 7 1 0.34 0.05
0 -7 -1 0.02 0.04
0 -7 -1 0.03 0.05
0 7 1 -0.03 0.03
0 7 1 0.08 0.04
-1 -7 -1 -0.01 0.04
-1 -7 -1 0.01 0.04
1 7 1 -0.02 0.02
1 7 1 0.04 0.02
-2 -7 -1 2.27 0.13
-2 -7 -1 2.2 0.15
2 7 1 2.19 0.13
-3 -7 -1 0.86 0.1
-3 -7 -1 0.88 0.08
3 7 1 0.94 0.1
-4 -7 -1 0.4 0.09
4 7 1 0.41 0.08
-5 -7 -1 -0.04 0.07
5 7 1 0.05 0.07
4 -8 -1 0.2 0.08
-4 8 1 0.07 0.06
-4 8 1 0.18 0.09
3 -8 -1 0.09 0.07
-3 8 1 0.08 0.07
-3 8 1 0.07 0.05
2 -8 -1 0.06 0.06
-2 8 1 -0.01 0.06
-2 8 1 0 0.04
1 -8 -1 1.24 0.1
1 -8 -1 1.31 0.12
-1 8 1 1.14 0.11
-1 8 1 1.31 0.09
0 -8 -1 0.13 0.05
0 -8 -1 0.15 0.05
0 8 1 0.13 0.05
-1 -8 -1 1.5 0.11
-1 -8 -1 1.4 0.12
1 8 1 1.45 0.1
-2 -8 -1 3.58 0.21
-2 -8 -1 3.61 0.19
2 8 1 3.53 0.19
-3 -8 -1 0.06 0.04
-3 -8 -1 0.05 0.07
3 8 1 -0.02 0.05
-4 -8 -1 2.63 0.2
4 8 1 2.58 0.17
-5 -8 -1 0.12 0.08
5 8 1 0.08 0.07
3 -9 -1 -0.05 0.08
-3 9 1 -0.06 0.07
-3 9 1 0.01 0.05
2 -9 -1 0.5 0.1
-2 9 1 0.57 0.07
-2 9 1 0.55 0.09
1 -9 -1 1.15 0.13
-1 9 1 1.18 0.1
0 -9 -1 0.05 0.06
0 -9 -1 -0.01 0.05
0 9 1 0.04 0.05
-1 -9 -1 0.94 0.1
-1 -9 -1 0.88 0.1
1 9 1 0.97 0.1
-2 -9 -1 0 0.07
-2 -9 -1 0.02 0.05
2 9 1 0.02 0.05
-3 -9 -1 0.08 0.07
3 9 1 0.01 0.06
-4 -9 -1 0.11 0.08
4 9 1 0.09 0.08
3 -10 -1 -0.01 0.08
2 -10 -1 0 0.07
-2 10 1 0.08 0.06
1 -10 -1 -0.01 0.06
-1 10 1 0.03 0.05
0 -10 -1 0.04 0.06
0 -10 -1 0.03 0.06
0 10 1 0.14 0.06
-1 -10 -1 0.84 0.11
-1 -10 -1 1.04 0.11
1 10 1 0.97 0.1
-2 -10 -1 0.08 0.05
-2 -10 -1 0.02 0.07
2 10 1 0.08 0.06
-3 -10 -1 0.99 0.12
3 10 1 0.57 0.1
-4 -10 -1 0.17 0.09
4 10 1 -0.04 0.07
2 -11 -1 0.41 0.11
1 -11 -1 -0.1 0.06
-1 11 1 -0.01 0.05
0 -11 -1 0.24 0.08
0 11 1 0.27 0.07
-1 -11 -1 0.01 0.07
-1 -11 -1 0.01 0.06
1 11 1 0.13 0.06
-2 -11 -1 0.03 0.07
-2 -11 -1 -0.04 0.05
2 11 1 0.07 0.07
-3 -11 -1 0.33 0.1
3 11 1 0.34 0.09
0 -12 -1 0.34 0.09
-1 -12 -1 -0.05 0.06
-1 -12 -1 0.22 0.08
1 12 1 0.09 0.07
-1 -12 2 0.04 0.08
0 -12 2 0.12 0.08
3 11 -2 0.48 0.09
-3 -11 2 0.34 0.08
-3 -11 2 0.65 0.11
2 11 -2 0.49 0.08
-2 -11 2 0.28 0.07
-2 -11 2 0.52 0.1
1 11 -2 1.42 0.13
-1 -11 2 1.33 0.14
-1 -11 2 1.5 0.15
0 11 -2 0.17 0.07
0 -11 2 0.04 0.08
-1 11 -2 0.36 0.07
1 -11 2 0.23 0.09
2 -11 2 0.05 0.09
4 10 -2 0.1 0.08
-4 -10 2 0.18 0.09
3 10 -2 0.02 0.06
-3 -10 2 0.16 0.08
-3 -10 2 0.1 0.06
2 10 -2 0.05 0.07
-2 -10 2 -0.03 0.06
-2 -10 2 -0.03 0.05
1 10 -2 1.03 0.1
-1 -10 2 0.62 0.09
-1 -10 2 1.06 0.12
0 10 -2 0.12 0.06
0 -10 2 0.04 0.07
-1 10 -2 0.19 0.06
1 -10 2 0.21 0.09
-2 10 -2 0.01 0.06
2 -10 2 -0.01 0.07
3 -10 2 0.15 0.09
4 9 -2 0.7 0.1
-4 -9 2 0.67 0.11
-4 -9 2 0.52 0.08
3 9 -2 1.01 0.1
-3 -9 2 0.91 0.11
-3 -9 2 1.05 0.11
2 9 -2 1.97 0.14
-2 -9 2 2.11 0.16
-2 -9 2 1.85 0.14
1 9 -2 1.81 0.12
-1 -9 2 1.16 0.11
-1 -9 2 1.59 0.13
0 9 -2 2.24 0.13
0 -9 2 1.99 0.15
0 -9 2 2.16 0.14
-1 9 -2 1.64 0.11
1 -9 2 1.42 0.14
-2 9 -2 -0.02 0.05
2 -9 2 -0.03 0.07
-3 9 -2 0.4 0.09
-3 9 -2 0.42 0.07
3 -9 2 0.43 0.1
5 8 -2 -0.02 0.07
-5 -8 2 -0.01 0.08
4 8 -2 0.56 0.09
-4 -8 2 0.56 0.09
-4 -8 2 0.43 0.07
3 8 -2 0.88 0.1
-3 -8 2 0.95 0.1
-3 -8 2 0.92 0.11
2 8 -2 1.11 0.1
-2 -8 2 1.27 0.12
-2 -8 2 1.42 0.11
1 8 -2 1.87 0.12
-1 -8 2 1.52 0.12
-1 -8 2 1.72 0.12
0 8 -2 0.85 0.08
0 -8 2 0.72 0.08
0 -8 2 0.87 0.09
-1 8 -2 0.34 0.05
1 -8 2 0.31 0.07
-2 8 -2 0.19 0.07
-2 8 -2 0.21 0.05
2 -8 2 0.14 0.08
-3 8 -2 -0.01 0.07
-3 8 -2 0.06 0.05
3 -8 2 -0.05 0.06
-4 8 -2 0 0.06
-4 8 -2 0.03 0.09
4 -8 2 0.14 0.08
5 7 -2 0.23 0.08
-5 -7 2 0.2 0.09
4 7 -2 0.01 0.06
-4 -7 2 0.06 0.05
-4 -7 2 0.04 0.07
3 7 -2 2.31 0.14
-3 -7 2 2.25 0.14
-3 -7 2 2.13 0.16
2 7 -2 1.5 0.11
-2 -7 2 1.67 0.11
-2 -7 2 1.42 0.12
1 7 -2 1.09 0.08
-1 -7 2 1.25 0.09
-1 -7 2 1.03 0.1
0 7 -2 5.08 0.23
0 -7 2 5.12 0.26
0 -7 2 5.07 0.24
-1 7 -2 0.23 0.04
-1 7 -2 0.25 0.05
1 -7 2 0.2 0.05
1 -7 2 0.27 0.04
-2 7 -2 3.37 0.19
-2 7 -2 3.29 0.16
2 -7 2 3.22 0.2
-3 7 -2 0.16 0.07
-3 7 -2 0.08 0.05
3 -7 2 0.18 0.07
-4 7 -2 -0.02 0.05
-4 7 -2 -0.05 0.08
4 -7 2 0 0.07
5 6 -2 1.41 0.13
-5 -6 2 1.46 0.13
-5 -6 2 1.49 0.15
4 6 -2 1.8 0.13
-4 -6 2 1.56 0.14
-4 -6 2 1.87 0.13
3 6 -2 3.88 0.2
-3 -6 2 3.97 0.2
-3 -6 2 3.93 0.21
2 6 -2 1.16 0.09
-2 -6 2 1.12 0.1
-2 -6 2 1.2 0.08
1 6 -2 0.09 0.03
-1 -6 2 0.16 0.04
-1 -6 2 0.02 0.04
0 6 -2 15.88 0.66
0 -6 2 15.97 0.71
0 -6 2 15.71 0.66
-1 6 -2 1.15 0.07
-1 6 -2 1.04 0.08
1 -6 2 1.03 0.07
-2 6 -2 0.73 0.08
-2 6 -2 0.73 0.07
2 -6 2 0.63 0.08
-3 6 -2 0.13 0.07
-3 6 -2 0.1 0.04
3 -6 2 0.07 0.06
-4 6 -2 0.07 0.05
-4 6 -2 0.08 0.08
4 -6 2 -0.02 0.06
-5 6 -2 0.14 0.1
-5 6 -2 0 0.05
5 -6 2 0.02 0.08
6 5 -2 -0.02 0.07
-6 -5 2 -0.03 0.08
5 5 -2 0.08 0.06
-5 -5 2 0.22 0.08
-5 -5 2 0.17 0.06
4 5 -2 0.57 0.07
-4 -5 2 0.51 0.08
-4 -5 2 0.46 0.07
3 5 -2 1.92 0.11
3 5 -2 1.87 0.1
-3 -5 2 1.87 0.13
-3 -5 2 1.95 0.11
2 5 -2 0.56 0.03
2 5 -2 0.46 0.05
-2 -5 2 0.4 0.06
-2 -5 2 0.53 0.05
1 5 -2 7.86 0.33
-1 -5 2 7.58 0.35
-1 -5 2 8.62 0.37
0 5 -2 14.14 0.55
0 5 -2 11.21 0.53
0 -5 2 14.1 0.6
0 -5 2 13.65 0.56
-1 5 -2 3.27 0.16
-1 5 -2 3.36 0.15
1 -5 2 3.08 0.15
-2 5 -2 0.12 0.05
2 -5 2 0.11 0.05
-3 5 -2 -0.08 0.05
-3 5 -2 -0.02 0.03
3 -5 2 0 0.05
-4 5 -2 -0.04 0.07
-4 5 -2 0.06 0.04
4 -5 2 0.07 0.07
-5 5 -2 0.11 0.08
-5 5 -2 0.09 0.06
5 -5 2 0.13 0.08
-6 -4 2 1.05 0.12
-6 -4 2 1.28 0.14
5 4 -2 -0.06 0.05
5 4 -2 0 0.05
-5 -4 2 -0.01 0.06
-5 -4 2 -0.01 0.05
-5 -4 2 -0.04 0.05
-5 -4 2 0.02 0.05
4 4 -2 2.9 0.16
-4 -4 2 3.02 0.18
-4 -4 2 2.92 0.16
-4 -4 2 2.88 0.15
-4 -4 2 2.93 0.17
3 4 -2 0.14 0.04
-3 -4 2 0.12 0.05
-3 -4 2 0.26 0.04
2 4 -2 2.31 0.12
2 4 -2 2.48 0.11
-2 -4 2 2.58 0.13
1 4 -2 42.16 1.67
-1 -4 2 42.21 1.75
-1 -4 2 44.51 1.87
0 4 -2 0.32 0.03
0 4 -2 0.39 0.03
0 -4 2 0.35 0.04
0 -4 2 0.34 0.04
-1 4 -2 1.74 0.1
1 -4 2 1.76 0.08
1 -4 2 1.54 0.1
-2 4 -2 0.49 0.05
-2 4 -2 0.47 0.06
2 -4 2 0.54 0.07
-3 4 -2 0.05 0.05
-3 4 -2 0.04 0.03
3 -4 2 0.04 0.05
-4 4 -2 0.19 0.07
-4 4 -2 0.2 0.05
4 -4 2 0.31 0.07
-5 4 -2 1.08 0.1
-5 4 -2 1.13 0.14
5 -4 2 0.96 0.12
6 3 -2 0.35 0.08
-6 -3 2 0.3 0.08
-6 -3 2 0.37 0.09
-5 -3 2 -0.05 0.06
-5 -3 2 -0.07 0.05
-5 -3 2 -0.11 0.05
-5 -3 2 -0.04 0.05
-4 -3 2 1.75 0.12
-4 -3 2 1.92 0.11
-4 -3 2 1.93 0.13
-4 -3 2 1.95 0.12
3 3 -2 1.66 0.1
-3 -3 2 1.76 0.1
-3 -3 2 1.6 0.09
-3 -3 2 1.66 0.1
-3 -3 2 1.51 0.11
2 3 -2 24.02 0.97
-2 -3 2 24.9 1.02
-2 -3 2 24.75 1.09
-2 -3 2 25.59 1.02
1 3 -2 40.92 1.6
-1 -3 2 41.61 1.68
0 3 -2 4.98 0.2
0 3 -2 5.18 0.21
0 -3 2 4.76 0.21
-1 3 -2 33.59 1.34
-1 3 -2 33.02 1.37
1 -3 2 32.78 1.34
1 -3 2 33.43 1.45
-2 3 -2 0.07 0.04
2 -3 2 0 0.04
-3 3 -2 0.05 0.04
-3 3 -2 0.08 0.03
3 -3 2 0.15 0.04
-4 3 -2 6.9 0.3
-4 3 -2 7.05 0.35
4 -3 2 7.17 0.36
-5 3 -2 0.65 0.08
-5 3 -2 0.58 0.1
5 -3 2 0.5 0.09
-6 3 -2 0.11 0.08
-6 3 -2 0.1 0.06
6 -3 2 0.09 0.08
6 2 -2 -0.04 0.06
-6 -2 2 0.06 0.07
-6 -2 2 0.11 0.08
-5 -2 2 2.18 0.13
-5 -2 2 2.18 0.15
-5 -2 2 2.17 0.15
-5 -2 2 2.31 0.16
-4 -2 2 0.58 0.07
-4 -2 2 0.6 0.06
-4 -2 2 0.54 0.07
-4 -2 2 0.55 0.07
-3 -2 2 18.17 0.74
-3 -2 2 18.68 0.78
-3 -2 2 18.6 0.83
-3 -2 2 18.76 0.78
2 2 -2 82.02 3.05
-2 -2 2 66.81 3.41
-2 -2 2 82.42 3.19
-2 -2 2 83.87 3.22
1 2 -2 29.49 1.17
-1 -2 2 30.35 1.31
-1 -2 2 30.41 1.23
0 2 -2 272.43 11.32
0 -2 2 307.74 11.9
0 -2 2 281.83 11.56
-1 2 -2 17.89 0.71
-1 2 -2 17.59 0.74
1 -2 2 17.74 0.78
-2 2 -2 0 0.03
-2 2 -2 0.03 0.02
2 -2 2 0 0.03
-3 2 -2 0.3 0.04
-3 2 -2 0.13 0.04
3 -2 2 0.31 0.05
-4 2 -2 0.04 0.04
-4 2 -2 -0.02 0.05
4 -2 2 0.08 0.06
-5 2 -2 0.28 0.06
-5 2 -2 0.17 0.08
5 -2 2 0.24 0.07
-6 2 -2 0.17 0.07
-6 2 -2 0.27 0.09
6 -2 2 0.29 0.09
6 1 -2 0.44 0.1
-6 -1 2 0.54 0.11
5 1 -2 2.18 0.15
5 1 -2 2.09 0.13
-5 -1 2 1.97 0.16
-5 -1 2 1.95 0.14
-5 -1 2 2.15 0.13
-5 -1 2 2.28 0.16
-4 -1 2 5.41 0.23
-4 -1 2 5.39 0.27
-4 -1 2 5.11 0.26
-4 -1 2 5.3 0.25
-3 -1 2 2.32 0.13
-3 -1 2 2.32 0.14
-3 -1 2 2.54 0.14
-3 -1 2 2.36 0.12
-2 -1 2 6.85 0.29
-2 -1 2 5.7 0.27
1 1 -2 190.13 7.49
-1 -1 2 196.47 7.92
-1 -1 2 190.33 8.4
-1 -1 2 198.99 7.82
0 1 -2 0.77 0.04
0 1 -2 0.73 0.04
0 -1 2 0.8 0.04
0 -1 2 0.78 0.04
-1 1 -2 29.97 1.24
-1 1 -2 30.92 1.22
1 -1 2 29.71 1.31
-2 1 -2 0.01 0.02
-2 1 -2 0 0.02
-2 1 -2 0 0.01
2 -1 2 0.02 0.02
-3 1 -2 6.91 0.29
-3 1 -2 6.69 0.32
-3 1 -2 7.04 0.29
3 -1 2 6.96 0.33
-4 1 -2 1.23 0.08
-4 1 -2 1.08 0.11
4 -1 2 1.16 0.1
-5 1 -2 -0.12 0.04
-5 1 -2 -0.11 0.06
5 -1 2 -0.04 0.06
-6 1 -2 0.57 0.1
-6 1 -2 0.72 0.09
6 0 -2 0.25 0.09
-6 0 2 0.19 0.09
5 0 -2 1.63 0.13
-5 0 2 1.19 0.13
-5 0 2 1.67 0.11
4 0 -2 0.22 0.04
4 0 -2 0.21 0.06
-4 0 2 0.16 0.04
-4 0 2 0.19 0.06
-4 0 2 0.08 0.06
3 0 -2 23.52 0.94
-3 0 2 22.83 0.97
-3 0 2 23.32 0.9
-3 0 2 22.51 1.02
2 0 -2 32.55 1.33
-2 0 2 32.72 1.27
-2 0 2 33.31 1.33
1 0 -2 61.41 2.5
-1 0 2 60.77 2.54
-1 0 2 64.31 2.4
0 0 -2 69.73 2.71
0 0 2 64.85 2.94
0 0 2 73.23 3.1
-1 0 -2 350.11 14.15
1 0 2 343.12 15.14
-2 0 -2 22.48 0.91
2 0 2 22.16 0.98
-3 0 -2 0.87 0.06
-3 0 -2 0.88 0.08
-3 0 -2 0.66 0.06
3 0 2 0.86 0.07
-4 0 -2 -0.03 0.03
-4 0 -2 -0.04 0.05
-4 0 -2 -0.04 0.03
4 0 2 -0.01 0.04
-5 0 -2 0.04 0.07
-5 0 -2 0.16 0.05
5 0 2 0.2 0.07
-6 0 -2 0.6 0.11
-6 0 -2 0.53 0.09
6 0 2 0.7 0.11
6 -1 -2 1.78 0.17
-6 1 2 2.13 0.19
5 -1 -2 1.21 0.12
-5 1 2 1.24 0.13
-5 1 2 1.28 0.1
4 -1 -2 0.71 0.09
4 -1 -2 0.61 0.05
-4 1 2 0.63 0.06
-4 1 2 0.48 0.08
3 -1 -2 0.51 0.04
3 -1 -2 0.37 0.06
-3 1 2 0.38 0.06
-3 1 2 0.39 0.04
-3 1 2 0.49 0.07
2 -1 -2 0.91 0.07
2 -1 -2 0.92 0.05
-2 1 2 1.01 0.07
-2 1 2 0.85 0.07
-2 1 2 0.94 0.05
1 -1 -2 35.38 1.41
-1 1 2 34.78 1.36
0 -1 -2 29.65 1.27
0 -1 -2 29.09 1.18
0 1 2 29.74 1.2
0 1 2 28.73 1.13
0 1 2 29.09 1.27
-1 -1 -2 30.86 1.25
-1 -1 -2 31.25 1.33
1 1 2 30.06 1.26
-2 -1 -2 1.74 0.1
-2 -1 -2 1.87 0.09
2 1 2 1.85 0.1
-3 -1 -2 3.7 0.18
-3 -1 -2 3.83 0.17
-3 -1 -2 3.7 0.19
3 1 2 3.81 0.18
-4 -1 -2 0.96 0.08
-4 -1 -2 0.93 0.08
-4 -1 -2 0.78 0.09
4 1 2 0.93 0.08
-5 -1 -2 0.14 0.06
-5 -1 -2 0.12 0.08
5 1 2 0.16 0.06
5 1 2 0.07 0.07
-6 -1 -2 0.6 0.11
-6 -1 -2 0.41 0.08
6 1 2 0.47 0.1
6 -2 -2 0.3 0.1
-6 2 2 0.22 0.1
5 -2 -2 0.16 0.08
-5 2 2 0.09 0.05
-5 2 2 0.16 0.07
4 -2 -2 2.51 0.16
-4 2 2 2.44 0.16
-4 2 2 2.61 0.13
3 -2 -2 4.57 0.24
3 -2 -2 4.75 0.2
-3 2 2 4.84 0.2
2 -2 -2 4.85 0.23
2 -2 -2 4.94 0.19
-2 2 2 4.15 0.19
1 -2 -2 536.08 21.08
-1 2 2 532.51 21.65
-1 2 2 487.84 20.2
0 -2 -2 267.15 11.36
0 -2 -2 260.57 10.58
0 2 2 267.4 10.39
0 2 2 255.79 10.95
-1 -2 -2 52.5 2.21
-1 -2 -2 49.88 1.97
1 2 2 50.47 2.08
-2 -2 -2 7.73 0.33
-2 -2 -2 8.3 0.36
2 2 2 8.25 0.35
-3 -2 -2 5.17 0.24
-3 -2 -2 5.44 0.23
-3 -2 -2 5.21 0.25
3 2 2 5.32 0.24
-4 -2 -2 1.52 0.12
-4 -2 -2 1.64 0.11
-4 -2 -2 1.62 0.1
-4 -2 -2 1.7 0.12
4 2 2 1.52 0.11
4 2 2 1.75 0.1
-5 -2 -2 0.17 0.06
-5 -2 -2 0.06 0.05
-5 -2 -2 0.13 0.07
5 2 2 0.07 0.06
5 2 2 0.05 0.06
-6 -2 -2 1.43 0.13
-6 -2 -2 1.41 0.14
6 2 2 1.58 0.14
6 -3 -2 0.24 0.1
-6 3 2 0.06 0.09
5 -3 -2 0.54 0.1
-5 3 2 0.39 0.09
-5 3 2 0.48 0.06
4 -3 -2 1.87 0.14
-4 3 2 1.95 0.15
-4 3 2 2.04 0.11
3 -3 -2 0.87 0.09
3 -3 -2 0.88 0.05
-3 3 2 0.91 0.06
2 -3 -2 0.19 0.02
-2 3 2 0.17 0.03
-2 3 2 0.17 0.05
1 -3 -2 7.53 0.31
-1 3 2 6.87 0.29
-1 3 2 7.45 0.32
0 -3 -2 0.19 0.03
0 -3 -2 0.18 0.03
0 3 2 0.21 0.03
0 3 2 0.21 0.03
-1 -3 -2 26.17 1.07
-2 -3 -2 0.07 0.04
-2 -3 -2 0.16 0.02
-2 -3 -2 0.18 0.03
2 3 2 0.13 0.03
-3 -3 -2 0.88 0.09
-3 -3 -2 0.96 0.07
3 3 2 0.94 0.07
-4 -3 -2 0.94 0.1
-4 -3 -2 1.2 0.09
-4 -3 -2 1.08 0.08
4 3 2 0.91 0.09
-5 -3 -2 5.03 0.24
-5 -3 -2 4.59 0.26
5 3 2 4.82 0.25
-6 -3 -2 0.55 0.09
6 3 2 0.69 0.1
5 -4 -2 -0.05 0.07
-5 4 2 -0.03 0.08
4 -4 -2 1.68 0.15
-4 4 2 1.8 0.11
-4 4 2 1.51 0.15
3 -4 -2 1.16 0.11
-3 4 2 1.19 0.11
-3 4 2 1.04 0.07
2 -4 -2 198.81 8.08
-2 4 2 198.95 7.77
-2 4 2 205.13 8.22
1 -4 -2 38.41 1.54
1 -4 -2 38.89 1.67
-1 4 2 37.75 1.48
-1 4 2 37 1.57
0 -4 -2 36.1 1.43
0 4 2 33.61 1.37
0 4 2 35.8 1.45
-1 -4 -2 4.65 0.22
-1 -4 -2 5.03 0.22
1 4 2 5.02 0.21
1 4 2 4.61 0.21
-2 -4 -2 17.31 0.73
-2 -4 -2 16.59 0.7
-2 -4 -2 16.3 0.66
2 4 2 16.31 0.69
2 4 2 16.34 0.66
-3 -4 -2 9.16 0.42
-3 -4 -2 9.58 0.39
3 4 2 9.15 0.4
-4 -4 -2 0.99 0.11
-4 -4 -2 1.17 0.09
-4 -4 -2 1.2 0.1
4 4 2 1.11 0.09
-5 -4 -2 1.83 0.15
-5 -4 -2 1.74 0.14
5 4 2 1.77 0.14
-6 -4 -2 0.37 0.08
-6 -4 -2 0.49 0.09
6 4 2 0.48 0.08
5 -5 -2 0.16 0.08
-5 5 2 0.06 0.1
4 -5 -2 0.04 0.07
-4 5 2 -0.05 0.07
-4 5 2 0.02 0.04
3 -5 -2 9.57 0.47
-3 5 2 9.61 0.39
-3 5 2 9.43 0.45
2 -5 -2 16.88 0.71
-2 5 2 17.56 0.68
-2 5 2 17.3 0.74
1 -5 -2 0.66 0.06
1 -5 -2 0.62 0.07
-1 5 2 0.58 0.05
-1 5 2 0.6 0.06
0 -5 -2 22.19 0.93
0 -5 -2 22.57 0.99
0 5 2 21.89 0.93
0 5 2 22.89 0.88
-1 -5 -2 -0.06 0.03
-1 -5 -2 0.04 0.02
1 5 2 0.02 0.02
1 5 2 -0.01 0.03
2 5 2 0.35 0.04
-3 -5 -2 4.44 0.24
-3 -5 -2 4.83 0.22
-3 -5 -2 4.74 0.22
3 5 2 4.73 0.22
3 5 2 4.52 0.21
-4 -5 -2 8.69 0.41
-4 -5 -2 8.73 0.4
-4 -5 -2 8.98 0.38
4 5 2 8.78 0.38
4 5 2 8.27 0.38
-5 -5 -2 0.87 0.11
-5 -5 -2 0.59 0.09
5 5 2 0.78 0.1
-6 -5 -2 0.01 0.07
-6 -5 -2 0.07 0.07
6 5 2 0.12 0.08
5 -6 -2 0.16 0.1
-5 6 2 0.14 0.1
4 -6 -2 -0.01 0.08
-4 6 2 0.11 0.09
-4 6 2 0.14 0.05
3 -6 -2 7.28 0.39
-3 6 2 7.76 0.33
-3 6 2 7.88 0.38
2 -6 -2 0.58 0.09
-2 6 2 0.71 0.07
-2 6 2 0.67 0.08
1 -6 -2 5.42 0.27
1 -6 -2 5.31 0.24
-1 6 2 5.32 0.25
-1 6 2 5.42 0.23
0 -6 -2 2.91 0.16
0 -6 -2 2.77 0.15
0 6 2 3 0.14
0 6 2 2.84 0.14
-1 -6 -2 11.77 0.5
-1 -6 -2 11.75 0.52
1 6 2 11.19 0.47
1 6 2 11.25 0.48
-2 -6 -2 9.19 0.42
-3 -6 -2 4.39 0.21
-3 -6 -2 4.24 0.24
3 6 2 4.17 0.21
3 6 2 4.16 0.19
-4 -6 -2 0.91 0.11
4 6 2 0.86 0.1
-5 -6 -2 0.73 0.11
5 6 2 0.75 0.1
4 -7 -2 0.75 0.12
-4 7 2 0.94 0.09
-4 7 2 0.77 0.12
3 -7 -2 0.91 0.12
-3 7 2 1.2 0.1
-3 7 2 1.02 0.12
2 -7 -2 0.56 0.08
-2 7 2 0.55 0.08
-2 7 2 0.6 0.06
1 -7 -2 1.14 0.09
1 -7 -2 1.19 0.11
-1 7 2 1.3 0.09
-1 7 2 1.13 0.1
0 -7 -2 2.83 0.16
0 -7 -2 3.46 0.18
0 7 2 3.23 0.16
0 7 2 2.92 0.15
-1 -7 -2 0.15 0.04
-1 -7 -2 0.07 0.05
1 7 2 0.11 0.04
1 7 2 0.08 0.03
-2 -7 -2 2.67 0.16
-2 -7 -2 2.5 0.14
2 7 2 2.46 0.14
-3 -7 -2 6.54 0.33
-3 -7 -2 6.63 0.31
3 7 2 6.44 0.3
-4 -7 -2 0.15 0.08
4 7 2 0.23 0.07
-5 -7 -2 0.26 0.09
5 7 2 0.19 0.08
4 -8 -2 0.27 0.1
-4 8 2 0.21 0.06
-4 8 2 0.25 0.1
3 -8 -2 0.13 0.08
-3 8 2 -0.03 0.05
-3 8 2 -0.04 0.07
2 -8 -2 0.71 0.1
-2 8 2 0.89 0.08
-2 8 2 0.78 0.1
1 -8 -2 0.8 0.08
1 -8 -2 0.78 0.1
-1 8 2 0.87 0.08
-1 8 2 0.66 0.08
0 -8 -2 0.34 0.06
0 -8 -2 0.28 0.06
0 8 2 0.29 0.05
0 8 2 0.3 0.06
-1 -8 -2 6.6 0.31
-1 -8 -2 5.95 0.3
1 8 2 6.03 0.28
-2 -8 -2 7.17 0.34
-2 -8 -2 7.25 0.36
2 8 2 7.2 0.32
-3 -8 -2 0.04 0.07
3 8 2 -0.04 0.05
-4 -8 -2 1.22 0.14
4 8 2 1.24 0.13
-5 -8 -2 0.14 0.08
5 8 2 0.07 0.07
3 -9 -2 0.1 0.08
-3 9 2 0.01 0.08
-3 9 2 -0.04 0.05
2 -9 -2 0.03 0.07
-2 9 2 0.04 0.07
-2 9 2 0.03 0.05
1 -9 -2 0.32 0.08
-1 9 2 0.25 0.06
0 -9 -2 0.05 0.05
0 -9 -2 0.06 0.06
0 9 2 0.06 0.05
-1 -9 -2 0.58 0.08
-1 -9 -2 0.47 0.09
1 9 2 0.58 0.07
-2 -9 -2 0.98 0.12
-2 -9 -2 0.9 0.09
2 9 2 1.03 0.11
-3 -9 -2 0.06 0.07
3 9 2 0.03 0.06
-4 -9 -2 -0.15 0.07
4 9 2 -0.05 0.07
3 -10 -2 0.1 0.09
2 -10 -2 0.09 0.07
-2 10 2 0 0.05
1 -10 -2 0.24 0.08
-1 10 2 0.22 0.06
0 -10 -2 0.51 0.08
0 -10 -2 0.51 0.08
0 10 2 0.49 0.07
-1 -10 -2 2.56 0.17
-1 -10 -2 2.52 0.18
1 10 2 2.57 0.16
-2 -10 -2 -0.04 0.07
-2 -10 -2 0 0.05
2 10 2 -0.07 0.06
-3 -10 -2 1.67 0.17
3 10 2 1.79 0.16
-4 -10 -2 0.21 0.1
4 10 2 0.1 0.08
2 -11 -2 0.22 0.09
1 -11 -2 0.05 0.08
-1 11 2 -0.04 0.05
0 -11 -2 0.25 0.08
0 11 2 0.12 0.06
-1 -11 -2 0 0.07
-1 -11 -2 0.07 0.06
1 11 2 0.01 0.06
-2 -11 -2 -0.01 0.07
2 11 2 0.01 0.07
-3 -11 -2 0.19 0.09
3 11 2 0.16 0.08
0 -12 -2 0.32 0.08
-1 -12 -2 0.03 0.07
-1 -12 -2 0 0.07
-1 -12 3 0.03 0.08
0 -12 3 0.18 0.09
-3 -11 3 0.16 0.07
2 11 -3 0.22 0.07
-2 -11 3 0.16 0.08
-2 -11 3 0.09 0.07
1 11 -3 1.34 0.12
-1 -11 3 1.33 0.14
-1 -11 3 1.53 0.15
0 11 -3 0.5 0.08
0 -11 3 0.5 0.1
-1 11 -3 0.05 0.06
1 -11 3 0.02 0.08
2 -11 3 0.07 0.09
3 10 -3 0.04 0.07
-3 -10 3 -0.01 0.07
-3 -10 3 0.02 0.06
2 10 -3 0.02 0.06
-2 -10 3 0.1 0.06
-2 -10 3 0.08 0.07
1 10 -3 0.39 0.07
-1 -10 3 0.4 0.08
-1 -10 3 0.39 0.08
0 10 -3 1.35 0.11
0 -10 3 1.14 0.13
-1 10 -3 0.01 0.05
1 -10 3 0.08 0.08
-2 10 -3 0.05 0.06
2 -10 3 0.04 0.08
3 -10 3 0.18 0.1
4 9 -3 0.6 0.09
-4 -9 3 0.45 0.08
-4 -9 3 0.47 0.1
3 9 -3 0.37 0.07
-3 -9 3 0.58 0.1
-3 -9 3 0.51 0.08
2 9 -3 3.77 0.2
-2 -9 3 3.45 0.21
-2 -9 3 3.77 0.22
1 9 -3 1.25 0.11
-1 -9 3 0.92 0.1
-1 -9 3 1.04 0.11
0 9 -3 1.93 0.12
0 -9 3 1.73 0.13
-1 9 -3 0.57 0.07
1 -9 3 0.67 0.09
-2 9 -3 0.08 0.06
2 -9 3 0.06 0.07
-3 9 -3 0.15 0.06
3 -9 3 0.11 0.08
5 8 -3 0.02 0.06
-5 -8 3 -0.06 0.08
4 8 -3 0.64 0.09
-4 -8 3 0.43 0.09
-4 -8 3 0.43 0.08
3 8 -3 0.21 0.07
-3 -8 3 0.37 0.07
-3 -8 3 0.25 0.07
2 8 -3 1.28 0.11
-2 -8 3 1.39 0.11
-2 -8 3 1.39 0.13
1 8 -3 0.06 0.05
-1 -8 3 -0.06 0.05
-1 -8 3 0.03 0.05
0 8 -3 1.38 0.1
0 -8 3 1.34 0.11
0 -8 3 1.37 0.12
-1 8 -3 0.1 0.04
1 -8 3 0.14 0.07
-2 8 -3 0.83 0.09
-2 8 -3 0.82 0.09
2 -8 3 0.58 0.09
-3 8 -3 0.74 0.11
-3 8 -3 0.72 0.08
3 -8 3 0.68 0.11
-4 8 -3 0.32 0.1
-4 8 -3 0.25 0.07
4 -8 3 0.28 0.09
5 7 -3 0.24 0.08
-5 -7 3 0.28 0.08
-5 -7 3 0.3 0.09
4 7 -3 0.69 0.09
-4 -7 3 0.57 0.08
-4 -7 3 0.6 0.09
3 7 -3 3.47 0.19
-3 -7 3 3.57 0.21
-3 -7 3 3.49 0.2
2 7 -3 4.97 0.23
-2 -7 3 4.79 0.25
-2 -7 3 5.14 0.25
1 7 -3 0.96 0.08
-1 -7 3 0.78 0.09
-1 -7 3 0.89 0.08
0 -7 3 8.18 0.36
0 -7 3 8.14 0.39
-1 7 -3 0.22 0.05
-1 7 -3 0.18 0.04
1 -7 3 0.14 0.04
1 -7 3 0.15 0.06
-2 7 -3 4.7 0.24
-2 7 -3 4.65 0.22
-3 7 -3 -0.04 0.04
-3 7 -3 -0.09 0.06
3 -7 3 0 0.06
-4 7 -3 0.04 0.05
-4 7 -3 0.03 0.08
4 -7 3 0.06 0.07
5 6 -3 0.49 0.08
-5 -6 3 0.43 0.09
-5 -6 3 0.46 0.08
4 6 -3 1.25 0.11
-4 -6 3 1.2 0.1
-4 -6 3 0.91 0.11
3 6 -3 2.32 0.13
-3 -6 3 2.36 0.14
-3 -6 3 2.05 0.15
2 6 -3 1.49 0.1
-2 -6 3 1.36 0.11
-2 -6 3 1.57 0.1
1 6 -3 0.14 0.04
-1 -6 3 0.05 0.04
-1 -6 3 0.15 0.04
0 6 -3 4.33 0.19
0 -6 3 4.09 0.2
0 -6 3 4.31 0.22
-1 6 -3 0.62 0.07
1 -6 3 0.66 0.06
-2 6 -3 0.17 0.05
2 -6 3 0.19 0.06
-3 6 -3 0.34 0.05
-3 6 -3 0.33 0.08
3 -6 3 0.41 0.08
-4 6 -3 0.04 0.05
-4 6 -3 0.1 0.08
4 -6 3 0.04 0.06
-5 6 -3 0.11 0.06
-5 6 -3 0.15 0.1
5 -6 3 0.08 0.09
-6 -5 3 0.17 0.09
5 5 -3 0.11 0.06
-5 -5 3 0.02 0.06
-5 -5 3 0.01 0.07
4 5 -3 0.39 0.06
-4 -5 3 0.41 0.07
-4 -5 3 0.34 0.08
3 5 -3 2.16 0.12
-3 -5 3 2.18 0.13
-3 -5 3 2.15 0.14
2 5 -3 5.28 0.23
-2 -5 3 5.45 0.26
1 5 -3 18.75 0.75
-1 -5 3 19.22 0.84
-1 -5 3 18.89 0.79
0 5 -3 8.5 0.35
0 5 -3 8.48 0.35
0 -5 3 8.68 0.35
0 -5 3 8.2 0.36
0 -5 3 8.24 0.39
-1 5 -3 2.13 0.1
-1 5 -3 1.68 0.11
1 -5 3 1.84 0.09
1 -5 3 1.65 0.12
-2 5 -3 -0.01 0.04
-2 5 -3 0.07 0.03
2 -5 3 0.03 0.05
-3 5 -3 0.17 0.06
-3 5 -3 0.17 0.04
3 -5 3 0.21 0.06
-4 5 -3 0.37 0.06
-4 5 -3 0.28 0.08
4 -5 3 0.33 0.08
-5 5 -3 0.16 0.06
-5 5 -3 0.21 0.1
5 -5 3 0.16 0.08
6 4 -3 0.54 0.09
-6 -4 3 0.53 0.1
-6 -4 3 0.57 0.1
5 4 -3 0.09 0.06
-5 -4 3 0.03 0.06
-5 -4 3 0.12 0.06
4 4 -3 4.78 0.23
-4 -4 3 5.21 0.26
-4 -4 3 5.16 0.26
-4 -4 3 4.99 0.24
3 4 -3 7.18 0.31
-3 -4 3 7.51 0.34
-3 -4 3 7.01 0.33
2 4 -3 2.7 0.14
-2 -4 3 2.78 0.15
-2 -4 3 2.91 0.13
1 4 -3 22.33 0.88
-1 -4 3 22.92 0.98
-1 -4 3 21.58 0.92
0 4 -3 0.27 0.03
0 4 -3 0.27 0.03
0 -4 3 0.21 0.02
0 -4 3 0.17 0.03
-1 4 -3 22.97 0.94
-1 4 -3 22 0.91
1 -4 3 22.97 1
1 -4 3 21.87 0.91
-2 4 -3 0.59 0.07
-2 4 -3 0.65 0.05
2 -4 3 0.6 0.07
-3 4 -3 0.1 0.05
-3 4 -3 0.25 0.04
3 -4 3 0.19 0.05
-4 4 -3 0.18 0.08
-4 4 -3 0.2 0.05
4 -4 3 0.25 0.07
-5 4 -3 0.58 0.1
-5 4 -3 0.64 0.08
5 -4 3 0.51 0.1
-6 -3 3 0.05 0.08
5 3 -3 0.05 0.05
-5 -3 3 0.02 0.06
-5 -3 3 -0.01 0.06
-5 -3 3 -0.01 0.06
-5 -3 3 0 0.05
4 3 -3 0.48 0.06
-4 -3 3 0.45 0.07
-4 -3 3 0.41 0.06
-4 -3 3 0.46 0.06
-4 -3 3 0.46 0.06
3 3 -3 0.59 0.06
-3 -3 3 0.56 0.07
-3 -3 3 0.63 0.06
-3 -3 3 0.65 0.07
2 3 -3 21.94 0.89
-2 -3 3 22.36 0.93
-2 -3 3 22.83 0.99
-2 -3 3 23.12 0.93
1 3 -3 22.99 0.91
-1 -3 3 23.16 0.95
-1 -3 3 23.62 0.95
0 3 -3 12.15 0.48
0 -3 3 12 0.5
0 -3 3 12.41 0.5
-1 3 -3 1.88 0.08
-1 3 -3 1.85 0.1
1 -3 3 1.86 0.1
-2 3 -3 0.91 0.07
-2 3 -3 0.97 0.06
2 -3 3 0.96 0.08
-3 3 -3 -0.03 0.03
-3 3 -3 -0.02 0.04
3 -3 3 -0.02 0.04
-4 3 -3 1.52 0.1
-4 3 -3 1.3 0.13
4 -3 3 1.36 0.12
-5 3 -3 0.15 0.06
-5 3 -3 0.12 0.08
5 -3 3 0.16 0.07
-6 3 -3 0.13 0.1
-6 3 -3 0.13 0.07
6 -3 3 0.08 0.07
6 2 -3 0.03 0.07
-6 -2 3 0.07 0.07
-6 -2 3 0.02 0.07
5 2 -3 1.16 0.11
-5 -2 3 1.13 0.13
-5 -2 3 0.95 0.1
-5 -2 3 0.95 0.11
-5 -2 3 1.13 0.1
-4 -2 3 0.24 0.06
-4 -2 3 0.29 0.05
-4 -2 3 0.22 0.05
-4 -2 3 0.17 0.05
-3 -2 3 1.89 0.12
-3 -2 3 1.79 0.11
-3 -2 3 1.85 0.12
-3 -2 3 1.82 0.1
2 2 -3 17.04 0.68
-2 -2 3 17.59 0.72
-2 -2 3 17.56 0.77
-2 -2 3 16.93 0.72
-1 -2 3 0.05 0.01
-1 -2 3 0.09 0.02
0 2 -3 0.25 0.02
0 2 -3 0.3 0.03
0 -2 3 0.28 0.03
0 -2 3 0.24 0.02
0 -2 3 0.24 0.02
-1 2 -3 9.03 0.37
-1 2 -3 8.93 0.39
1 -2 3 9.23 0.41
-2 2 -3 0.75 0.07
-2 2 -3 0.7 0.05
2 -2 3 0.62 0.06
-3 2 -3 0.13 0.03
-3 2 -3 0.03 0.03
3 -2 3 0.09 0.04
-4 2 -3 1.1 0.09
-4 2 -3 1.08 0.11
4 -2 3 1.07 0.1
-5 2 -3 0.45 0.09
-5 2 -3 0.68 0.08
5 -2 3 0.43 0.08
-6 2 -3 0 0.06
-6 2 -3 0.09 0.09
6 -2 3 0.11 0.07
6 1 -3 0.02 0.07
-6 -1 3 0.01 0.08
-6 -1 3 0.01 0.08
5 1 -3 1.08 0.09
5 1 -3 1.06 0.11
-5 -1 3 0.8 0.11
-5 -1 3 1.08 0.12
-5 -1 3 1.03 0.09
4 1 -3 0.67 0.07
-4 -1 3 0.67 0.08
-4 -1 3 0.69 0.08
-4 -1 3 0.75 0.06
-4 -1 3 0.59 0.07
3 1 -3 7.44 0.33
-3 -1 3 7.98 0.33
-3 -1 3 7.57 0.36
-3 -1 3 7.07 0.31
-3 -1 3 7.78 0.34
2 1 -3 48.44 2
-2 -1 3 50.35 2.15
-2 -1 3 49.22 1.91
1 1 -3 42.11 1.61
1 1 -3 42.63 1.69
-1 -1 3 42.03 1.71
-1 -1 3 40.27 1.69
0 1 -3 135.6 5.62
0 1 -3 147.03 5.72
0 -1 3 145.51 6.15
0 -1 3 138.88 5.95
-1 1 -3 0.03 0.01
-1 1 -3 0.02 0.02
1 -1 3 0.08 0.02
1 -1 3 0.04 0.02
-2 1 -3 4.19 0.21
-2 1 -3 4.52 0.19
-2 1 -3 4.74 0.19
2 -1 3 4.65 0.22
-3 1 -3 28.67 1.15
-3 1 -3 27.44 1.11
3 -1 3 28.48 1.24
-4 1 -3 4.38 0.2
-4 1 -3 4.1 0.22
4 -1 3 4.22 0.22
-5 1 -3 0.36 0.07
-5 1 -3 0.4 0.09
5 -1 3 0.46 0.08
-6 1 -3 0.03 0.08
-6 1 -3 0.05 0.06
6 -1 3 0.15 0.07
6 0 -3 0.22 0.08
-6 0 3 0.42 0.1
5 0 -3 0.72 0.1
-5 0 3 0.67 0.07
-5 0 3 0.75 0.11
-5 0 3 0.77 0.1
4 0 -3 1.06 0.08
4 0 -3 1.06 0.1
-4 0 3 1.33 0.11
-4 0 3 1.18 0.11
-4 0 3 1.06 0.08
3 0 -3 35.82 1.46
-3 0 3 36.08 1.58
-3 0 3 35.79 1.5
2 0 -3 4.93 0.21
-2 0 3 5.03 0.23
-2 0 3 3.96 0.22
-2 0 3 5.07 0.19
1 0 -3 34.53 1.4
-1 0 3 34.53 1.42
-1 0 3 34.67 1.33
0 0 -3 23.16 0.93
0 0 3 24.57 0.99
0 0 3 24.44 1.04
-1 0 -3 39.21 1.57
-1 0 -3 41.23 1.64
1 0 3 41.55 1.76
-2 0 -3 2.76 0.13
2 0 3 2.94 0.14
2 0 3 2.69 0.14
-3 0 -3 2.36 0.14
-3 0 -3 2.46 0.12
3 0 3 2.57 0.13
-4 0 -3 0.63 0.08
-4 0 -3 0.57 0.06
-4 0 -3 0.68 0.07
4 0 3 0.6 0.07
-5 0 -3 0.77 0.1
-5 0 -3 0.7 0.08
5 0 3 0.81 0.09
5 0 3 0.78 0.1
-6 0 -3 -0.04 0.08
-6 0 -3 0.04 0.07
6 0 3 0.21 0.08
6 -1 -3 1.23 0.15
-6 1 3 1.35 0.16
5 -1 -3 0.8 0.1
-5 1 3 0.7 0.11
4 -1 -3 1.13 0.07
4 -1 -3 1.2 0.11
-4 1 3 1.11 0.07
-4 1 3 1.2 0.11
-4 1 3 1.25 0.1
3 -1 -3 1.06 0.06
3 -1 -3 0.85 0.08
-3 1 3 0.66 0.06
-3 1 3 0.88 0.09
-3 1 3 0.8 0.09
2 -1 -3 1.06 0.06
-2 1 3 0.97 0.08
1 -1 -3 6.45 0.27
-1 1 3 6.63 0.3
-1 1 3 6.51 0.25
0 -1 -3 161.57 6.21
0 -1 -3 159.57 6.53
0 1 3 147.82 6.65
0 1 3 161.08 7
-1 -1 -3 3.71 0.15
-1 -1 -3 3.57 0.16
1 1 3 3.27 0.16
-2 -1 -3 77.68 3.54
2 1 3 93.49 3.59
2 1 3 91.84 3.79
-3 -1 -3 6.92 0.32
-3 -1 -3 7.04 0.29
-3 -1 -3 6.84 0.31
3 1 3 7.09 0.32
3 1 3 6.89 0.32
-4 -1 -3 0.54 0.06
-4 -1 -3 0.55 0.07
-4 -1 -3 0.67 0.07
4 1 3 0.59 0.06
4 1 3 0.43 0.07
-5 -1 -3 2.44 0.17
-5 -1 -3 2.11 0.14
5 1 3 2.15 0.15
5 1 3 2.24 0.17
-6 -1 -3 0.41 0.09
-6 -1 -3 0.42 0.08
6 1 3 0.54 0.09
6 -2 -3 0.43 0.11
-6 2 3 0.25 0.1
5 -2 -3 -0.02 0.07
-5 2 3 -0.05 0.06
4 -2 -3 0.47 0.08
-4 2 3 0.42 0.05
-4 2 3 0.55 0.09
3 -2 -3 0.72 0.08
3 -2 -3 0.7 0.05
-3 2 3 0.72 0.05
-3 2 3 0.48 0.07
2 -2 -3 50.58 2.1
-2 2 3 53.79 2.02
1 -2 -3 38.49 1.51
-1 2 3 36.79 1.54
-1 2 3 36.61 1.44
0 -2 -3 1.5 0.07
0 -2 -3 1.42 0.08
0 2 3 1.48 0.07
0 2 3 1.49 0.07
-1 -2 -3 2.13 0.1
-1 -2 -3 2.16 0.09
1 2 3 1.96 0.1
-2 -2 -3 0.93 0.05
-2 -2 -3 0.74 0.07
2 2 3 0.87 0.06
-3 -2 -3 -0.05 0.03
-3 -2 -3 0.01 0.03
-3 -2 -3 -0.02 0.02
3 2 3 -0.01 0.03
3 2 3 -0.01 0.02
-4 -2 -3 0.06 0.05
-4 -2 -3 0.13 0.04
-4 -2 -3 0.1 0.04
4 2 3 0.17 0.04
4 2 3 0 0.05
-5 -2 -3 4.18 0.22
-5 -2 -3 3.97 0.21
5 2 3 4.12 0.23
-6 -2 -3 0.85 0.1
6 2 3 1.02 0.12
6 -3 -3 0.2 0.09
5 -3 -3 0.09 0.08
-5 3 3 0.08 0.08
4 -3 -3 1.52 0.13
-4 3 3 1.23 0.13
-4 3 3 1.55 0.09
3 -3 -3 3.66 0.16
-3 3 3 3.67 0.16
2 -3 -3 20.86 0.85
-2 3 3 20.81 0.88
1 -3 -3 93.52 3.7
1 -3 -3 90.64 3.99
-1 3 3 89.77 3.56
-1 3 3 93.88 3.77
0 -3 -3 53.47 2.3
0 -3 -3 51.82 2.14
0 3 3 54.5 2.05
0 3 3 52.01 2.17
-1 -3 -3 53.85 2.09
-1 -3 -3 54.02 2.33
1 3 3 53.41 2.2
-2 -3 -3 2.42 0.11
-2 -3 -3 2.38 0.13
2 3 3 2.3 0.11
-3 -3 -3 0.01 0.02
-3 -3 -3 -0.04 0.03
-3 -3 -3 -0.01 0.03
3 3 3 -0.03 0.02
-4 -3 -3 3.63 0.2
-4 -3 -3 3.75 0.19
-4 -3 -3 3.7 0.18
4 3 3 3.64 0.19
-5 -3 -3 1.8 0.15
-5 -3 -3 2.06 0.14
5 3 3 1.93 0.14
-6 -3 -3 0.45 0.08
6 3 3 0.3 0.08
5 -4 -3 0.11 0.09
-5 4 3 0.24 0.08
4 -4 -3 1.03 0.12
-4 4 3 0.93 0.11
-4 4 3 1.09 0.08
3 -4 -3 0.11 0.05
-3 4 3 0.09 0.06
2 -4 -3 137.29 5.39
2 -4 -3 124.85 5.81
-2 4 3 138.54 5.49
-2 4 3 134.98 5.17
1 -4 -3 54.01 2.26
1 -4 -3 54.66 2.09
-1 4 3 53.32 2.13
-1 4 3 45.06 2
0 -4 -3 38.06 1.5
0 4 3 38.66 1.52
0 4 3 34.01 1.44
-1 -4 -3 0.29 0.03
-1 -4 -3 0.19 0.04
1 4 3 0.32 0.03
1 4 3 0.2 0.03
-2 -4 -3 27.46 1.15
-2 -4 -3 25.79 1.1
2 4 3 26.15 1.09
-3 -4 -3 7.59 0.36
-3 -4 -3 8.38 0.33
-3 -4 -3 7.05 0.35
3 4 3 8.08 0.34
-4 -4 -3 0.07 0.04
-4 -4 -3 0.05 0.05
-4 -4 -3 -0.07 0.06
4 4 3 0.05 0.05
-5 -4 -3 1.79 0.14
-5 -4 -3 2.04 0.16
5 4 3 1.91 0.13
-6 -4 -3 0.35 0.08
6 4 3 0.37 0.07
5 -5 -3 0.15 0.09
-5 5 3 0.27 0.11
4 -5 -3 0.12 0.08
-4 5 3 0.13 0.07
-4 5 3 0.1 0.04
2 -5 -3 8.19 0.39
2 -5 -3 7.91 0.34
-2 5 3 7.76 0.37
-2 5 3 7.97 0.33
1 -5 -3 1.55 0.09
1 -5 -3 1.26 0.1
-1 5 3 1.07 0.07
-1 5 3 1.27 0.09
0 -5 -3 32.77 1.36
0 -5 -3 33.58 1.46
0 5 3 33.09 1.38
0 5 3 33.69 1.3
-1 -5 -3 0.49 0.06
1 5 3 0.52 0.06
1 5 3 0.58 0.05
-2 -5 -3 2.16 0.11
2 5 3 2.4 0.11
-3 -5 -3 2.07 0.14
-3 -5 -3 1.82 0.12
3 5 3 2.04 0.12
3 5 3 2.18 0.11
-4 -5 -3 6.31 0.33
-4 -5 -3 6.75 0.3
4 5 3 6.87 0.31
4 5 3 6.17 0.3
-5 -5 -3 2.02 0.15
-5 -5 -3 1.83 0.16
5 5 3 1.9 0.13
-6 -5 -3 0.06 0.07
-6 -5 -3 0.21 0.08
6 5 3 0.04 0.08
5 -6 -3 0.35 0.1
-5 6 3 0.12 0.11
4 -6 -3 0.36 0.1
-4 6 3 0.38 0.1
-4 6 3 0.41 0.06
3 -6 -3 17.33 0.8
-3 6 3 16.84 0.69
-3 6 3 17.19 0.76
2 -6 -3 8.32 0.37
2 -6 -3 8.3 0.42
-2 6 3 8.75 0.35
-2 6 3 8.47 0.39
1 -6 -3 5.73 0.26
1 -6 -3 5.7 0.29
-1 6 3 5.89 0.25
-1 6 3 5.64 0.27
0 -6 -3 2.65 0.15
0 -6 -3 2.68 0.15
0 6 3 2.68 0.13
0 6 3 2.6 0.14
-1 -6 -3 10.95 0.48
-1 -6 -3 10.94 0.5
1 6 3 11.12 0.45
1 6 3 10.95 0.47
-2 -6 -3 6.34 0.29
2 6 3 6.27 0.27
-3 -6 -3 3.39 0.17
-3 -6 -3 3.03 0.2
3 6 3 3.38 0.16
3 6 3 3.27 0.17
-4 -6 -3 1.34 0.14
4 6 3 1.22 0.12
-5 -6 -3 0.71 0.1
-5 -6 -3 0.69 0.11
5 6 3 0.75 0.1
4 -7 -3 1.15 0.14
-4 7 3 0.87 0.13
3 -7 -3 6.25 0.34
-3 7 3 6.09 0.33
-3 7 3 6.25 0.28
2 -7 -3 0.2 0.07
-2 7 3 0.22 0.05
-2 7 3 0.33 0.07
1 -7 -3 0.94 0.09
1 -7 -3 0.99 0.1
-1 7 3 1.04 0.08
-1 7 3 0.87 0.09
0 -7 -3 2.39 0.15
0 -7 -3 2.56 0.15
0 7 3 2.33 0.13
0 7 3 2.46 0.13
-1 -7 -3 1.85 0.12
-1 -7 -3 1.59 0.1
1 7 3 1.61 0.11
1 7 3 1.6 0.09
-2 -7 -3 0.93 0.07
-2 -7 -3 1 0.1
2 7 3 0.92 0.09
2 7 3 0.85 0.06
-3 -7 -3 10.53 0.48
3 7 3 10.18 0.45
-4 -7 -3 1.62 0.16
4 7 3 1.95 0.15
-5 -7 -3 0.26 0.09
5 7 3 0.13 0.08
4 -8 -3 0.59 0.12
-4 8 3 0.74 0.13
3 -8 -3 0.2 0.08
-3 8 3 0.15 0.05
-3 8 3 0.04 0.08
2 -8 -3 1.4 0.14
-2 8 3 1.5 0.13
-2 8 3 1.45 0.1
1 -8 -3 1.03 0.11
1 -8 -3 0.96 0.1
-1 8 3 1.05 0.11
-1 8 3 1.08 0.09
0 -8 -3 1.24 0.11
0 -8 -3 1.41 0.11
0 8 3 1.17 0.1
0 8 3 1.37 0.1
-1 -8 -3 2.37 0.14
-1 -8 -3 2.08 0.15
1 8 3 2.39 0.14
-2 -8 -3 6.41 0.3
-2 -8 -3 6.4 0.32
2 8 3 5.8 0.29
-3 -8 -3 0.07 0.07
3 8 3 0 0.06
-4 -8 -3 0.46 0.11
4 8 3 0.64 0.1
-5 -8 -3 0.05 0.08
5 8 3 0.07 0.08
3 -9 -3 0.13 0.09
-3 9 3 0.04 0.08
-3 9 3 0.01 0.05
2 -9 -3 0.05 0.07
-2 9 3 -0.05 0.06
-2 9 3 0.04 0.05
1 -9 -3 0.33 0.08
-1 9 3 0.41 0.07
-1 9 3 0.43 0.06
0 -9 -3 0.6 0.08
0 -9 -3 0.65 0.08
0 9 3 0.59 0.07
-1 -9 -3 0.36 0.08
-1 -9 -3 0.37 0.06
1 9 3 0.28 0.06
-2 -9 -3 3.25 0.21
-2 -9 -3 2.94 0.17
2 9 3 2.9 0.18
-3 -9 -3 0.12 0.08
3 9 3 0.16 0.07
-4 -9 -3 0.06 0.08
4 9 3 -0.01 0.07
3 -10 -3 0.13 0.09
2 -10 -3 0.09 0.08
-2 10 3 -0.01 0.05
1 -10 -3 0.15 0.08
-1 10 3 0.13 0.05
0 -10 -3 0.66 0.09
0 -10 -3 0.73 0.09
0 10 3 0.68 0.08
-1 -10 -3 3.19 0.19
-1 -10 -3 3.25 0.21
1 10 3 3.36 0.19
-2 -10 -3 0.04 0.08
2 10 3 0.11 0.06
-3 -10 -3 1.2 0.15
3 10 3 1.29 0.13
-4 -10 -3 0.17 0.09
4 10 3 0.06 0.08
2 -11 -3 0.06 0.09
1 -11 -3 -0.05 0.06
-1 11 3 0.05 0.06
0 -11 -3 0.13 0.06
0 11 3 0.05 0.06
-1 -11 -3 0.21 0.07
-1 -11 -3 0.19 0.08
1 11 3 0.19 0.07
-2 -11 -3 0.07 0.08
2 11 3 0.1 0.07
-3 -11 -3 0.07 0.09
3 11 3 -0.09 0.07
0 -12 -3 0.45 0.09
2 11 -4 0.12 0.07
-2 -11 4 0.27 0.09
-2 -11 4 0 0.06
1 11 -4 0.59 0.08
-1 -11 4 0.39 0.09
-1 -11 4 0.97 0.11
0 11 -4 0.6 0.08
0 -11 4 0.4 0.1
-1 11 -4 0.21 0.07
1 -11 4 0.19 0.09
3 10 -4 0.08 0.06
-3 -10 4 0.04 0.06
-3 -10 4 0.15 0.08
2 10 -4 0.01 0.06
-2 -10 4 -0.03 0.07
-2 -10 4 0.01 0.06
1 10 -4 0.5 0.08
-1 -10 4 0.47 0.09
-1 -10 4 0.4 0.09
0 10 -4 0.1 0.06
0 -10 4 -0.02 0.06
-1 10 -4 0.02 0.05
1 -10 4 -0.03 0.08
-2 10 -4 0.13 0.06
2 -10 4 0.09 0.08
3 -10 4 -0.03 0.08
4 9 -4 0.4 0.08
-4 -9 4 0.22 0.07
-4 -9 4 0.4 0.1
3 9 -4 0.06 0.06
-3 -9 4 0.07 0.05
-3 -9 4 0.07 0.07
2 9 -4 4.64 0.23
-2 -9 4 4.67 0.26
-2 -9 4 4.53 0.25
1 9 -4 0.54 0.07
-1 -9 4 0.36 0.08
-1 -9 4 0.35 0.08
0 9 -4 0.12 0.05
0 -9 4 -0.05 0.05
0 -9 4 -0.08 0.05
-1 9 -4 0.12 0.05
1 -9 4 0.13 0.06
-2 9 -4 0.21 0.06
2 -9 4 0.09 0.07
-3 9 -4 -0.04 0.06
3 -9 4 0.08 0.08
-5 -8 4 0.03 0.08
-5 -8 4 0.03 0.07
4 8 -4 -0.04 0.06
-4 -8 4 0 0.05
-4 -8 4 0.06 0.07
3 8 -4 -0.04 0.06
-3 -8 4 0.06 0.07
-3 -8 4 0.04 0.05
2 8 -4 0.39 0.07
-2 -8 4 0.25 0.08
-2 -8 4 0.4 0.07
1 8 -4 1.8 0.11
-1 -8 4 1.43 0.12
-1 -8 4 1.65 0.13
0 8 -4 0.11 0.05
0 -8 4 0.01 0.05
0 -8 4 0.06 0.05
-1 8 -4 0.42 0.06
1 -8 4 0.36 0.07
-2 8 -4 0.01 0.05
-2 8 -4 0.04 0.05
2 -8 4 -0.01 0.06
-3 8 -4 1.02 0.1
-3 8 -4 0.92 0.11
-4 8 -4 0.46 0.1
-4 8 -4 0.39 0.08
4 -8 4 0.63 0.12
5 7 -4 0.79 0.1
-5 -7 4 0.64 0.09
-5 -7 4 0.85 0.12
4 7 -4 1.33 0.12
-4 -7 4 1.13 0.11
-4 -7 4 1.03 0.12
3 7 -4 5.59 0.26
-3 -7 4 5.23 0.28
-3 -7 4 5.43 0.28
2 7 -4 2.43 0.14
-2 -7 4 2.61 0.15
-2 -7 4 2.47 0.16
1 7 -4 7.01 0.29
-1 -7 4 6.02 0.32
-1 -7 4 6.82 0.31
0 7 -4 2.8 0.14
0 -7 4 2.88 0.16
0 -7 4 2.75 0.15
-1 7 -4 0.59 0.06
-1 7 -4 0.53 0.06
-1 7 -4 0.55 0.06
1 -7 4 0.52 0.07
1 -7 4 0.49 0.05
-2 7 -4 2.16 0.12
-2 7 -4 2.1 0.14
2 -7 4 1.99 0.16
-3 7 -4 0 0.05
-3 7 -4 0.01 0.06
3 -7 4 0.01 0.06
-4 7 -4 0.04 0.06
-4 7 -4 0 0.08
4 -7 4 0.03 0.07
5 6 -4 0.2 0.07
-5 -6 4 0.21 0.08
-5 -6 4 0.2 0.07
4 6 -4 0.16 0.06
-4 -6 4 0.13 0.06
-4 -6 4 0.07 0.07
3 6 -4 2.88 0.16
-3 -6 4 2.74 0.16
-3 -6 4 2.89 0.17
2 6 -4 1.85 0.11
-2 -6 4 1.92 0.13
-2 -6 4 2.02 0.12
1 6 -4 6.81 0.29
-1 -6 4 6.89 0.31
-1 -6 4 6.89 0.33
0 6 -4 0.15 0.04
0 -6 4 0.28 0.04
0 -6 4 0.21 0.03
-1 6 -4 1.56 0.08
-2 6 -4 1.66 0.11
-2 6 -4 1.65 0.1
2 -6 4 1.22 0.11
-3 6 -4 1.33 0.09
-3 6 -4 1.02 0.12
3 -6 4 1.03 0.12
-4 6 -4 0 0.05
-4 6 -4 0.09 0.08
4 -6 4 0.06 0.07
-5 6 -4 0.14 0.09
-5 6 -4 0.12 0.06
5 -6 4 0.11 0.07
5 5 -4 0.98 0.1
-5 -5 4 0.67 0.11
-5 -5 4 0.74 0.1
4 5 -4 1.74 0.12
-4 -5 4 1.83 0.15
-4 -5 4 1.86 0.13
3 5 -4 1.51 0.1
-3 -5 4 1.55 0.1
-3 -5 4 1.57 0.12
2 5 -4 0.51 0.05
-2 -5 4 0.3 0.05
-2 -5 4 0.59 0.06
1 5 -4 28.07 1.11
-1 -5 4 28.53 1.24
-1 -5 4 27.93 1.16
0 5 -4 2.75 0.13
0 -5 4 2.81 0.14
0 -5 4 2.32 0.14
0 -5 4 2.98 0.12
-1 5 -4 40.58 1.73
-1 5 -4 44.02 1.77
1 -5 4 43.82 1.88
-2 5 -4 1.05 0.09
-2 5 -4 0.93 0.07
2 -5 4 1.04 0.09
-3 5 -4 0.01 0.05
-3 5 -4 0.02 0.04
3 -5 4 -0.02 0.05
-4 5 -4 0.28 0.08
-4 5 -4 0.4 0.06
4 -5 4 0.23 0.08
-5 5 -4 0.14 0.06
-5 5 -4 0.1 0.09
5 -5 4 0.12 0.08
6 4 -4 0.21 0.07
-6 -4 4 0.24 0.09
-6 -4 4 0.23 0.09
5 4 -4 0.72 0.08
5 4 -4 0.73 0.1
-5 -4 4 0.88 0.1
-5 -4 4 0.91 0.1
4 4 -4 3.94 0.19
-4 -4 4 4.02 0.21
-4 -4 4 3.72 0.2
-4 -4 4 3.81 0.21
3 4 -4 0.8 0.07
-3 -4 4 0.78 0.09
-3 -4 4 0.8 0.07
2 4 -4 1.89 0.1
-2 -4 4 2.03 0.09
-2 -4 4 1.98 0.11
1 4 -4 18.48 0.74
-1 -4 4 19.18 0.84
-1 -4 4 19 0.78
0 4 -4 8.64 0.35
0 -4 4 8.48 0.36
0 -4 4 8.65 0.36
-1 4 -4 8.78 0.37
-1 4 -4 8.97 0.39
-1 4 -4 8.93 0.37
1 -4 4 9.45 0.42
-2 4 -4 7.09 0.3
-2 4 -4 5.66 0.27
2 -4 4 6.97 0.32
-3 4 -4 0.29 0.04
-3 4 -4 0.33 0.07
3 -4 4 0.27 0.06
-4 4 -4 0.93 0.11
-4 4 -4 0.87 0.08
4 -4 4 0.89 0.1
-5 4 -4 0.19 0.06
-5 4 -4 0.24 0.1
5 -4 4 0.28 0.08
6 3 -4 0.06 0.06
-6 -3 4 -0.02 0.07
5 3 -4 0.19 0.06
5 3 -4 0.08 0.06
-5 -3 4 0.14 0.07
-5 -3 4 0.11 0.05
-5 -3 4 0.13 0.07
-5 -3 4 0.3 0.07
4 3 -4 1.76 0.1
-4 -3 4 1.8 0.12
-4 -3 4 1.65 0.12
-4 -3 4 1.61 0.11
3 3 -4 5.48 0.24
-3 -3 4 5.21 0.27
-3 -3 4 5.6 0.25
-3 -3 4 5.82 0.26
2 3 -4 3.99 0.18
-2 -3 4 4.18 0.18
-2 -3 4 4.17 0.2
-2 -3 4 3.9 0.2
1 3 -4 8.29 0.34
-1 -3 4 8.43 0.35
-1 -3 4 8.8 0.36
0 3 -4 12.01 0.58
0 3 -4 14.13 0.56
0 -3 4 14.68 0.58
0 -3 4 14.64 0.58
0 -3 4 15.14 0.63
-1 3 -4 2.74 0.14
-1 3 -4 2.75 0.13
-1 3 -4 2.89 0.12
1 -3 4 2.97 0.15
-2 3 -4 0.2 0.05
-2 3 -4 0.22 0.03
2 -3 4 0.25 0.04
-3 3 -4 0.72 0.06
-3 3 -4 0.8 0.09
3 -3 4 0.86 0.08
-4 3 -4 1.03 0.11
-4 3 -4 0.84 0.08
4 -3 4 0.86 0.1
-5 3 -4 -0.04 0.05
-5 3 -4 -0.02 0.06
5 -3 4 -0.01 0.07
6 2 -4 0.02 0.08
-6 -2 4 0.12 0.08
-6 -2 4 0.08 0.08
5 2 -4 1.56 0.12
-5 -2 4 1.44 0.13
-5 -2 4 1.56 0.14
4 2 -4 0.43 0.06
-4 -2 4 0.37 0.06
-4 -2 4 0.51 0.07
-4 -2 4 0.37 0.06
-4 -2 4 0.43 0.05
3 2 -4 3.63 0.18
3 2 -4 3.86 0.17
-3 -2 4 3.58 0.17
-3 -2 4 3.61 0.19
-3 -2 4 4.06 0.19
-3 -2 4 3.85 0.19
2 2 -4 58.45 2.37
2 2 -4 57.28 2.27
-2 -2 4 59.62 2.37
-2 -2 4 59.06 2.4
-2 -2 4 58.22 2.55
-1 -2 4 1.58 0.08
0 2 -4 35.3 1.46
0 2 -4 38.27 1.53
0 -2 4 37.71 1.54
0 -2 4 39.75 1.64
-1 2 -4 1.77 0.08
-1 2 -4 1.75 0.08
1 -2 4 1.74 0.1
-2 2 -4 3.89 0.18
-2 2 -4 3.84 0.16
-2 2 -4 3.47 0.16
2 -2 4 3.75 0.19
-3 2 -4 2.96 0.13
-3 2 -4 2.54 0.16
-3 2 -4 2.84 0.14
3 -2 4 2.88 0.16
-4 2 -4 3.69 0.18
-4 2 -4 3.79 0.21
4 -2 4 3.64 0.2
-5 2 -4 -0.05 0.05
-5 2 -4 0.06 0.07
5 -2 4 0 0.06
5 -2 4 0.03 0.06
-6 2 -4 0.61 0.12
-6 2 -4 0.75 0.1
6 -2 4 0.78 0.12
6 1 -4 -0.02 0.08
-6 -1 4 0 0.08
-6 -1 4 0.13 0.08
5 1 -4 1.21 0.1
-5 -1 4 1.08 0.12
-5 -1 4 1.02 0.12
4 1 -4 -0.01 0.03
-4 -1 4 -0.03 0.05
-4 -1 4 0.03 0.03
-4 -1 4 -0.02 0.04
3 1 -4 0.97 0.07
-3 -1 4 0.77 0.08
-3 -1 4 0.74 0.08
2 1 -4 15.61 0.61
2 1 -4 15.77 0.65
-2 -1 4 15.23 0.61
-2 -1 4 16.25 0.7
1 1 -4 13.73 0.51
1 1 -4 11.28 0.53
-1 -1 4 13.98 0.54
0 1 -4 0.48 0.03
0 1 -4 0.45 0.03
0 -1 4 0.45 0.03
0 -1 4 0.47 0.03
-1 1 -4 0.46 0.03
-1 1 -4 0.42 0.03
1 -1 4 0.37 0.04
1 -1 4 0.37 0.03
-2 1 -4 2.28 0.12
-2 1 -4 2.32 0.11
2 -1 4 2.39 0.12
2 -1 4 2.06 0.12
-3 1 -4 12.56 0.53
-3 1 -4 12.62 0.51
3 -1 4 13.13 0.58
-4 1 -4 2.11 0.12
-4 1 -4 2.18 0.14
4 -1 4 2.18 0.14
4 -1 4 2.15 0.14
-5 1 -4 1.7 0.15
-5 1 -4 1.42 0.12
5 -1 4 1.57 0.14
5 -1 4 1.46 0.12
-6 1 -4 0.26 0.1
-6 1 -4 0.27 0.07
6 -1 4 0.4 0.1
6 0 -4 0.17 0.09
-6 0 4 0.08 0.09
5 0 -4 -0.03 0.06
-5 0 4 -0.15 0.06
-5 0 4 -0.05 0.06
4 0 -4 0.56 0.06
-4 0 4 0.63 0.06
-4 0 4 0.5 0.08
-4 0 4 0.69 0.08
3 0 -4 23.6 0.97
-3 0 4 24.59 1.06
-3 0 4 23.07 1
2 0 -4 0.88 0.05
-2 0 4 0.88 0.04
-2 0 4 0.68 0.06
-2 0 4 0.9 0.07
1 0 -4 5.45 0.23
-1 0 4 5.48 0.25
-1 0 4 5.61 0.24
0 0 -4 0.42 0.03
0 0 -4 0.37 0.02
0 0 4 0.41 0.03
0 0 4 0.4 0.03
-1 0 -4 1.38 0.06
-1 0 -4 1.33 0.07
1 0 4 1.41 0.07
-2 0 -4 0.58 0.05
2 0 4 0.47 0.05
2 0 4 0.64 0.04
-3 0 -4 0.03 0.02
-3 0 -4 0.06 0.03
-3 0 -4 -0.07 0.04
3 0 4 0.06 0.03
3 0 4 0.01 0.04
-4 0 -4 4.72 0.22
-4 0 -4 4.4 0.24
-4 0 -4 4.88 0.22
4 0 4 4.85 0.24
4 0 4 4.75 0.24
-5 0 -4 1.12 0.12
-5 0 -4 0.98 0.1
5 0 4 1.06 0.12
-6 0 -4 -0.02 0.08
-6 0 -4 0.15 0.07
6 0 4 0.16 0.08
6 -1 -4 0.55 0.11
-6 1 4 0.39 0.11
5 -1 -4 0.55 0.09
-5 1 4 0.28 0.08
4 -1 -4 -0.01 0.03
4 -1 -4 0.03 0.05
-4 1 4 0.03 0.06
-4 1 4 0.05 0.06
-4 1 4 0.02 0.03
3 -1 -4 5.19 0.22
-3 1 4 5.15 0.26
-3 1 4 4.67 0.25
2 -1 -4 0.12 0.02
-2 1 4 0.07 0.03
-2 1 4 0.08 0.02
1 -1 -4 6 0.25
-1 1 4 6.17 0.28
-1 1 4 6 0.24
0 -1 -4 87.61 4.16
0 -1 -4 112.43 3.99
0 1 4 109.58 4.47
-1 -1 -4 32.75 1.27
-1 -1 -4 32.58 1.32
1 1 4 32.35 1.34
2 1 4 24.29 0.96
2 1 4 19.88 0.92
-3 -1 -4 5.01 0.22
-3 -1 -4 5.02 0.23
3 1 4 5 0.24
3 1 4 5.09 0.24
-4 -1 -4 0.08 0.04
-4 -1 -4 0.1 0.04
4 1 4 -0.02 0.04
4 1 4 0.02 0.04
-5 -1 -4 0.44 0.07
5 1 4 0.49 0.09
-6 -1 -4 0.45 0.08
6 1 4 0.44 0.09
6 -2 -4 -0.03 0.09
-6 2 4 0.03 0.09
5 -2 -4 0.37 0.09
-5 2 4 0.23 0.09
4 -2 -4 1.72 0.14
-4 2 4 1.69 0.09
-4 2 4 1.36 0.13
3 -2 -4 1.23 0.1
-3 2 4 1.7 0.08
-3 2 4 1.24 0.1
-3 2 4 1.88 0.12
2 -2 -4 0.73 0.05
2 -2 -4 0.56 0.07
-2 2 4 0.7 0.07
-2 2 4 0.79 0.04
1 -2 -4 5.22 0.22
-1 2 4 5.18 0.24
-1 2 4 5.19 0.21
0 -2 -4 0.09 0.02
0 -2 -4 0.13 0.02
0 2 4 0.13 0.02
0 2 4 0.1 0.02
-1 -2 -4 0.56 0.04
1 2 4 0.61 0.04
-2 -2 -4 0.01 0.03
-2 -2 -4 0.06 0.03
2 2 4 0.05 0.01
2 2 4 0 0.03
-3 -2 -4 0.22 0.04
-3 -2 -4 0.18 0.04
3 2 4 0.12 0.04
3 2 4 0.18 0.03
-4 -2 -4 1.79 0.13
-4 -2 -4 1.92 0.12
4 2 4 1.84 0.13
4 2 4 1.65 0.11
-5 -2 -4 0.37 0.07
-5 -2 -4 0.19 0.07
5 2 4 0.36 0.07
-6 -2 -4 0.1 0.07
6 2 4 0.16 0.07
6 -3 -4 0.75 0.13
5 -3 -4 0.07 0.07
-5 3 4 -0.1 0.07
4 -3 -4 0.02 0.06
-4 3 4 -0.04 0.05
-4 3 4 -0.02 0.03
3 -3 -4 0.21 0.03
2 -3 -4 2.29 0.1
2 -3 -4 1.86 0.13
-2 3 4 2.26 0.13
1 -3 -4 10.33 0.43
1 -3 -4 10.57 0.47
-1 3 4 10.31 0.45
-1 3 4 10.22 0.41
0 -3 -4 29.33 1.26
0 -3 -4 28.1 1.18
0 3 4 28.87 1.13
0 3 4 29.27 1.19
-1 -3 -4 24.7 0.93
-1 -3 -4 24.8 1.02
1 3 4 24.09 0.97
1 3 4 20.69 0.92
-2 -3 -4 6.83 0.28
-2 -3 -4 6.69 0.29
-2 -3 -4 6.51 0.3
2 3 4 6.44 0.29
-3 -3 -4 3.12 0.15
-3 -3 -4 3.36 0.17
3 3 4 3.27 0.16
-4 -3 -4 2.43 0.14
-4 -3 -4 2.26 0.15
4 3 4 2.32 0.14
-5 -3 -4 1.71 0.13
-5 -3 -4 1.34 0.14
5 3 4 1.73 0.13
-6 -3 -4 0.32 0.08
6 3 4 0.25 0.07
5 -4 -4 0.19 0.08
-5 4 4 0.15 0.08
4 -4 -4 0.29 0.08
-4 4 4 0.34 0.05
-4 4 4 0.22 0.08
3 -4 -4 0.15 0.06
-3 4 4 0.35 0.04
-3 4 4 0.21 0.06
2 -4 -4 3.45 0.2
2 -4 -4 3.67 0.16
-2 4 4 3.19 0.19
-2 4 4 3.59 0.15
1 -4 -4 5.07 0.23
1 -4 -4 5.25 0.25
-1 4 4 5.06 0.24
0 -4 -4 4.43 0.2
0 4 4 3.87 0.19
0 4 4 4.86 0.2
-1 -4 -4 7.89 0.35
-1 -4 -4 8.05 0.35
1 4 4 8.01 0.33
1 4 4 7.82 0.34
-2 -4 -4 1.15 0.1
-2 -4 -4 1.24 0.07
-2 -4 -4 1.11 0.08
2 4 4 1.31 0.07
2 4 4 1.3 0.08
-3 -4 -4 0.01 0.01
-3 -4 -4 0.01 0.04
-3 -4 -4 0.06 0.02
3 4 4 0 0.03
-4 -4 -4 11.52 0.5
-4 -4 -4 10.78 0.47
4 4 4 10.82 0.48
-5 -4 -4 2.06 0.15
-5 -4 -4 2.04 0.17
5 4 4 2.06 0.14
-6 -4 -4 0.08 0.07
6 4 4 0.07 0.06
5 -5 -4 0.11 0.09
-5 5 4 0.08 0.1
4 -5 -4 0.23 0.08
-4 5 4 0.26 0.09
3 -5 -4 5.22 0.29
-3 5 4 5.27 0.28
-3 5 4 5.42 0.23
2 -5 -4 0.4 0.07
2 -5 -4 0.42 0.05
-2 5 4 0.42 0.04
-2 5 4 0.45 0.07
1 -5 -4 5.76 0.28
1 -5 -4 5.95 0.26
-1 5 4 5.51 0.27
-1 5 4 5.51 0.24
0 -5 -4 6.12 0.29
0 -5 -4 6.61 0.31
0 5 4 6.65 0.27
0 5 4 6.59 0.29
-1 -5 -4 4.86 0.24
1 5 4 4.98 0.22
1 5 4 5.15 0.22
-2 -5 -4 0.57 0.04
2 5 4 0.54 0.06
2 5 4 0.63 0.05
-3 -5 -4 2.46 0.16
-3 -5 -4 2.62 0.13
3 5 4 2.42 0.13
-4 -5 -4 3.57 0.19
-4 -5 -4 3.5 0.21
4 5 4 3.29 0.18
-5 -5 -4 1.05 0.11
-5 -5 -4 1.07 0.12
5 5 4 0.88 0.1
-6 -5 -4 0.43 0.09
-6 -5 -4 0.18 0.07
5 -6 -4 0.25 0.11
-5 6 4 0.24 0.11
-4 6 4 0.33 0.09
3 -6 -4 17.7 0.83
-3 6 4 17.79 0.79
-3 6 4 17.82 0.71
2 -6 -4 16.84 0.71
2 -6 -4 17.22 0.79
-2 6 4 16.56 0.74
-2 6 4 17.66 0.68
1 -6 -4 7.33 0.32
1 -6 -4 7.33 0.35
-1 6 4 7.18 0.3
-1 6 4 7.21 0.33
0 -6 -4 0.99 0.08
0 -6 -4 0.94 0.08
0 6 4 0.88 0.07
0 6 4 0.97 0.07
-1 -6 -4 4.77 0.24
-1 -6 -4 4.64 0.23
1 6 4 4.88 0.22
1 6 4 4.8 0.22
2 6 4 1.54 0.08
2 6 4 1.4 0.1
-3 -6 -4 0.12 0.06
3 6 4 0.17 0.06
3 6 4 0.16 0.03
-4 -6 -4 3 0.18
-4 -6 -4 3.14 0.2
4 6 4 2.9 0.16
4 6 4 3.05 0.18
-5 -6 -4 0.47 0.1
-5 -6 -4 0.7 0.1
5 6 4 0.45 0.09
4 -7 -4 0.13 0.09
-4 7 4 0.14 0.1
3 -7 -4 2.71 0.21
-3 7 4 3.54 0.22
-3 7 4 3.38 0.16
2 -7 -4 0.6 0.09
-2 7 4 0.54 0.08
-2 7 4 0.5 0.06
1 -7 -4 7.74 0.35
1 -7 -4 7.13 0.37
-1 7 4 7.84 0.32
-1 7 4 7.68 0.35
0 -7 -4 1.73 0.11
0 -7 -4 1.68 0.12
0 7 4 1.63 0.11
0 7 4 1.6 0.1
-1 -7 -4 0.39 0.05
-1 -7 -4 0.48 0.07
1 7 4 0.45 0.05
1 7 4 0.45 0.06
-2 -7 -4 0.32 0.07
-2 -7 -4 0.42 0.05
2 7 4 0.43 0.05
2 7 4 0.34 0.06
-3 -7 -4 8.26 0.4
3 7 4 8.04 0.36
-4 -7 -4 2.1 0.18
4 7 4 1.95 0.15
-5 -7 -4 0.16 0.09
5 7 4 0.05 0.07
4 -8 -4 2.2 0.21
-4 8 4 2.49 0.21
3 -8 -4 0.91 0.13
-3 8 4 1.03 0.1
-3 8 4 1.07 0.13
2 -8 -4 0.42 0.08
-2 8 4 0.38 0.08
-2 8 4 0.34 0.06
1 -8 -4 0.91 0.09
1 -8 -4 0.86 0.1
-1 8 4 0.98 0.09
-1 8 4 0.88 0.1
0 -8 -4 2.8 0.17
0 -8 -4 2.95 0.17
0 8 4 2.69 0.15
0 8 4 2.72 0.15
-1 -8 -4 1.24 0.12
-1 -8 -4 1.32 0.1
1 8 4 1.24 0.09
1 8 4 1.4 0.1
-2 -8 -4 3.33 0.21
-2 -8 -4 3.4 0.18
2 8 4 3.29 0.18
-3 -8 -4 0.87 0.11
3 8 4 0.6 0.09
-4 -8 -4 0.78 0.13
4 8 4 0.9 0.11
-5 -8 -4 0.23 0.09
5 8 4 0.23 0.08
3 -9 -4 0.11 0.09
-3 9 4 -0.03 0.08
-3 9 4 -0.06 0.05
2 -9 -4 0.75 0.11
-2 9 4 0.62 0.1
-2 9 4 0.86 0.09
-1 9 4 0.42 0.06
-1 9 4 0.36 0.07
0 -9 -4 0.28 0.07
0 -9 -4 0.26 0.07
0 9 4 0.26 0.06
-1 -9 -4 0.19 0.05
-1 -9 -4 0.19 0.07
1 9 4 0.16 0.06
-2 -9 -4 5.66 0.31
2 9 4 5.82 0.28
-3 -9 -4 2.33 0.18
3 9 4 1.98 0.16
-4 -9 -4 0.1 0.09
4 9 4 0.01 0.07
2 -10 -4 0.14 0.08
-2 10 4 0.01 0.05
1 -10 -4 0.1 0.07
-1 10 4 0.1 0.05
0 -10 -4 0.95 0.11
0 -10 -4 1.11 0.11
0 10 4 1.05 0.1
-1 -10 -4 3.17 0.19
-1 -10 -4 3.56 0.22
1 10 4 3.42 0.2
-2 -10 -4 0.43 0.1
2 10 4 0.23 0.07
-3 -10 -4 0.54 0.11
3 10 4 0.51 0.09
-4 -10 -4 0.06 0.09
4 10 4 0.04 0.08
1 -11 -4 -0.03 0.07
-1 11 4 0.06 0.05
0 -11 -4 0.11 0.06
0 11 4 0.15 0.06
-1 -11 -4 0.57 0.11
1 11 4 0.63 0.09
-2 -11 -4 0.33 0.1
2 11 4 0.09 0.07
-3 -11 -4 0.06 0.09
3 11 4 -0.04 0.07
2 11 -5 0.19 0.07
-2 -11 5 0.1 0.07
-2 -11 5 0.19 0.09
1 11 -5 0.1 0.06
-1 -11 5 0 0.07
-1 -11 5 0.02 0.07
0 11 -5 0.16 0.06
0 -11 5 0.1 0.09
-1 11 -5 0.01 0.07
3 10 -5 0.19 0.07
-3 -10 5 0.08 0.07
-3 -10 5 0.14 0.08
2 10 -5 -0.01 0.06
-2 -10 5 0.04 0.07
-2 -10 5 0.08 0.06
1 10 -5 1.15 0.12
-1 -10 5 1 0.11
0 -10 5 0.47 0.1
-1 10 -5 0.43 0.08
1 -10 5 0.29 0.08
-2 10 -5 0.09 0.06
2 -10 5 0.07 0.08
4 9 -5 0.13 0.07
-4 -9 5 0.12 0.09
-4 -9 5 0.08 0.06
3 9 -5 0.11 0.06
-3 -9 5 0.06 0.06
-3 -9 5 0.15 0.07
2 9 -5 1.38 0.12
-2 -9 5 1.6 0.13
-2 -9 5 1.38 0.14
1 9 -5 2.71 0.16
-1 -9 5 2.51 0.17
-1 -9 5 2.26 0.17
0 9 -5 0.78 0.08
0 -9 5 0.65 0.08
-1 9 -5 0.01 0.05
1 -9 5 0.06 0.07
-2 9 -5 0 0.05
2 -9 5 0.01 0.08
-3 9 -5 -0.05 0.06
3 -9 5 0.01 0.08
4 8 -5 0.25 0.07
-4 -8 5 0.2 0.08
-4 -8 5 0.17 0.06
3 8 -5 0.05 0.05
-3 -8 5 0.01 0.05
-3 -8 5 -0.03 0.06
2 8 -5 -0.1 0.05
-2 -8 5 -0.11 0.06
-2 -8 5 0.01 0.05
1 8 -5 0.93 0.1
-1 -8 5 0.78 0.09
-1 -8 5 0.9 0.11
0 8 -5 0.43 0.06
0 -8 5 0.37 0.06
0 -8 5 0.25 0.07
-1 8 -5 0.48 0.06
1 -8 5 0.37 0.07
-2 8 -5 0.21 0.06
2 -8 5 0.11 0.07
-3 8 -5 0.31 0.08
-3 8 -5 0.26 0.07
3 -8 5 0.13 0.08
-4 8 -5 0.54 0.11
-4 8 -5 0.68 0.09
4 -8 5 0.5 0.1
4 -8 5 0.24 0.1
-5 -7 5 0.4 0.08
-5 -7 5 0.32 0.1
4 7 -5 0.27 0.06
-4 -7 5 0.09 0.07
-4 -7 5 0.15 0.06
3 7 -5 4.07 0.21
-3 -7 5 4.11 0.23
-3 -7 5 4.01 0.23
2 7 -5 -0.06 0.05
-2 -7 5 -0.07 0.06
-2 -7 5 0.07 0.05
1 7 -5 2.86 0.15
-1 -7 5 2.62 0.16
-1 -7 5 2.86 0.16
0 7 -5 1.61 0.1
0 -7 5 1.65 0.1
0 -7 5 1.58 0.11
-1 7 -5 0.65 0.07
-1 7 -5 0.59 0.06
-1 7 -5 0.54 0.06
1 -7 5 0.55 0.06
1 -7 5 0.53 0.07
-2 7 -5 0.07 0.05
-2 7 -5 0.14 0.04
2 -7 5 0.08 0.06
2 -7 5 0.19 0.05
-3 7 -5 0.13 0.07
-3 7 -5 0.14 0.05
3 -7 5 0.18 0.08
-4 7 -5 0.12 0.09
-4 7 -5 0.06 0.06
4 -7 5 0.04 0.07
-5 -6 5 0.03 0.08
-5 -6 5 0.04 0.07
4 6 -5 0.06 0.05
-4 -6 5 -0.03 0.07
-4 -6 5 0.03 0.05
3 6 -5 0.87 0.09
-3 -6 5 0.68 0.09
-3 -6 5 0.95 0.09
2 6 -5 0.34 0.05
-2 -6 5 0.36 0.07
-2 -6 5 0.4 0.06
1 6 -5 0.27 0.05
-1 -6 5 0.31 0.05
-1 -6 5 0.28 0.05
0 6 -5 0.01 0.03
0 -6 5 0.02 0.02
0 -6 5 0 0.01
0 -6 5 -0.04 0.03
-1 6 -5 0.96 0.07
-1 6 -5 1.29 0.08
-1 6 -5 1.13 0.07
1 -6 5 0.98 0.09
1 -6 5 1.28 0.08
-2 6 -5 2.48 0.13
-2 6 -5 2.63 0.15
2 -6 5 2.63 0.17
-3 6 -5 3.99 0.19
-3 6 -5 3.88 0.22
3 -6 5 4.01 0.23
-4 6 -5 0.07 0.05
-4 6 -5 0.32 0.09
4 -6 5 0.13 0.07
-5 6 -5 0.03 0.09
-5 6 -5 0.02 0.06
5 -6 5 -0.01 0.06
5 -6 5 -0.02 0.08
5 5 -5 0.49 0.09
-5 -5 5 0.4 0.08
-5 -5 5 0.33 0.09
4 5 -5 4.8 0.23
-4 -5 5 5.02 0.26
-4 -5 5 4.96 0.26
3 5 -5 3.79 0.18
-3 -5 5 3.88 0.2
-3 -5 5 3.58 0.2
2 5 -5 14.99 0.58
-2 -5 5 15.21 0.65
-2 -5 5 12.69 0.61
1 5 -5 9.08 0.37
-1 -5 5 9.07 0.4
-1 -5 5 9.09 0.42
0 5 -5 2.78 0.12
0 5 -5 2.49 0.13
0 -5 5 2.6 0.12
0 -5 5 2.43 0.13
-1 5 -5 7.11 0.31
-1 5 -5 6.19 0.29
1 -5 5 6.95 0.33
1 -5 5 7.48 0.31
-2 5 -5 0.11 0.05
-2 5 -5 0.01 0.02
2 -5 5 0.09 0.05
2 -5 5 0.05 0.04
-3 5 -5 0.22 0.05
-3 5 -5 0.25 0.06
3 -5 5 0.21 0.06
-4 5 -5 0.7 0.1
-4 5 -5 0.66 0.08
4 -5 5 0.55 0.09
-5 5 -5 0.21 0.09
-5 5 -5 0.18 0.06
5 -5 5 0.2 0.09
5 -5 5 0.07 0.07
6 4 -5 0.37 0.08
-6 -4 5 0.27 0.09
5 4 -5 0.34 0.08
-5 -4 5 0.44 0.09
-5 -4 5 0.51 0.09
4 4 -5 0.96 0.08
4 4 -5 0.81 0.09
-4 -4 5 0.95 0.11
-4 -4 5 0.91 0.09
3 4 -5 4.2 0.19
-3 -4 5 4.03 0.21
-3 -4 5 4.04 0.21
2 4 -5 13.42 0.55
-2 -4 5 13.66 0.57
-2 -4 5 13.74 0.62
1 4 -5 1.22 0.07
-1 -4 5 1.28 0.06
-1 -4 5 1.12 0.08
-1 -4 5 1.23 0.08
0 4 -5 11.89 0.49
0 4 -5 12.44 0.52
0 -4 5 12.88 0.56
0 -4 5 12.52 0.52
0 -4 5 12.43 0.52
-1 4 -5 5.56 0.23
-1 4 -5 5.63 0.23
1 -4 5 4.86 0.24
1 -4 5 5.72 0.26
-2 4 -5 10.39 0.42
-2 4 -5 10.27 0.45
2 -4 5 10.32 0.45
2 -4 5 10.45 0.48
-3 4 -5 0.25 0.06
-3 4 -5 0.15 0.04
3 -4 5 0.15 0.05
-4 4 -5 0.59 0.07
-4 4 -5 0.6 0.1
4 -4 5 0.63 0.09
-5 4 -5 0.12 0.08
-5 4 -5 0.13 0.06
5 -4 5 0.15 0.07
5 -4 5 0.13 0.08
6 3 -5 0.18 0.07
-6 -3 5 0.1 0.08
5 3 -5 1.1 0.12
-5 -3 5 1.25 0.12
-5 -3 5 1.2 0.12
4 3 -5 1.44 0.09
4 3 -5 1.28 0.12
-4 -3 5 1.56 0.11
-4 -3 5 1.5 0.11
-4 -3 5 1.32 0.12
3 3 -5 0.03 0.04
3 3 -5 0.12 0.03
-3 -3 5 0.14 0.04
-3 -3 5 0.17 0.05
-3 -3 5 0.17 0.04
2 3 -5 44.65 1.72
2 3 -5 41.79 1.8
-2 -3 5 46.09 1.82
-2 -3 5 44.44 1.81
-2 -3 5 44.53 1.94
1 3 -5 0.17 0.04
1 3 -5 0.25 0.03
-1 -3 5 0.14 0.03
-1 -3 5 0.18 0.02
0 3 -5 67.19 2.75
0 -3 5 75.93 3.09
0 -3 5 70.55 2.91
-1 3 -5 0.05 0.02
-1 3 -5 0.05 0.01
1 -3 5 0.03 0.02
1 -3 5 0.03 0.03
-2 3 -5 3.15 0.16
-2 3 -5 3.04 0.13
2 -3 5 3.04 0.16
2 -3 5 3.09 0.16
-3 3 -5 0.15 0.04
-3 3 -5 0.29 0.06
3 -3 5 0.07 0.04
3 -3 5 0.12 0.05
-4 3 -5 0.68 0.1
-4 3 -5 0.66 0.07
4 -3 5 0.73 0.09
4 -3 5 0.69 0.09
-5 3 -5 0.05 0.06
-5 3 -5 0.04 0.08
5 -3 5 0.08 0.07
5 -3 5 0.04 0.06
-6 -2 5 0.45 0.1
-6 -2 5 0.43 0.1
5 2 -5 1.29 0.11
-5 -2 5 1.33 0.13
-5 -2 5 1.29 0.13
4 2 -5 0.95 0.08
4 2 -5 0.95 0.09
-4 -2 5 0.95 0.09
-4 -2 5 1.06 0.1
-4 -2 5 1.01 0.07
3 2 -5 0.01 0.04
3 2 -5 0.01 0.03
-3 -2 5 0.02 0.04
-3 -2 5 0.01 0.04
-3 -2 5 -0.04 0.04
2 2 -5 22.96 0.94
2 2 -5 22.78 0.89
-2 -2 5 23.2 0.94
-2 -2 5 22.27 1.01
1 2 -5 16.18 0.66
-1 -2 5 17.38 0.7
0 2 -5 35.39 1.42
0 -2 5 36.87 1.5
0 -2 5 37.57 1.59
-1 2 -5 24.12 0.95
-1 2 -5 24.42 0.99
1 -2 5 24.73 1.07
-2 2 -5 0.05 0.02
-2 2 -5 0.01 0.01
-2 2 -5 0.01 0.03
2 -2 5 0 0.03
2 -2 5 0.03 0.03
-3 2 -5 3.23 0.16
-3 2 -5 3.53 0.18
-3 2 -5 3.4 0.15
3 -2 5 3.29 0.18
3 -2 5 3.41 0.18
-4 2 -5 0.54 0.09
-4 2 -5 0.76 0.08
4 -2 5 0.67 0.09
4 -2 5 0.72 0.08
-5 2 -5 0.08 0.08
-5 2 -5 0.03 0.06
5 -2 5 0.08 0.07
5 -2 5 0.05 0.06
-6 2 -5 0.96 0.11
-6 2 -5 0.63 0.11
6 -2 5 1.05 0.13
6 1 -5 -0.1 0.07
-6 -1 5 -0.03 0.08
-6 -1 5 0.05 0.08
5 1 -5 0.44 0.06
-5 -1 5 0.5 0.09
-5 -1 5 0.6 0.1
4 1 -5 0.32 0.05
-4 -1 5 0.45 0.07
-4 -1 5 0.42 0.05
-4 -1 5 0.34 0.06
3 1 -5 4.78 0.22
-3 -1 5 4.85 0.24
-3 -1 5 4.95 0.25
2 1 -5 20.35 0.76
2 1 -5 19.72 0.72
-2 -1 5 16.72 0.81
-2 -1 5 16.57 0.77
1 1 -5 2.06 0.09
-1 -1 5 2.16 0.11
-1 -1 5 2.4 0.11
0 1 -5 2.25 0.1
0 1 -5 2.24 0.09
0 -1 5 2.3 0.11
0 -1 5 2.31 0.1
-1 1 -5 1.12 0.06
-1 1 -5 1.1 0.06
1 -1 5 1.21 0.07
-2 1 -5 1.1 0.07
-2 1 -5 1.42 0.07
2 -1 5 1.49 0.08
2 -1 5 1.32 0.08
-3 1 -5 1.02 0.07
-3 1 -5 1.13 0.07
3 -1 5 1.24 0.09
-4 1 -5 0.26 0.05
-4 1 -5 0.46 0.07
4 -1 5 0.37 0.07
4 -1 5 0.41 0.06
-5 1 -5 0.14 0.07
-5 1 -5 0.12 0.06
5 -1 5 0.27 0.08
-6 1 -5 0.03 0.06
6 -1 5 0.16 0.09
6 0 -5 0.5 0.1
-6 0 5 0.51 0.11
5 0 -5 0.18 0.08
-5 0 5 0.29 0.08
-5 0 5 0.06 0.07
4 0 -5 0.18 0.04
-4 0 5 0.25 0.04
-4 0 5 0.12 0.06
-4 0 5 0.12 0.05
3 0 -5 12.49 0.51
-3 0 5 12.13 0.56
-3 0 5 12.13 0.49
-3 0 5 12.4 0.54
2 0 -5 4.79 0.21
-2 0 5 4.64 0.19
-2 0 5 4.85 0.22
1 0 -5 19.25 0.75
-1 0 5 16.86 0.77
-1 0 5 19.34 0.81
0 0 -5 1.38 0.06
0 0 5 1.46 0.07
0 0 5 1.49 0.07
-1 0 -5 2.9 0.12
-1 0 -5 2.69 0.12
1 0 5 2.74 0.13
-2 0 -5 0.67 0.05
-2 0 -5 0.76 0.05
2 0 5 0.76 0.05
-3 0 -5 16.32 0.69
3 0 5 15.78 0.74
3 0 5 20.05 0.77
-4 0 -5 0.23 0.05
-4 0 -5 0.41 0.06
4 0 5 0.33 0.05
4 0 5 0.3 0.07
-5 0 -5 1.8 0.13
5 0 5 1.82 0.16
-6 0 -5 0.12 0.07
6 0 5 0.18 0.09
6 -1 -5 0.08 0.08
-6 1 5 0.1 0.09
5 -1 -5 0.13 0.08
-5 1 5 -0.06 0.07
-5 1 5 0 0.08
4 -1 -5 1.67 0.13
4 -1 -5 1.72 0.1
-4 1 5 1.73 0.14
-4 1 5 1.55 0.13
3 -1 -5 2.91 0.13
-3 1 5 2.69 0.16
-3 1 5 2.7 0.12
2 -1 -5 2.43 0.12
-2 1 5 2.77 0.14
-2 1 5 2.45 0.1
-2 1 5 2.41 0.14
1 -1 -5 66.55 2.71
-1 1 5 67.93 2.92
0 -1 -5 89.76 3.52
0 1 5 92.28 3.94
-1 -1 -5 4.15 0.17
1 1 5 3.91 0.18
1 1 5 4.42 0.18
-2 -1 -5 94.86 3.69
2 1 5 97.52 3.91
2 1 5 93.91 4.12
-3 -1 -5 18.74 0.8
3 1 5 19.28 0.84
3 1 5 19.4 0.81
-4 -1 -5 6.72 0.3
-4 -1 -5 6.19 0.28
4 1 5 6.28 0.3
4 1 5 6.07 0.3
-5 -1 -5 2.35 0.15
5 1 5 2.72 0.18
-6 -1 -5 0.13 0.06
6 1 5 0.2 0.08
6 -2 -5 -0.05 0.07
-6 2 5 -0.12 0.08
5 -2 -5 0.68 0.1
-5 2 5 0.57 0.11
4 -2 -5 6.99 0.35
-4 2 5 6.47 0.34
2 -2 -5 29.39 1.27
2 -2 -5 28.25 1.16
-2 2 5 28.05 1.11
-2 2 5 29.66 1.27
-2 2 5 28.28 1.2
1 -2 -5 9.6 0.39
1 -2 -5 8.79 0.43
-1 2 5 9.88 0.43
-1 2 5 9.5 0.37
0 -2 -5 0.09 0.02
0 -2 -5 0.11 0.02
0 2 5 0.11 0.02
0 2 5 0.08 0.02
0 2 5 0.09 0.02
-1 -2 -5 22.32 0.87
1 2 5 22.03 0.92
-2 -2 -5 33.98 1.28
-2 -2 -5 31.7 1.34
2 2 5 32.47 1.35
-3 -2 -5 11.78 0.52
3 2 5 12.28 0.54
3 2 5 12.27 0.52
-4 -2 -5 9.26 0.42
-4 -2 -5 9.26 0.39
4 2 5 9.08 0.42
-5 -2 -5 0.04 0.06
-5 -2 -5 0.03 0.06
5 2 5 0.09 0.06
-6 -2 -5 -0.03 0.06
6 2 5 0.15 0.07
5 -3 -5 0.13 0.09
-5 3 5 0.14 0.09
4 -3 -5 -0.02 0.06
-4 3 5 0.13 0.07
3 -3 -5 0.17 0.04
-3 3 5 0.11 0.03
2 -3 -5 2.46 0.11
2 -3 -5 2.26 0.14
-2 3 5 2.11 0.13
-2 3 5 2.31 0.1
1 -3 -5 0.17 0.04
1 -3 -5 0.23 0.03
-1 3 5 0.24 0.04
-1 3 5 0.24 0.02
0 -3 -5 27.97 1.23
0 -3 -5 28.04 1.15
0 3 5 28.38 1.16
0 3 5 27.96 1.09
-1 -3 -5 36.8 1.44
-1 -3 -5 37.37 1.6
1 3 5 36.96 1.52
-2 -3 -5 24.7 0.96
-2 -3 -5 24.11 1.01
2 3 5 24.19 1.01
-3 -3 -5 0.11 0.05
3 3 5 0.12 0.04
3 3 5 0.1 0.02
-4 -3 -5 1.55 0.11
-4 -3 -5 1.61 0.13
4 3 5 1.46 0.11
-5 -3 -5 1.81 0.15
-5 -3 -5 2.08 0.14
5 3 5 1.8 0.14
-6 -3 -5 0.18 0.07
6 3 5 0.36 0.08
5 -4 -5 0.31 0.1
-5 4 5 0.09 0.08
4 -4 -5 0.87 0.11
-4 4 5 0.82 0.11
3 -4 -5 0.13 0.06
3 -4 -5 0.23 0.04
-3 4 5 0.27 0.04
-3 4 5 0.24 0.07
2 -4 -5 0.73 0.09
2 -4 -5 0.85 0.06
-2 4 5 0.73 0.05
-2 4 5 0.71 0.08
1 -4 -5 9.21 0.43
1 -4 -5 9.19 0.39
-1 4 5 9.2 0.41
0 -4 -5 1.06 0.07
0 4 5 1.16 0.07
0 4 5 0.98 0.06
-1 -4 -5 9.01 0.4
-1 -4 -5 9.55 0.41
1 4 5 8.76 0.39
1 4 5 9.15 0.37
-2 -4 -5 0.81 0.04
-2 -4 -5 0.69 0.07
-2 -4 -5 0.77 0.08
2 4 5 0.78 0.06
-3 -4 -5 0.68 0.08
3 4 5 0.56 0.06
-4 -4 -5 1.13 0.11
-4 -4 -5 1.12 0.1
4 4 5 1.01 0.09
-5 -4 -5 0.46 0.09
-5 -4 -5 0.57 0.08
5 4 5 0.62 0.08
-6 -4 -5 0.33 0.08
6 4 5 0.26 0.07
5 -5 -5 0.12 0.1
-5 5 5 0.01 0.09
4 -5 -5 0.09 0.08
-4 5 5 0.04 0.08
3 -5 -5 1.86 0.16
-3 5 5 1.96 0.16
-3 5 5 2.05 0.11
2 -5 -5 0.44 0.07
2 -5 -5 0.4 0.05
-2 5 5 0.42 0.07
-2 5 5 0.42 0.04
1 -5 -5 0.16 0.04
1 -5 -5 0.17 0.04
-1 5 5 0.12 0.03
-1 5 5 0.13 0.04
0 -5 -5 10.14 0.44
0 -5 -5 10.26 0.47
0 5 5 10.02 0.44
0 5 5 10.41 0.42
-1 -5 -5 8.86 0.43
-1 -5 -5 10.07 0.43
1 5 5 10.08 0.4
1 5 5 9.98 0.42
-2 -5 -5 2.77 0.14
2 5 5 2.72 0.15
2 5 5 3.45 0.14
-3 -5 -5 1.08 0.09
-3 -5 -5 1.09 0.11
3 5 5 1.18 0.08
3 5 5 0.95 0.09
-4 -5 -5 0.48 0.07
-4 -5 -5 0.24 0.08
4 5 5 0.55 0.06
-5 -5 -5 0.23 0.08
-5 -5 -5 0.22 0.07
5 5 5 0.26 0.06
-6 -5 -5 0.19 0.08
-6 -5 -5 0.03 0.07
5 -6 -5 -0.01 0.09
-5 6 5 0.01 0.1
4 -6 -5 0.03 0.09
-4 6 5 -0.04 0.08
3 -6 -5 3.22 0.22
-3 6 5 3.19 0.16
-3 6 5 3.06 0.21
2 -6 -5 2.12 0.15
2 -6 -5 2.06 0.12
-2 6 5 2 0.14
-2 6 5 2.02 0.11
1 -6 -5 0.47 0.07
1 -6 -5 0.42 0.06
-1 6 5 0.44 0.06
-1 6 5 0.48 0.05
0 -6 -5 0.48 0.06
0 -6 -5 0.64 0.07
0 6 5 0.54 0.05
0 6 5 0.58 0.06
-1 -6 -5 0.01 0.04
-1 -6 -5 0.04 0.03
1 6 5 0.03 0.03
1 6 5 0 0.03
-2 -6 -5 0.27 0.03
2 6 5 0.32 0.04
2 6 5 0.36 0.05
-3 -6 -5 5.07 0.27
3 6 5 5.13 0.24
3 6 5 4.87 0.23
-4 -6 -5 2.64 0.2
-4 -6 -5 2.92 0.17
4 6 5 2.71 0.17
4 6 5 2.53 0.15
-5 -6 -5 0.11 0.06
-5 -6 -5 0.16 0.08
5 6 5 -0.01 0.07
4 -7 -5 0.32 0.11
-4 7 5 0.25 0.1
3 -7 -5 0 0.07
-3 7 5 0.01 0.08
-3 7 5 0 0.04
2 -7 -5 0.05 0.06
-2 7 5 -0.06 0.04
-2 7 5 -0.03 0.06
1 -7 -5 4.72 0.26
1 -7 -5 5.02 0.24
-1 7 5 4.96 0.22
-1 7 5 4.99 0.25
0 -7 -5 0.12 0.05
0 -7 -5 0.07 0.05
0 7 5 0.12 0.04
0 7 5 0.08 0.04
-1 -7 -5 1.13 0.11
-1 -7 -5 1.3 0.09
1 7 5 1.18 0.09
1 7 5 1.28 0.1
-2 -7 -5 1.77 0.14
-2 -7 -5 1.76 0.1
2 7 5 1.64 0.12
2 7 5 1.73 0.1
-3 -7 -5 2.45 0.18
3 7 5 2.57 0.16
-4 -7 -5 0.88 0.12
4 7 5 0.84 0.1
-5 -7 -5 0.17 0.09
5 7 5 0.17 0.08
4 -8 -5 2.51 0.23
-4 8 5 3.41 0.24
3 -8 -5 2.07 0.18
-3 8 5 2.13 0.18
2 -8 -5 0.06 0.07
-2 8 5 0.07 0.04
-2 8 5 0.1 0.07
1 -8 -5 0.14 0.06
1 -8 -5 0.09 0.05
-1 8 5 0.12 0.06
-1 8 5 0.1 0.05
0 -8 -5 1.06 0.11
0 -8 -5 1.25 0.1
0 8 5 1.24 0.1
0 8 5 1.1 0.1
-1 -8 -5 1.17 0.09
-1 -8 -5 1.16 0.12
1 8 5 1.16 0.1
1 8 5 1.07 0.09
-2 -8 -5 0.01 0.07
2 8 5 0.03 0.05
-3 -8 -5 1.36 0.14
3 8 5 1.31 0.12
-4 -8 -5 0.37 0.1
4 8 5 0.48 0.09
-5 -8 -5 0.85 0.13
5 8 5 0.71 0.11
3 -9 -5 0.03 0.09
-3 9 5 0.01 0.09
2 -9 -5 1.53 0.15
-2 9 5 1.7 0.15
-2 9 5 1.66 0.11
1 -9 -5 0.1 0.06
-1 9 5 -0.03 0.05
-1 9 5 0 0.04
0 -9 -5 0.28 0.07
0 -9 -5 0.26 0.07
0 9 5 0.31 0.06
0 9 5 0.26 0.06
-1 -9 -5 1.08 0.12
-1 -9 -5 1.05 0.1
1 9 5 1.22 0.11
-2 -9 -5 4.16 0.25
2 9 5 4.27 0.23
-3 -9 -5 2.25 0.19
3 9 5 2.15 0.16
-4 -9 -5 0.13 0.09
4 9 5 0.1 0.08
2 -10 -5 0.08 0.08
-2 10 5 0.05 0.05
-2 10 5 -0.01 0.07
1 -10 -5 0.52 0.09
-1 10 5 0.58 0.07
0 -10 -5 0.3 0.08
0 -10 -5 0.38 0.08
0 10 5 0.41 0.07
-1 -10 -5 0.92 0.12
1 10 5 1.08 0.11
-2 -10 -5 0.09 0.08
2 10 5 -0.01 0.06
-3 -10 -5 0.76 0.13
3 10 5 0.56 0.1
1 -11 -5 0.18 0.08
-1 11 5 0.18 0.06
0 -11 -5 0.22 0.07
0 11 5 0.26 0.07
-1 -11 -5 1.67 0.16
1 11 5 1.88 0.14
-2 -11 -5 1.11 0.14
2 11 5 0.71 0.1
2 11 -6 0.05 0.06
-2 -11 6 -0.05 0.07
-2 -11 6 0.04 0.08
1 11 -6 -0.03 0.06
-1 -11 6 -0.08 0.06
-1 -11 6 -0.15 0.06
0 11 -6 0.14 0.06
0 -11 6 0.11 0.09
1 -11 6 0.09 0.09
3 10 -6 0.12 0.07
-3 -10 6 -0.01 0.08
-3 -10 6 0.09 0.07
2 10 -6 0.04 0.06
-2 -10 6 -0.07 0.06
-2 -10 6 0 0.07
1 10 -6 0.11 0.06
-1 -10 6 -0.02 0.06
-1 -10 6 -0.02 0.06
0 10 -6 1.5 0.12
-1 10 -6 1.06 0.11
1 -10 6 0.75 0.11
-2 10 -6 0.16 0.07
2 -10 6 0.21 0.08
4 9 -6 0.16 0.07
-4 -9 6 0.08 0.07
-4 -9 6 -0.02 0.08
3 9 -6 0.26 0.07
-3 -9 6 0.22 0.07
-3 -9 6 0.42 0.09
2 9 -6 0.06 0.06
-2 -9 6 0.02 0.05
-2 -9 6 -0.04 0.07
1 9 -6 1.28 0.11
-1 -9 6 1.41 0.13
-1 -9 6 1.2 0.12
0 9 -6 0.33 0.06
0 9 -6 0.41 0.07
0 -9 6 0.36 0.07
0 -9 6 0.14 0.07
-1 9 -6 0.09 0.06
1 -9 6 0.05 0.07
-2 9 -6 -0.04 0.05
2 -9 6 -0.02 0.07
-3 9 -6 -0.12 0.05
3 -9 6 0.02 0.08
4 8 -6 0.19 0.07
-4 -8 6 0.17 0.07
-4 -8 6 0.16 0.08
3 8 -6 0.06 0.06
-3 -8 6 0.09 0.07
-3 -8 6 0.01 0.06
2 8 -6 1.4 0.11
-2 -8 6 1.3 0.12
-2 -8 6 1.59 0.13
1 8 -6 3.71 0.19
-1 -8 6 3.72 0.2
-1 -8 6 3.17 0.21
0 8 -6 0.57 0.06
0 8 -6 0.5 0.07
0 -8 6 0.35 0.08
0 -8 6 0.47 0.06
-1 8 -6 0.87 0.09
1 -8 6 0.96 0.11
-2 8 -6 0.05 0.05
2 -8 6 0.04 0.07
-3 8 -6 -0.04 0.05
-3 8 -6 -0.02 0.06
3 -8 6 0.06 0.06
3 -8 6 0 0.07
4 -8 6 0.26 0.1
5 7 -6 -0.03 0.07
-5 -7 6 -0.02 0.07
-5 -7 6 0.1 0.08
4 7 -6 0.06 0.05
-4 -7 6 -0.1 0.06
-4 -7 6 0.01 0.06
3 7 -6 3.07 0.17
-3 -7 6 3 0.19
-3 -7 6 2.82 0.18
2 7 -6 8.39 0.37
-2 -7 6 8.29 0.41
-2 -7 6 9 0.4
1 7 -6 3.4 0.16
-1 -7 6 3.04 0.17
-1 -7 6 2.79 0.18
0 7 -6 1.02 0.09
0 7 -6 1.16 0.08
0 -7 6 1.06 0.1
0 -7 6 1.13 0.09
-1 7 -6 0.03 0.03
-1 7 -6 -0.01 0.04
1 -7 6 -0.01 0.04
1 -7 6 0.06 0.04
-2 7 -6 -0.03 0.05
-2 7 -6 -0.03 0.04
2 -7 6 0.02 0.06
2 -7 6 0.01 0.05
-3 7 -6 -0.08 0.04
-3 7 -6 -0.04 0.06
3 -7 6 -0.01 0.06
3 -7 6 -0.02 0.06
-4 7 -6 0.15 0.06
-4 7 -6 0.14 0.09
4 -7 6 0.01 0.07
4 -7 6 0.1 0.08
5 6 -6 0.01 0.07
-5 -6 6 -0.16 0.06
-5 -6 6 0.06 0.07
4 6 -6 0.18 0.06
-4 -6 6 0.09 0.05
-4 -6 6 0.05 0.07
3 6 -6 0.15 0.05
-3 -6 6 0.2 0.06
-3 -6 6 0.04 0.06
2 6 -6 4.36 0.2
-2 -6 6 4.11 0.23
-2 -6 6 4.42 0.22
1 6 -6 1.16 0.08
-1 -6 6 1.22 0.09
-1 -6 6 1.16 0.09
0 6 -6 3.82 0.17
0 6 -6 3.8 0.18
0 -6 6 3.68 0.18
0 -6 6 3.83 0.17
-1 6 -6 1.16 0.07
-1 6 -6 1.07 0.08
1 -6 6 1.05 0.1
1 -6 6 1.12 0.08
-2 6 -6 0.18 0.04
-2 6 -6 0.26 0.06
2 -6 6 0.31 0.06
2 -6 6 0.2 0.06
-3 6 -6 2.95 0.16
-3 6 -6 2.72 0.18
3 -6 6 2.72 0.18
-4 6 -6 0.27 0.06
-4 6 -6 0.36 0.09
4 -6 6 0.26 0.09
4 -6 6 0.36 0.09
5 -6 6 0 0.07
5 5 -6 0.05 0.06
-5 -5 6 0.03 0.06
-5 -5 6 -0.11 0.07
4 5 -6 5.12 0.23
4 5 -6 4.63 0.25
-4 -5 6 4.76 0.26
-4 -5 6 4.94 0.26
3 5 -6 0.24 0.05
-3 -5 6 0.24 0.07
-3 -5 6 0.36 0.06
2 5 -6 5.28 0.23
-2 -5 6 5.22 0.25
-2 -5 6 5.44 0.27
1 5 -6 4.63 0.2
1 5 -6 4.7 0.22
-1 -5 6 4.55 0.19
-1 -5 6 4.7 0.22
0 5 -6 4.94 0.22
0 5 -6 4.83 0.21
0 -5 6 4.74 0.21
-1 5 -6 1.57 0.09
-1 5 -6 1.82 0.1
1 -5 6 2.01 0.12
1 -5 6 1.96 0.1
-2 5 -6 0.05 0.03
-2 5 -6 0.08 0.05
2 -5 6 0.1 0.05
2 -5 6 0.1 0.04
-3 5 -6 0.58 0.08
-3 5 -6 0.6 0.07
3 -5 6 0.53 0.08
3 -5 6 0.43 0.08
-4 5 -6 -0.01 0.05
-4 5 -6 0.07 0.07
4 -5 6 0.28 0.08
4 -5 6 0.04 0.07
-5 5 -6 0.42 0.1
-5 5 -6 0.21 0.07
5 -5 6 0.18 0.07
5 -5 6 0.18 0.09
5 4 -6 0.13 0.07
-5 -4 6 0.11 0.07
4 4 -6 0.7 0.09
4 4 -6 0.66 0.07
-4 -4 6 0.76 0.09
-4 -4 6 0.71 0.08
3 4 -6 0.19 0.06
3 4 -6 0.22 0.05
-3 -4 6 0.21 0.04
-3 -4 6 0.28 0.05
-3 -4 6 0.28 0.06
2 4 -6 0.05 0.01
2 4 -6 0.12 0.03
-2 -4 6 0.09 0.04
-2 -4 6 0.05 0.03
1 4 -6 2.18 0.12
1 4 -6 2.23 0.11
-1 -4 6 2.29 0.1
-1 -4 6 2.3 0.12
0 4 -6 0.57 0.05
0 4 -6 0.54 0.05
0 -4 6 0.45 0.04
0 -4 6 0.5 0.06
-1 4 -6 4.31 0.19
1 -4 6 4.6 0.22
1 -4 6 4.5 0.2
-2 4 -6 10.07 0.42
2 -4 6 10.23 0.45
2 -4 6 10.63 0.48
-3 4 -6 1.46 0.11
-3 4 -6 1.65 0.1
3 -4 6 1.49 0.12
3 -4 6 1.59 0.12
-4 4 -6 0.26 0.08
-4 4 -6 0.34 0.06
4 -4 6 0.22 0.07
4 -4 6 0.17 0.06
-5 4 -6 0.14 0.09
-5 4 -6 0.14 0.06
5 -4 6 0.07 0.07
5 -4 6 0.11 0.08
6 3 -6 0.28 0.07
-6 -3 6 0.35 0.1
5 3 -6 2.15 0.16
-5 -3 6 2.35 0.17
-5 -3 6 2.37 0.17
4 3 -6 2.38 0.15
4 3 -6 2.45 0.13
-4 -3 6 2.64 0.16
-4 -3 6 2.47 0.15
3 3 -6 9.89 0.41
3 3 -6 9.88 0.44
-3 -3 6 10.14 0.44
-3 -3 6 10.3 0.44
-3 -3 6 9.74 0.47
2 3 -6 2.25 0.1
-2 -3 6 2.13 0.12
-2 -3 6 2.07 0.11
-2 -3 6 2.06 0.12
1 3 -6 3.07 0.15
1 3 -6 3.03 0.13
-1 -3 6 3.16 0.14
0 3 -6 105.87 4.28
0 3 -6 110.14 4.46
0 -3 6 115.55 4.8
0 -3 6 111.63 4.52
-1 3 -6 0.81 0.05
-1 3 -6 0.68 0.04
1 -3 6 0.82 0.06
1 -3 6 0.78 0.06
-2 3 -6 0.08 0.03
-2 3 -6 0.19 0.02
2 -3 6 0.12 0.04
2 -3 6 0.13 0.04
-3 3 -6 4.93 0.24
-3 3 -6 4.4 0.21
3 -3 6 4.88 0.24
3 -3 6 4.91 0.24
-4 3 -6 0.04 0.07
-4 3 -6 0 0.04
4 -3 6 -0.04 0.06
4 -3 6 -0.07 0.05
-5 3 -6 0.62 0.11
-5 3 -6 0.68 0.09
5 -3 6 0.64 0.1
5 -3 6 0.58 0.09
-6 -2 6 0.18 0.08
-6 -2 6 0.13 0.09
5 2 -6 1 0.1
-5 -2 6 0.93 0.11
-5 -2 6 0.96 0.12
4 2 -6 1.07 0.09
-4 -2 6 1.06 0.1
-4 -2 6 1.08 0.11
3 2 -6 4.89 0.23
3 2 -6 5.01 0.21
-3 -2 6 5.03 0.24
-3 -2 6 4.61 0.24
2 2 -6 4.6 0.21
2 2 -6 4.59 0.19
-2 -2 6 4.45 0.22
1 2 -6 1.07 0.05
1 2 -6 0.9 0.07
-1 -2 6 1.16 0.07
-1 -2 6 1.12 0.06
0 2 -6 3.19 0.17
0 2 -6 3.9 0.16
0 -2 6 4.08 0.17
0 -2 6 4.2 0.19
-1 2 -6 34.43 1.38
-1 2 -6 33.82 1.33
1 -2 6 32.54 1.41
1 -2 6 35.59 1.49
-2 2 -6 0.42 0.05
-2 2 -6 0.41 0.04
2 -2 6 0.39 0.05
2 -2 6 0.43 0.05
-3 2 -6 15.31 0.64
3 -2 6 15.77 0.68
3 -2 6 15.74 0.7
-4 2 -6 1.1 0.12
-4 2 -6 1.37 0.1
4 -2 6 1.18 0.1
4 -2 6 1.3 0.12
-5 2 -6 0.3 0.08
-5 2 -6 0.24 0.07
5 -2 6 0.33 0.09
6 -2 6 0.37 0.1
6 1 -6 0.11 0.09
-6 -1 6 0.18 0.09
-6 -1 6 0.24 0.09
5 1 -6 0.47 0.06
-5 -1 6 0.54 0.09
-5 -1 6 0.49 0.09
4 1 -6 0.34 0.05
-4 -1 6 0.49 0.08
-4 -1 6 0.45 0.07
3 1 -6 7.6 0.31
3 1 -6 7.74 0.34
-3 -1 6 8.05 0.36
-3 -1 6 7.64 0.37
2 1 -6 1.4 0.06
2 1 -6 1.37 0.08
-2 -1 6 1.37 0.09
1 1 -6 97.72 3.7
-1 -1 6 91 3.92
-1 -1 6 98.87 4.16
0 1 -6 1.58 0.07
0 -1 6 1.48 0.08
0 -1 6 1.66 0.08
-1 1 -6 0.34 0.03
-1 1 -6 0.3 0.03
1 -1 6 0.28 0.03
1 -1 6 0.29 0.03
-2 1 -6 3.44 0.15
-2 1 -6 3.36 0.15
2 -1 6 3.44 0.17
2 -1 6 3.19 0.17
-3 1 -6 1.97 0.1
-4 1 -6 0.16 0.05
4 -1 6 0.25 0.06
4 -1 6 0.21 0.05
-5 1 -6 1.91 0.13
5 -1 6 2 0.16
-6 1 -6 0.32 0.08
6 -1 6 0.52 0.1
6 0 -6 0.61 0.12
-6 0 6 0.82 0.13
-6 0 6 0.87 0.13
5 0 -6 0.69 0.1
-5 0 6 0.62 0.1
-5 0 6 0.62 0.1
4 0 -6 0.29 0.05
-4 0 6 0.42 0.08
-4 0 6 0.24 0.06
3 0 -6 5.89 0.26
-3 0 6 5.79 0.28
-3 0 6 5.64 0.23
2 0 -6 2.31 0.09
2 0 -6 2.35 0.11
-2 0 6 2.21 0.12
-2 0 6 2.14 0.12
1 0 -6 33.26 1.37
-1 0 6 34.16 1.47
0 0 -6 11.11 0.44
0 0 6 11.31 0.5
-1 0 -6 17.79 0.72
1 0 6 19.07 0.8
-2 0 -6 0.14 0.03
2 0 6 0.01 0.02
2 0 6 0.14 0.03
-3 0 -6 2.97 0.15
3 0 6 3.21 0.16
-4 0 -6 0.01 0.04
-4 0 -6 0.06 0.04
4 0 6 0 0.05
4 0 6 0.01 0.04
-5 0 -6 2.84 0.16
5 0 6 2.4 0.17
-6 0 -6 0.35 0.08
6 0 6 0.44 0.1
6 -1 -6 0.16 0.1
-6 1 6 0.15 0.1
5 -1 -6 0.09 0.08
-5 1 6 0.01 0.08
-5 1 6 0.04 0.08
4 -1 -6 1.16 0.08
4 -1 -6 1.09 0.12
-4 1 6 1.03 0.12
-4 1 6 1.08 0.12
3 -1 -6 1.76 0.09
-3 1 6 1.62 0.12
-3 1 6 1.61 0.08
2 -1 -6 0.62 0.05
-2 1 6 0.62 0.07
-2 1 6 0.64 0.06
1 -1 -6 3.65 0.16
-1 1 6 3.54 0.18
-1 1 6 3.92 0.18
0 -1 -6 28.71 1.11
0 1 6 28.7 1.25
-1 -1 -6 5.94 0.23
-1 -1 -6 4.82 0.24
1 1 6 5.93 0.25
-2 -1 -6 6.95 0.3
-2 -1 -6 6.81 0.28
2 1 6 6.7 0.3
2 1 6 7.07 0.31
-3 -1 -6 1.47 0.1
3 1 6 1.5 0.08
3 1 6 1.38 0.1
-4 -1 -6 0.08 0.04
-4 -1 -6 -0.01 0.04
4 1 6 0.23 0.06
-5 -1 -6 0.03 0.05
5 1 6 0.01 0.07
-6 -1 -6 0.04 0.06
6 1 6 0.12 0.07
6 -2 -6 -0.06 0.08
5 -2 -6 -0.01 0.07
-5 2 6 -0.07 0.07
4 -2 -6 1.96 0.11
4 -2 -6 1.92 0.14
-4 2 6 1.79 0.15
-4 2 6 1.98 0.16
3 -2 -6 0.18 0.03
-3 2 6 0.1 0.05
-3 2 6 0.11 0.02
2 -2 -6 1.43 0.1
2 -2 -6 1.36 0.07
-2 2 6 1.25 0.1
-2 2 6 1.29 0.06
-2 2 6 1.48 0.1
1 -2 -6 36.53 1.49
-1 2 6 38.06 1.61
-1 2 6 36.09 1.42
0 -2 -6 17.28 0.7
0 -2 -6 16.74 0.67
0 2 6 16.8 0.67
0 2 6 17.37 0.75
0 2 6 17.16 0.71
-1 -2 -6 39.19 1.51
-1 -2 -6 38.05 1.68
-1 -2 -6 38.91 1.58
1 2 6 39.17 1.59
-2 -2 -6 63.45 2.44
-2 -2 -6 61.65 2.55
2 2 6 63.08 2.57
-3 -2 -6 8.87 0.4
3 2 6 9.15 0.4
3 2 6 9.2 0.4
-4 -2 -6 4.48 0.22
-4 -2 -6 4.24 0.23
4 2 6 4.73 0.23
-5 -2 -6 0.19 0.06
-5 -2 -6 0.09 0.07
5 2 6 0.17 0.07
-6 -2 -6 0.18 0.07
6 2 6 0.13 0.07
5 -3 -6 0.07 0.07
-5 3 6 0.15 0.09
4 -3 -6 0.86 0.11
-4 3 6 0.9 0.11
3 -3 -6 0.55 0.05
3 -3 -6 0.47 0.07
-3 3 6 0.5 0.07
2 -3 -6 1.78 0.12
2 -3 -6 1.73 0.09
-2 3 6 1.65 0.08
1 -3 -6 0.49 0.05
1 -3 -6 0.34 0.04
-1 3 6 0.34 0.03
-1 3 6 0.34 0.05
0 -3 -6 7.15 0.3
0 -3 -6 6.96 0.32
0 3 6 7.15 0.31
0 3 6 6.82 0.28
-1 -3 -6 32.22 1.4
-1 -3 -6 32.56 1.26
1 3 6 32.26 1.33
-2 -3 -6 32.83 1.38
-2 -3 -6 34.26 1.32
2 3 6 33.6 1.39
-3 -3 -6 16.6 0.7
3 3 6 16.32 0.7
-4 -3 -6 2.58 0.17
-4 -3 -6 2.82 0.16
4 3 6 2.86 0.16
-5 -3 -6 0.08 0.06
-5 -3 -6 0.13 0.07
5 3 6 0.15 0.06
-6 -3 -6 0.05 0.06
6 3 6 0.14 0.06
5 -4 -6 1.46 0.17
-5 4 6 1.33 0.16
4 -4 -6 0.31 0.08
-4 4 6 0.28 0.08
3 -4 -6 1.23 0.12
3 -4 -6 1.36 0.09
-3 4 6 1.43 0.08
-3 4 6 1.55 0.13
2 -4 -6 1.26 0.1
2 -4 -6 1.4 0.08
-2 4 6 1.34 0.11
1 -4 -6 10.39 0.45
1 -4 -6 10.51 0.49
-1 4 6 10.9 0.47
0 -4 -6 0.66 0.06
0 4 6 0.67 0.06
0 4 6 0.55 0.05
-1 -4 -6 4.89 0.22
-1 -4 -6 4.91 0.23
1 4 6 4.72 0.21
1 4 6 4.68 0.21
-2 -4 -6 16.87 0.68
-2 -4 -6 16.76 0.71
2 4 6 16.71 0.7
-3 -4 -6 15.26 0.65
3 4 6 14.8 0.64
-4 -4 -6 -0.03 0.06
-4 -4 -6 -0.02 0.05
4 4 6 0.12 0.05
-5 -4 -6 0.07 0.07
-5 -4 -6 0.01 0.05
5 4 6 0.12 0.05
-6 -4 -6 0.08 0.07
6 4 6 0.11 0.06
5 -5 -6 0.09 0.1
-5 5 6 0.07 0.1
4 -5 -6 -0.08 0.08
-4 5 6 0.11 0.08
3 -5 -6 -0.15 0.07
-3 5 6 -0.05 0.06
2 -5 -6 -0.04 0.05
2 -5 -6 0.01 0.03
-2 5 6 0 0.02
-2 5 6 0.06 0.05
1 -5 -6 0.08 0.03
-1 5 6 0.09 0.04
-1 5 6 0.14 0.03
0 -5 -6 11.61 0.51
0 -5 -6 11.8 0.53
0 5 6 11.98 0.48
0 5 6 11.75 0.51
-1 -5 -6 8.05 0.36
-1 -5 -6 8.1 0.36
1 5 6 7.86 0.35
1 5 6 7.82 0.33
-2 -5 -6 0.35 0.05
-2 -5 -6 0.41 0.03
2 5 6 0.46 0.06
2 5 6 0.52 0.05
-3 -5 -6 1.44 0.13
-3 -5 -6 1.55 0.11
3 5 6 1.47 0.1
-4 -5 -6 2.99 0.18
-4 -5 -6 3.37 0.21
4 5 6 3.12 0.17
-5 -5 -6 0.15 0.06
-5 -5 -6 0.15 0.07
5 5 6 0.09 0.05
4 -6 -6 0.04 0.09
-4 6 6 0.15 0.08
3 -6 -6 0.24 0.09
-3 6 6 0.09 0.08
2 -6 -6 0.15 0.05
2 -6 -6 0.13 0.07
-2 6 6 0.07 0.03
-2 6 6 0.02 0.06
1 -6 -6 0.56 0.06
1 -6 -6 0.53 0.07
-1 6 6 0.53 0.05
-1 6 6 0.62 0.07
0 -6 -6 1.56 0.1
0 -6 -6 1.4 0.1
0 6 6 1.37 0.09
0 6 6 1.47 0.1
-1 -6 -6 0.02 0.03
-1 -6 -6 -0.03 0.04
1 6 6 0.04 0.03
1 6 6 0.09 0.04
-2 -6 -6 1.12 0.11
2 6 6 1.57 0.1
2 6 6 1.38 0.09
-3 -6 -6 5.53 0.29
3 6 6 5.67 0.27
3 6 6 5.66 0.26
-4 -6 -6 2.06 0.17
-4 -6 -6 1.99 0.14
4 6 6 1.97 0.12
4 6 6 1.96 0.14
-5 -6 -6 0.64 0.11
-5 -6 -6 0.56 0.09
5 6 6 0.62 0.1
4 -7 -6 0.36 0.11
-4 7 6 0.3 0.11
3 -7 -6 0.33 0.09
-3 7 6 0.22 0.08
2 -7 -6 -0.08 0.06
-2 7 6 -0.08 0.06
1 -7 -6 2.89 0.16
1 -7 -6 2.86 0.18
-1 7 6 2.9 0.17
-1 7 6 2.87 0.14
0 -7 -6 1.36 0.12
0 -7 -6 1.58 0.11
0 7 6 1.43 0.11
0 7 6 1.42 0.1
-1 -7 -6 0.29 0.07
-1 -7 -6 0.32 0.05
1 7 6 0.21 0.05
1 7 6 0.27 0.05
-2 -7 -6 0 0.06
2 7 6 0.03 0.05
2 7 6 0.02 0.03
-3 -7 -6 0.05 0.06
3 7 6 -0.01 0.03
3 7 6 -0.1 0.05
-4 -7 -6 0.56 0.1
4 7 6 0.43 0.08
-5 -7 -6 0.14 0.09
5 7 6 0.12 0.08
4 -8 -6 0.93 0.15
3 -8 -6 0.97 0.13
-3 8 6 1.13 0.14
2 -8 -6 -0.06 0.06
-2 8 6 -0.09 0.06
-2 8 6 -0.07 0.04
1 -8 -6 0.15 0.06
1 -8 -6 0.12 0.06
-1 8 6 0.11 0.05
-1 8 6 0.05 0.06
0 -8 -6 0.78 0.09
0 -8 -6 0.84 0.09
0 8 6 0.8 0.09
0 8 6 0.73 0.08
-1 -8 -6 0.09 0.04
-1 -8 -6 0 0.06
1 8 6 0.01 0.04
1 8 6 -0.01 0.04
-2 -8 -6 2.86 0.19
2 8 6 2.72 0.17
-3 -8 -6 1.87 0.16
3 8 6 1.55 0.14
-4 -8 -6 -0.07 0.08
4 8 6 -0.03 0.06
-5 -8 -6 0.82 0.13
3 -9 -6 0.02 0.07
-3 9 6 -0.1 0.08
2 -9 -6 1.19 0.14
-2 9 6 1.12 0.1
-2 9 6 1.2 0.14
1 -9 -6 0.31 0.07
-1 9 6 0.29 0.06
-1 9 6 0.35 0.07
0 -9 -6 0.03 0.06
0 -9 -6 0.1 0.06
0 9 6 0.14 0.05
0 9 6 0.13 0.05
-1 -9 -6 0.29 0.08
1 9 6 0.27 0.06
-2 -9 -6 1.51 0.15
2 9 6 1.43 0.13
-3 -9 -6 1.13 0.14
3 9 6 1.14 0.12
-4 -9 -6 0.37 0.1
4 9 6 0.07 0.08
2 -10 -6 0.05 0.08
-2 10 6 0.06 0.08
1 -10 -6 0.35 0.08
-1 10 6 0.26 0.06
0 -10 -6 0 0.06
0 -10 -6 0 0.06
0 10 6 -0.02 0.05
-1 -10 -6 0 0.07
1 10 6 0.09 0.06
-2 -10 -6 0.27 0.09
2 10 6 0.2 0.08
-3 -10 -6 0.1 0.09
3 10 6 0.2 0.08
1 -11 -6 0.27 0.08
-1 11 6 0.24 0.06
0 -11 -6 0.12 0.07
0 11 6 0.19 0.06
-1 -11 -6 1.82 0.18
1 11 6 1.68 0.14
-2 -11 -6 1.04 0.14
2 11 6 0.78 0.11
-2 -11 7 0.02 0.07
1 11 -7 0.23 0.06
-1 -11 7 0.22 0.09
0 11 -7 0.15 0.06
0 -11 7 0.09 0.09
1 -11 7 0.09 0.09
3 10 -7 0.25 0.07
3 10 -7 0.22 0.08
-3 -10 7 0.12 0.08
-3 -10 7 0 0.07
2 10 -7 0.04 0.06
2 10 -7 0 0.06
-2 -10 7 0.02 0.07
-2 -10 7 -0.03 0.06
1 10 -7 0.19 0.06
1 10 -7 -0.01 0.05
-1 -10 7 -0.16 0.06
-1 -10 7 -0.03 0.07
0 10 -7 0.36 0.07
0 -10 7 0.29 0.09
-1 10 -7 0.55 0.08
1 -10 7 0.7 0.11
-2 10 -7 0.46 0.09
2 -10 7 0.17 0.08
3 9 -7 0.13 0.06
-3 -9 7 0.1 0.07
-3 -9 7 0.05 0.06
2 9 -7 0.3 0.06
2 9 -7 0.22 0.07
-2 -9 7 0.1 0.06
-2 -9 7 0.08 0.07
1 9 -7 0.3 0.06
1 9 -7 0.22 0.07
-1 -9 7 0.21 0.07
-1 -9 7 0.24 0.08
0 9 -7 0.03 0.05
0 9 -7 0.08 0.05
0 -9 7 0 0.07
-1 9 -7 0.88 0.09
1 -9 7 0.76 0.11
-2 9 -7 0.13 0.06
2 -9 7 0.04 0.08
-3 9 -7 0.07 0.07
3 -9 7 0.03 0.07
4 8 -7 0.06 0.07
4 8 -7 0.15 0.06
-4 -8 7 0.12 0.08
-4 -8 7 0.05 0.07
3 8 -7 0.11 0.06
3 8 -7 0.06 0.06
-3 -8 7 -0.03 0.07
-3 -8 7 0.15 0.07
2 8 -7 0.3 0.06
2 8 -7 0.41 0.07
-2 -8 7 0.18 0.07
-2 -8 7 0.23 0.06
1 8 -7 3.22 0.18
1 8 -7 3.11 0.17
-1 -8 7 3.18 0.19
-1 -8 7 2.97 0.18
0 8 -7 3.62 0.18
0 8 -7 3.56 0.19
-1 8 -7 0.6 0.07
1 -8 7 0.6 0.1
-2 8 -7 0.04 0.05
2 -8 7 -0.08 0.06
-3 8 -7 -0.1 0.05
3 -8 7 0.04 0.07
4 -8 7 0.03 0.07
-5 -7 7 0.1 0.08
-5 -7 7 0.05 0.09
4 7 -7 0.13 0.07
4 7 -7 0.14 0.06
-4 -7 7 0.05 0.06
-4 -7 7 0.02 0.07
3 7 -7 0.1 0.06
3 7 -7 0.08 0.05
-3 -7 7 0.06 0.05
-3 -7 7 0.03 0.06
2 7 -7 1.01 0.09
2 7 -7 1.14 0.11
-2 -7 7 1.05 0.11
-2 -7 7 0.79 0.09
1 7 -7 2.36 0.15
1 7 -7 2.43 0.14
-1 -7 7 2.39 0.16
-1 -7 7 2.35 0.15
0 7 -7 0.55 0.06
0 7 -7 0.75 0.08
-1 7 -7 0.31 0.05
1 -7 7 0.28 0.07
-2 7 -7 -0.04 0.04
2 -7 7 0.04 0.05
2 -7 7 -0.02 0.06
-3 7 -7 -0.02 0.05
3 -7 7 -0.04 0.06
3 -7 7 0.02 0.07
-4 7 -7 0.09 0.06
4 -7 7 0.07 0.07
4 -7 7 0.1 0.09
5 6 -7 0.07 0.07
-5 -6 7 0.13 0.07
-5 -6 7 -0.01 0.08
4 6 -7 0.12 0.07
-4 -6 7 0.07 0.07
-4 -6 7 0.23 0.07
3 6 -7 2.19 0.15
3 6 -7 2.24 0.13
-3 -6 7 2.29 0.16
-3 -6 7 1.87 0.14
2 6 -7 2.54 0.16
2 6 -7 2.49 0.14
-2 -6 7 2.88 0.16
-2 -6 7 2.73 0.16
1 6 -7 3.13 0.16
1 6 -7 3.05 0.14
-1 -6 7 2.55 0.16
-1 -6 7 2.99 0.16
0 6 -7 0.07 0.03
0 6 -7 0.12 0.03
0 -6 7 0.03 0.04
-1 6 -7 0.82 0.07
-1 6 -7 0.94 0.06
1 -6 7 0.59 0.08
1 -6 7 0.94 0.07
-2 6 -7 -0.03 0.03
2 -6 7 0.04 0.05
2 -6 7 0.07 0.06
-3 6 -7 1.42 0.11
3 -6 7 1.19 0.12
3 -6 7 1.3 0.13
-4 6 -7 2.11 0.17
-4 6 -7 1.75 0.14
4 -6 7 1.78 0.16
5 5 -7 0.02 0.07
-5 -5 7 -0.01 0.06
4 5 -7 3.07 0.18
-4 -5 7 2.62 0.18
-4 -5 7 3.12 0.19
3 5 -7 7.06 0.34
3 5 -7 7.26 0.31
-3 -5 7 6.89 0.35
-3 -5 7 7.61 0.34
2 5 -7 5.73 0.27
2 5 -7 5.71 0.25
-2 -5 7 5.62 0.28
-2 -5 7 5.87 0.27
1 5 -7 -0.02 0.04
1 5 -7 0.03 0.03
-1 -5 7 0 0.01
-1 -5 7 0.01 0.02
0 5 -7 0.33 0.04
0 5 -7 0.31 0.04
0 -5 7 0.23 0.05
0 -5 7 0.33 0.03
-1 5 -7 0.82 0.06
-1 5 -7 0.87 0.06
1 -5 7 0.89 0.07
1 -5 7 0.81 0.08
-2 5 -7 0.71 0.07
2 -5 7 0.8 0.08
2 -5 7 0.53 0.07
-3 5 -7 0.03 0.04
3 -5 7 0.02 0.06
3 -5 7 -0.09 0.06
-4 5 -7 0.23 0.08
-4 5 -7 0.12 0.06
4 -5 7 0.15 0.07
4 -5 7 0.19 0.08
-5 5 -7 0.51 0.08
5 -5 7 0.48 0.1
5 -5 7 0.52 0.1
5 4 -7 0.04 0.06
-5 -4 7 0.04 0.07
4 4 -7 0.27 0.07
-4 -4 7 0.46 0.08
3 4 -7 2.84 0.17
3 4 -7 3.11 0.15
-3 -4 7 2.94 0.17
-3 -4 7 3.15 0.16
-3 -4 7 3.39 0.18
2 4 -7 0.35 0.04
-2 -4 7 0.38 0.04
-2 -4 7 0.26 0.04
1 4 -7 0.59 0.06
1 4 -7 0.58 0.05
-1 -4 7 0.59 0.04
0 4 -7 6.05 0.25
0 4 -7 6.19 0.26
0 -4 7 5.32 0.26
0 -4 7 6.85 0.29
-1 4 -7 5.44 0.23
-1 4 -7 5.23 0.23
1 -4 7 5.58 0.27
1 -4 7 5.74 0.25
-2 4 -7 10.97 0.45
-2 4 -7 11.01 0.45
2 -4 7 11.28 0.48
2 -4 7 10.87 0.51
-3 4 -7 3.05 0.16
3 -4 7 3.05 0.18
-4 4 -7 0.32 0.06
4 -4 7 0.31 0.09
4 -4 7 0.29 0.07
-5 4 -7 0.18 0.07
5 -4 7 -0.01 0.08
5 -4 7 0.15 0.07
5 3 -7 1.94 0.14
-5 -3 7 2.2 0.17
4 3 -7 -0.03 0.05
-4 -3 7 -0.02 0.05
-4 -3 7 0.08 0.06
3 3 -7 5.34 0.23
3 3 -7 5.26 0.25
-3 -3 7 4.97 0.26
-3 -3 7 5.38 0.25
1 3 -7 21.96 0.89
1 3 -7 22.48 0.94
-1 -3 7 24.1 1.01
-1 -3 7 22.99 0.95
0 3 -7 2.17 0.1
0 3 -7 2.08 0.11
0 -3 7 2.24 0.12
-1 3 -7 2.76 0.13
1 -3 7 2.84 0.14
1 -3 7 2.91 0.15
-2 3 -7 0.22 0.04
-2 3 -7 0.21 0.03
2 -3 7 0.21 0.04
2 -3 7 0.24 0.05
-3 3 -7 0.08 0.04
3 -3 7 -0.03 0.05
3 -3 7 0.04 0.04
-4 3 -7 0.92 0.09
4 -3 7 0.79 0.09
4 -3 7 0.85 0.1
-5 3 -7 0.61 0.09
5 -3 7 0.69 0.11
5 2 -7 0.93 0.1
-5 -2 7 0.84 0.11
-5 -2 7 0.73 0.1
4 2 -7 0.22 0.06
-4 -2 7 0.33 0.07
-4 -2 7 0.29 0.07
3 2 -7 0.28 0.05
3 2 -7 0.33 0.04
-3 -2 7 0.35 0.06
-3 -2 7 0.35 0.06
2 2 -7 2.48 0.11
2 2 -7 2.51 0.13
-2 -2 7 2.59 0.13
1 2 -7 13.08 0.53
1 2 -7 13.73 0.57
-1 -2 7 14.01 0.61
0 2 -7 35.79 1.41
0 2 -7 36.6 1.47
0 -2 7 36.41 1.58
-1 2 -7 40.86 1.59
1 -2 7 40.58 1.78
1 -2 7 41.3 1.68
-2 2 -7 7 0.29
-2 2 -7 6.05 0.29
2 -2 7 7.34 0.31
2 -2 7 7.27 0.32
-3 2 -7 0 0.02
-3 2 -7 0 0.03
3 -2 7 0.03 0.04
3 -2 7 0.02 0.05
-4 2 -7 0.73 0.07
4 -2 7 0.59 0.09
4 -2 7 0.67 0.08
-5 2 -7 0.54 0.08
5 -2 7 0.41 0.09
6 1 -7 0.65 0.11
-6 -1 7 0.5 0.11
5 1 -7 0.17 0.05
-5 -1 7 0.19 0.08
-5 -1 7 0.14 0.08
4 1 -7 2.07 0.13
-4 -1 7 2.36 0.16
-4 -1 7 2.11 0.15
3 1 -7 9 0.39
3 1 -7 8.87 0.36
-3 -1 7 9.24 0.41
2 1 -7 1.28 0.06
2 1 -7 1.25 0.08
-2 -1 7 1.31 0.09
-2 -1 7 1.25 0.08
1 1 -7 72.36 2.73
-1 -1 7 69.14 3.07
0 1 -7 17.47 0.67
0 1 -7 16.99 0.71
0 -1 7 17.39 0.76
-1 1 -7 20.13 0.84
1 -1 7 22.95 0.95
1 -1 7 21.75 0.9
-2 1 -7 26.68 1.06
2 -1 7 27.42 1.13
2 -1 7 26.88 1.18
-3 1 -7 0.22 0.03
3 -1 7 0.23 0.04
-4 1 -7 2.11 0.13
4 -1 7 2 0.12
4 -1 7 1.85 0.14
-5 1 -7 0.51 0.07
5 -1 7 0.54 0.09
-6 1 -7 0.96 0.11
6 -1 7 1 0.13
6 0 -7 0.28 0.1
5 0 -7 0.43 0.07
5 0 -7 0.44 0.1
-5 0 7 0.44 0.1
-5 0 7 0.31 0.09
4 0 -7 0.15 0.04
-4 0 7 0.12 0.06
-4 0 7 0.15 0.06
3 0 -7 3.36 0.16
-3 0 7 3.52 0.19
2 0 -7 -0.05 0.02
-2 0 7 -0.03 0.03
-2 0 7 -0.01 0.03
1 0 -7 11.08 0.47
-1 0 7 11.46 0.51
-1 0 7 11.68 0.49
0 0 -7 144.15 5.71
0 0 -7 139.07 5.47
0 0 7 140.22 6.15
0 0 7 143.59 5.8
-1 0 -7 20.27 0.82
-1 0 -7 19.51 0.79
1 0 7 20.35 0.88
1 0 7 20.22 0.83
-2 0 -7 82.51 3.26
-2 0 -7 83.9 3.13
2 0 7 72.52 3.31
2 0 7 83.92 3.49
-3 0 -7 0.84 0.07
3 0 7 0.88 0.06
-4 0 -7 5.34 0.25
-4 0 -7 5.65 0.26
4 0 7 5.73 0.28
-5 0 -7 2.44 0.15
5 0 7 2.08 0.16
-6 0 -7 0.19 0.07
6 0 7 0.28 0.09
6 -1 -7 0.2 0.1
5 -1 -7 0.07 0.08
-5 1 7 -0.04 0.07
-5 1 7 0.01 0.07
4 -1 -7 1.7 0.1
-4 1 7 1.64 0.14
-4 1 7 1.67 0.14
3 -1 -7 0.05 0.03
-3 1 7 0 0.01
-3 1 7 0.03 0.05
2 -1 -7 11.76 0.5
-2 1 7 12.18 0.55
-2 1 7 12.34 0.53
1 -1 -7 13.73 0.56
-1 1 7 13.72 0.58
-1 1 7 13.43 0.61
0 -1 -7 0.13 0.02
0 1 7 0.1 0.02
0 1 7 0.16 0.03
-1 -1 -7 5.11 0.22
-1 -1 -7 4.7 0.2
1 1 7 4.9 0.22
-2 -1 -7 17.1 0.68
-2 -1 -7 17.14 0.71
2 1 7 17 0.74
2 1 7 17.3 0.72
-3 -1 -7 0.18 0.04
3 1 7 0.12 0.04
3 1 7 0.21 0.03
-4 -1 -7 1.87 0.12
-4 -1 -7 1.76 0.13
4 1 7 2.03 0.14
-5 -1 -7 1.64 0.12
5 1 7 1.23 0.12
-6 -1 -7 -0.04 0.06
6 1 7 -0.04 0.07
5 -2 -7 0.17 0.08
-5 2 7 0.12 0.08
4 -2 -7 2.22 0.16
4 -2 -7 2.13 0.12
-4 2 7 2.12 0.17
-4 2 7 2.3 0.17
3 -2 -7 0 0.05
3 -2 -7 0.14 0.03
-3 2 7 0.09 0.05
-3 2 7 0.09 0.05
2 -2 -7 13.17 0.54
-2 2 7 12.91 0.6
-2 2 7 13.11 0.57
1 -2 -7 2.46 0.11
-1 2 7 1.91 0.12
-1 2 7 2.39 0.1
-1 2 7 2.44 0.13
0 -2 -7 1.68 0.08
0 -2 -7 1.69 0.09
0 2 7 1.68 0.09
0 2 7 1.4 0.09
-1 -2 -7 7.32 0.31
-1 -2 -7 6.93 0.32
-1 -2 -7 7.27 0.29
1 2 7 7.36 0.31
-2 -2 -7 0.08 0.04
-2 -2 -7 0.16 0.03
2 2 7 0.21 0.04
-3 -2 -7 0.11 0.04
-3 -2 -7 0.06 0.03
3 2 7 0.15 0.04
-4 -2 -7 8.48 0.35
-4 -2 -7 7.95 0.37
4 2 7 7.28 0.36
-5 -2 -7 0.78 0.09
5 2 7 0.99 0.11
-6 -2 -7 0.36 0.08
6 2 7 0.49 0.09
5 -3 -7 0.13 0.1
-5 3 7 -0.01 0.08
4 -3 -7 0.29 0.09
-4 3 7 0.28 0.09
3 -3 -7 0.14 0.03
3 -3 -7 0.07 0.06
-3 3 7 0.12 0.06
2 -3 -7 0.12 0.03
2 -3 -7 0.09 0.04
-2 3 7 0 0.05
-2 3 7 0.12 0.02
1 -3 -7 0.11 0.03
1 -3 -7 0.07 0.03
-1 3 7 0.19 0.02
-1 3 7 -0.04 0.04
-1 3 7 0.13 0.04
0 -3 -7 0.75 0.05
0 3 7 0.95 0.06
0 3 7 0.77 0.05
-1 -3 -7 0.01 0.02
-1 -3 -7 -0.03 0.01
1 3 7 0 0.02
-2 -3 -7 0.35 0.05
-2 -3 -7 0.39 0.05
2 3 7 0.46 0.05
-3 -3 -7 0.48 0.07
-3 -3 -7 0.57 0.06
3 3 7 0.62 0.07
-4 -3 -7 0.89 0.09
-4 -3 -7 0.78 0.09
4 3 7 0.73 0.08
-5 -3 -7 -0.01 0.05
-5 -3 -7 -0.04 0.06
5 3 7 0.02 0.06
-6 -3 -7 0.02 0.06
6 3 7 0.08 0.07
5 -4 -7 0.91 0.14
-5 4 7 0.62 0.13
4 -4 -7 0.13 0.07
-4 4 7 -0.01 0.07
3 -4 -7 0.72 0.1
-3 4 7 0.64 0.09
2 -4 -7 0.04 0.03
2 -4 -7 0.02 0.04
-2 4 7 0.02 0.04
-2 4 7 -0.01 0.01
1 -4 -7 0.06 0.04
1 -4 -7 0.05 0.03
-1 4 7 -0.05 0.03
-1 4 7 0.08 0.02
0 -4 -7 4.69 0.21
0 4 7 4.49 0.21
0 4 7 3.91 0.19
-1 -4 -7 5.13 0.22
-1 -4 -7 4.56 0.24
-1 -4 -7 5.05 0.23
1 4 7 5.06 0.22
1 4 7 5.21 0.22
-2 -4 -7 1.83 0.11
-2 -4 -7 1.81 0.12
2 4 7 1.8 0.1
-3 -4 -7 0.43 0.07
-3 -4 -7 0.35 0.06
3 4 7 0.42 0.05
-4 -4 -7 0.15 0.07
-4 -4 -7 0.2 0.06
4 4 7 0.19 0.06
-5 -4 -7 0.29 0.08
-5 -4 -7 0.29 0.07
5 4 7 0.34 0.07
6 4 7 0.03 0.06
5 -5 -7 -0.06 0.09
-5 5 7 -0.02 0.09
4 -5 -7 -0.08 0.08
-4 5 7 -0.07 0.06
3 -5 -7 0.01 0.07
-3 5 7 0.11 0.07
2 -5 -7 0.53 0.06
2 -5 -7 0.58 0.08
-2 5 7 0.5 0.05
-2 5 7 0.36 0.07
1 -5 -7 0 0.04
1 -5 -7 0 0.03
-1 5 7 0.05 0.02
-1 5 7 0.04 0.04
0 -5 -7 11.04 0.47
0 -5 -7 10.48 0.49
0 5 7 10.68 0.47
0 5 7 10.96 0.44
-1 -5 -7 9.05 0.4
-1 -5 -7 9.12 0.4
1 5 7 9.07 0.37
1 5 7 8.72 0.39
-2 -5 -7 2.95 0.15
2 5 7 2.84 0.14
2 5 7 3.04 0.15
-3 -5 -7 2.54 0.15
-3 -5 -7 2.39 0.17
3 5 7 2.54 0.14
-4 -5 -7 1.28 0.13
-4 -5 -7 1.3 0.11
4 5 7 1.36 0.1
-5 -5 -7 -0.01 0.06
-5 -5 -7 0.07 0.08
5 5 7 0.04 0.05
4 -6 -7 -0.06 0.09
-4 6 7 -0.04 0.08
3 -6 -7 0.25 0.08
-3 6 7 0.12 0.08
2 -6 -7 -0.01 0.04
2 -6 -7 0.03 0.06
-2 6 7 -0.07 0.06
-2 6 7 0.02 0.03
1 -6 -7 0.06 0.04
1 -6 -7 0.08 0.05
-1 6 7 0.08 0.03
-1 6 7 0.08 0.04
0 -6 -7 1.65 0.11
0 -6 -7 1.51 0.11
0 6 7 1.56 0.1
0 6 7 1.63 0.11
-1 -6 -7 3.24 0.17
-1 -6 -7 2.56 0.15
1 6 7 3.27 0.15
1 6 7 3.25 0.16
-2 -6 -7 9.66 0.45
2 6 7 9.64 0.42
2 6 7 9.82 0.41
-3 -6 -7 0.1 0.07
-3 -6 -7 0.08 0.05
3 6 7 0.1 0.04
3 6 7 0.02 0.05
-4 -6 -7 0 0.05
-4 -6 -7 -0.01 0.07
4 6 7 -0.03 0.06
4 6 7 -0.01 0.04
-5 -6 -7 0.26 0.09
-5 -6 -7 0.22 0.07
5 6 7 0.34 0.09
4 -7 -7 -0.01 0.09
-4 7 7 0.13 0.1
3 -7 -7 0.04 0.08
-3 7 7 -0.03 0.07
2 -7 -7 -0.04 0.05
-2 7 7 -0.05 0.03
-2 7 7 -0.07 0.05
1 -7 -7 1.82 0.14
1 -7 -7 1.84 0.13
-1 7 7 1.98 0.11
-1 7 7 1.91 0.14
0 -7 -7 4.39 0.23
0 -7 -7 4.34 0.23
0 7 7 4.51 0.2
0 7 7 4.14 0.22
-1 -7 -7 0.08 0.04
-1 -7 -7 0.1 0.06
1 7 7 0.04 0.04
1 7 7 0 0.04
-2 -7 -7 0.76 0.1
2 7 7 0.74 0.07
2 7 7 0.8 0.08
-3 -7 -7 3.33 0.21
3 7 7 3.35 0.19
3 7 7 3.14 0.17
-4 -7 -7 -0.08 0.07
4 7 7 0.04 0.06
-5 -7 -7 0.11 0.09
5 7 7 -0.02 0.07
3 -8 -7 0.19 0.09
-3 8 7 0.06 0.09
2 -8 -7 -0.08 0.06
-2 8 7 -0.12 0.05
1 -8 -7 0.31 0.07
1 -8 -7 0.41 0.07
-1 8 7 0.28 0.07
-1 8 7 0.3 0.05
0 -8 -7 0.33 0.06
0 -8 -7 0.32 0.07
0 8 7 0.34 0.07
0 8 7 0.27 0.06
-1 -8 -7 0.65 0.1
1 8 7 0.55 0.07
1 8 7 0.69 0.08
-2 -8 -7 2.55 0.19
2 8 7 2.81 0.16
2 8 7 2.45 0.15
-3 -8 -7 2.39 0.18
3 8 7 1.98 0.15
-4 -8 -7 0.45 0.11
4 8 7 0.46 0.09
3 -9 -7 0.07 0.08
-3 9 7 -0.12 0.08
2 -9 -7 0.43 0.1
-2 9 7 0.56 0.1
1 -9 -7 0.71 0.09
1 -9 -7 0.86 0.11
-1 9 7 0.84 0.09
-1 9 7 0.76 0.1
0 -9 -7 -0.03 0.05
0 -9 -7 -0.03 0.06
0 9 7 0 0.05
0 9 7 0.01 0.04
-1 -9 -7 -0.05 0.07
1 9 7 0.02 0.05
-2 -9 -7 0.31 0.09
2 9 7 0.32 0.07
-3 -9 -7 0.26 0.09
3 9 7 0.26 0.08
-4 -9 -7 0.26 0.1
4 9 7 0.21 0.09
2 -10 -7 0.02 0.08
-2 10 7 -0.03 0.07
1 -10 -7 0.04 0.07
-1 10 7 -0.01 0.06
-1 10 7 0.06 0.05
0 -10 -7 -0.06 0.06
0 -10 -7 0.05 0.06
0 10 7 0.06 0.05
-1 -10 -7 0.37 0.1
1 10 7 0.36 0.08
-2 -10 -7 0.96 0.13
2 10 7 0.79 0.11
-3 -10 -7 0.08 0.09
3 10 7 0 0.07
1 -11 -7 0.06 0.07
0 -11 -7 0.21 0.09
0 11 7 0.13 0.06
-1 -11 -7 1.04 0.13
1 11 7 0.95 0.11
-2 -11 -7 0.57 0.11
2 11 7 0.43 0.09
-1 -11 8 0.06 0.07
0 -11 8 0.01 0.08
-3 -10 8 0.01 0.07
2 10 -8 0.05 0.06
2 10 -8 -0.01 0.05
-2 -10 8 -0.08 0.07
-2 -10 8 0.06 0.07
1 10 -8 0.06 0.06
1 10 -8 0.04 0.06
-1 -10 8 0 0.07
0 10 -8 -0.08 0.05
0 -10 8 0.02 0.08
-1 10 -8 0.27 0.07
1 -10 8 0.08 0.08
2 -10 8 0.4 0.11
3 9 -8 0.04 0.06
3 9 -8 0 0.07
-3 -9 8 -0.08 0.07
-3 -9 8 -0.05 0.06
2 9 -8 0.15 0.07
2 9 -8 0.22 0.06
-2 -9 8 0.15 0.07
-2 -9 8 0.16 0.07
1 9 -8 0.21 0.06
1 9 -8 0.15 0.06
-1 -9 8 0.13 0.07
-1 -9 8 0.03 0.06
0 9 -8 0.4 0.07
0 -9 8 0.3 0.09
-2 9 -8 0.19 0.07
2 -9 8 0.17 0.09
3 -9 8 0.12 0.09
4 8 -8 0.27 0.08
-4 -8 8 0.1 0.07
-4 -8 8 0.07 0.08
3 8 -8 0 0.06
3 8 -8 0.05 0.05
-3 -8 8 0.06 0.07
-3 -8 8 0.02 0.06
2 8 -8 0.06 0.06
2 8 -8 0.09 0.05
-2 -8 8 -0.03 0.06
-2 -8 8 -0.01 0.05
1 8 -8 0.12 0.06
1 8 -8 0.06 0.05
-1 -8 8 0.03 0.06
-1 -8 8 0.08 0.06
0 8 -8 3.5 0.17
0 8 -8 3.42 0.18
0 -8 8 3.31 0.21
-1 8 -8 0.98 0.1
1 -8 8 0.82 0.11
-2 8 -8 -0.02 0.05
2 -8 8 -0.07 0.06
-3 8 -8 -0.01 0.06
3 -8 8 -0.02 0.07
4 7 -8 0.32 0.08
-4 -7 8 0.16 0.07
-4 -7 8 0.18 0.08
3 7 -8 0.33 0.08
3 7 -8 0.4 0.06
-3 -7 8 0.28 0.07
-3 -7 8 0.31 0.08
2 7 -8 0 0.04
2 7 -8 0.07 0.06
-2 -7 8 0.03 0.05
-2 -7 8 -0.06 0.06
1 7 -8 2.07 0.12
1 7 -8 1.97 0.13
-1 -7 8 1.9 0.14
0 7 -8 2.19 0.13
0 7 -8 2.23 0.13
0 -7 8 1.99 0.15
-1 7 -8 0.11 0.05
1 -7 8 0.13 0.06
-2 7 -8 0.1 0.05
2 -7 8 0.3 0.06
2 -7 8 0.07 0.05
-3 7 -8 0.01 0.06
3 -7 8 0.04 0.06
3 -7 8 0.09 0.07
-4 7 -8 0.06 0.06
4 -7 8 0.09 0.08
4 -7 8 0.02 0.08
5 6 -8 -0.02 0.06
-5 -6 8 -0.04 0.07
4 6 -8 0.01 0.06
-4 -6 8 -0.08 0.07
-4 -6 8 0.03 0.06
3 6 -8 0.36 0.07
3 6 -8 0.36 0.06
-3 -6 8 0.35 0.08
-3 -6 8 0.32 0.07
2 6 -8 3.53 0.17
2 6 -8 3.35 0.19
-2 -6 8 3.53 0.19
-2 -6 8 3.11 0.19
1 6 -8 6.56 0.3
1 6 -8 6.53 0.28
-1 -6 8 6.59 0.33
0 6 -8 1.44 0.09
0 6 -8 1.57 0.1
0 -6 8 1.32 0.12
-1 6 -8 0.12 0.03
-1 6 -8 0.06 0.04
1 -6 8 0.09 0.05
1 -6 8 0.07 0.04
-2 6 -8 0.02 0.04
2 -6 8 -0.01 0.05
2 -6 8 -0.01 0.05
-3 6 -8 0.01 0.05
3 -6 8 0 0.07
3 -6 8 0 0.06
-4 6 -8 0.74 0.09
4 -6 8 0.87 0.12
5 5 -8 0.19 0.07
-5 -5 8 0.17 0.08
4 5 -8 -0.02 0.06
-4 -5 8 0.08 0.06
3 5 -8 4.03 0.19
3 5 -8 3.86 0.21
-3 -5 8 3.81 0.22
2 5 -8 5.29 0.23
2 5 -8 5.29 0.25
-2 -5 8 4.99 0.26
1 5 -8 -0.04 0.03
1 5 -8 0.03 0.03
-1 -5 8 0 0.01
0 5 -8 0.99 0.07
0 5 -8 1.03 0.07
0 -5 8 0.74 0.08
-1 5 -8 0.13 0.03
-1 5 -8 0.1 0.04
1 -5 8 0.12 0.04
1 -5 8 0.11 0.05
-2 5 -8 0.2 0.04
2 -5 8 0.28 0.06
2 -5 8 0.21 0.05
-3 5 -8 -0.02 0.04
3 -5 8 -0.08 0.06
3 -5 8 0.07 0.06
-4 5 -8 0.88 0.09
4 -5 8 0.9 0.11
-5 5 -8 1.51 0.13
5 -5 8 1.74 0.17
5 4 -8 0.01 0.06
-5 -4 8 0 0.07
4 4 -8 -0.03 0.06
-4 -4 8 0.05 0.06
3 4 -8 0.92 0.08
3 4 -8 0.78 0.09
-3 -4 8 0.97 0.09
2 4 -8 0.03 0.03
2 4 -8 0.08 0.04
-2 -4 8 0.09 0.03
1 4 -8 3.75 0.18
1 4 -8 3.65 0.16
-1 -4 8 3.86 0.17
0 4 -8 0.51 0.05
0 4 -8 0.62 0.05
0 -4 8 0.55 0.07
-1 4 -8 0.72 0.06
-1 4 -8 0.79 0.05
1 -4 8 0.79 0.07
1 -4 8 0.9 0.07
-2 4 -8 2.16 0.12
2 -4 8 2.24 0.14
2 -4 8 2.19 0.13
-3 4 -8 3.14 0.16
3 -4 8 2.84 0.18
3 -4 8 2.97 0.18
-4 4 -8 0.06 0.06
4 -4 8 0.06 0.06
4 -4 8 0.11 0.08
-5 4 -8 0.12 0.07
5 -4 8 0.19 0.09
5 3 -8 0.77 0.09
-5 -3 8 0.75 0.11
4 3 -8 4.42 0.23
-4 -3 8 4.92 0.24
-4 -3 8 4.48 0.25
3 3 -8 0.02 0.05
-3 -3 8 0.11 0.05
-3 -3 8 0.11 0.05
2 3 -8 0.53 0.04
-2 -3 8 0.53 0.06
1 3 -8 0.66 0.05
1 3 -8 0.69 0.06
-1 -3 8 0.81 0.07
0 3 -8 0.47 0.04
0 3 -8 0.49 0.04
0 -3 8 0.44 0.05
0 -3 8 0.37 0.04
-1 3 -8 0.34 0.03
-1 3 -8 0.3 0.04
1 -3 8 0.32 0.04
1 -3 8 0.26 0.05
-2 3 -8 1.35 0.08
2 -3 8 1.37 0.1
2 -3 8 1.31 0.09
-3 3 -8 0.16 0.04
3 -3 8 0.01 0.05
3 -3 8 0.08 0.06
-4 3 -8 3 0.15
4 -3 8 2.5 0.17
4 -3 8 2.36 0.17
-5 3 -8 0.79 0.1
5 -3 8 0.79 0.11
5 2 -8 0.46 0.07
-5 -2 8 0.43 0.09
-5 -2 8 0.4 0.1
4 2 -8 0.42 0.07
-4 -2 8 0.38 0.08
-4 -2 8 0.53 0.08
3 2 -8 1.12 0.09
-3 -2 8 1.09 0.1
-3 -2 8 1.13 0.1
2 2 -8 1.8 0.12
2 2 -8 2.44 0.1
-2 -2 8 2.47 0.13
1 2 -8 1.82 0.1
1 2 -8 1.92 0.08
-1 -2 8 1.83 0.1
-1 -2 8 1.6 0.09
0 2 -8 19.11 0.75
0 2 -8 19 0.79
0 -2 8 19.09 0.79
0 -2 8 19.49 0.85
-1 2 -8 44.45 1.84
-1 2 -8 45.3 1.77
1 -2 8 47.3 1.99
1 -2 8 45.28 1.88
-2 2 -8 6.68 0.28
-2 2 -8 5.87 0.28
2 -2 8 6.89 0.3
2 -2 8 6.97 0.31
-3 2 -8 0.78 0.07
3 -2 8 0.52 0.07
3 -2 8 0.85 0.09
-4 2 -8 -0.04 0.04
4 -2 8 -0.01 0.05
4 -2 8 0.02 0.06
-5 2 -8 1.61 0.13
5 -2 8 1.74 0.16
5 1 -8 0 0.05
-5 -1 8 -0.03 0.07
-5 -1 8 0.02 0.07
4 1 -8 4.12 0.21
-4 -1 8 4.2 0.23
-4 -1 8 4.19 0.24
3 1 -8 0.37 0.05
-3 -1 8 0.53 0.07
-3 -1 8 0.37 0.06
2 1 -8 3.1 0.15
2 1 -8 2.87 0.12
-2 -1 8 2.86 0.16
-2 -1 8 3.15 0.16
1 1 -8 0.26 0.02
-1 -1 8 0.39 0.04
-1 -1 8 0.24 0.04
0 1 -8 1.55 0.08
0 1 -8 1.56 0.07
0 -1 8 1.6 0.08
0 -1 8 1.67 0.09
-1 1 -8 0.1 0.03
-1 1 -8 0.11 0.03
1 -1 8 0.1 0.03
1 -1 8 0.1 0.03
-2 1 -8 3.67 0.17
-2 1 -8 3.67 0.17
2 -1 8 3.69 0.18
2 -1 8 3.85 0.18
-3 1 -8 6.5 0.29
-3 1 -8 6.85 0.29
3 -1 8 6.86 0.31
3 -1 8 6.47 0.31
-4 1 -8 1.1 0.1
4 -1 8 1.05 0.11
-5 1 -8 1.14 0.11
5 -1 8 0.95 0.11
5 0 -8 0.07 0.05
-5 0 8 0.11 0.08
-5 0 8 -0.04 0.07
4 0 -8 1.9 0.12
-4 0 8 2.15 0.16
-4 0 8 2.11 0.16
3 0 -8 0.11 0.04
-3 0 8 0.14 0.05
-3 0 8 0.17 0.05
2 0 -8 2.8 0.13
-2 0 8 2.63 0.15
-2 0 8 2.83 0.15
1 0 -8 12.42 0.51
-1 0 8 12.23 0.52
-1 0 8 11.94 0.55
0 0 -8 43.61 1.67
0 0 -8 44.32 1.75
0 0 8 42.61 1.78
0 0 8 42.57 1.88
-1 0 -8 5.93 0.25
-1 0 -8 6.05 0.27
1 0 8 6.3 0.27
1 0 8 6.43 0.28
-2 0 -8 1.11 0.07
-2 0 -8 0.99 0.07
2 0 8 1.14 0.06
2 0 8 0.97 0.08
-3 0 -8 2.39 0.13
-3 0 -8 2.52 0.13
3 0 8 2.45 0.13
-4 0 -8 1.16 0.09
4 0 8 0.97 0.11
-5 0 -8 1.12 0.11
5 0 8 1.47 0.14
-6 0 -8 0.19 0.07
6 0 8 0.37 0.09
5 -1 -8 0.26 0.09
-5 1 8 0.13 0.08
-5 1 8 0.23 0.09
4 -1 -8 1.2 0.09
-4 1 8 0.91 0.12
-4 1 8 1.16 0.13
3 -1 -8 1.02 0.07
-3 1 8 0.97 0.09
-3 1 8 1.05 0.1
2 -1 -8 29.88 1.24
-2 1 8 30.72 1.28
-2 1 8 30.86 1.35
1 -1 -8 3.58 0.16
-1 1 8 3.35 0.17
-1 1 8 3.48 0.17
0 -1 -8 5.21 0.21
0 1 8 5.27 0.24
0 1 8 5.18 0.23
-1 -1 -8 35.96 1.44
-1 -1 -8 34.06 1.37
1 1 8 36 1.53
-2 -1 -8 4.54 0.2
-2 -1 -8 4.72 0.22
2 1 8 4.54 0.2
-3 -1 -8 6.19 0.29
-3 -1 -8 6.31 0.27
3 1 8 6.03 0.29
-4 -1 -8 1.27 0.1
-4 -1 -8 0.92 0.1
4 1 8 1.16 0.1
-5 -1 -8 1.76 0.13
5 1 8 1.81 0.15
-6 -1 -8 0.05 0.06
6 1 8 -0.06 0.06
5 -2 -8 0.21 0.09
-5 2 8 0.15 0.09
4 -2 -8 1.28 0.13
4 -2 -8 1.27 0.09
-4 2 8 1.16 0.13
-4 2 8 1.09 0.12
3 -2 -8 1.01 0.1
3 -2 -8 1.03 0.07
-3 2 8 1.09 0.11
-3 2 8 1.02 0.1
2 -2 -8 2.17 0.11
-2 2 8 2.06 0.13
-2 2 8 2.25 0.13
1 -2 -8 53.75 2.13
-1 2 8 53.12 2.17
-1 2 8 52.46 2.29
-1 2 8 50.98 2.03
0 -2 -8 9.66 0.39
0 -2 -8 9.82 0.41
0 2 8 9.97 0.44
-1 -2 -8 56.26 2.2
-1 -2 -8 56.73 2.31
1 2 8 57.33 2.33
1 2 8 57.03 2.46
-2 -2 -8 20.41 0.81
-2 -2 -8 19.79 0.85
2 2 8 20.7 0.85
-3 -2 -8 10.26 0.42
-3 -2 -8 9.56 0.44
3 2 8 9.91 0.44
-4 -2 -8 4 0.2
-4 -2 -8 3.85 0.22
4 2 8 4.08 0.21
-5 -2 -8 1.47 0.12
5 2 8 1.3 0.12
-6 -2 -8 0.78 0.1
6 2 8 1.01 0.11
5 -3 -8 0.37 0.1
-5 3 8 0.19 0.1
4 -3 -8 0.33 0.09
-4 3 8 0.25 0.08
3 -3 -8 1.11 0.12
3 -3 -8 1.17 0.08
-3 3 8 0.92 0.11
-3 3 8 1.09 0.12
2 -3 -8 0.45 0.05
2 -3 -8 0.38 0.06
-2 3 8 0.54 0.07
1 -3 -8 0.99 0.07
1 -3 -8 0.89 0.07
-1 3 8 0.96 0.05
-1 3 8 0.88 0.08
-1 3 8 0.88 0.08
0 -3 -8 4.27 0.19
0 3 8 3.99 0.19
-1 -3 -8 1.4 0.08
-1 -3 -8 1.27 0.09
-1 -3 -8 1.37 0.07
1 3 8 1.36 0.08
-2 -3 -8 0.08 0.04
-2 -3 -8 0.06 0.03
2 3 8 0.23 0.04
-3 -3 -8 2.84 0.15
-3 -3 -8 2.87 0.17
3 3 8 2.9 0.15
-4 -3 -8 1.01 0.12
-4 -3 -8 1.13 0.1
4 3 8 1.2 0.1
-5 -3 -8 0.22 0.07
-5 -3 -8 0.12 0.06
5 3 8 0.14 0.07
5 -4 -8 0.2 0.1
-5 4 8 0.11 0.1
4 -4 -8 0.01 0.08
-4 4 8 0.03 0.07
3 -4 -8 0.82 0.07
3 -4 -8 0.71 0.1
-3 4 8 0.65 0.09
2 -4 -8 0.63 0.06
2 -4 -8 0.57 0.07
-2 4 8 0.5 0.07
1 -4 -8 5.13 0.23
1 -4 -8 5.15 0.25
-1 4 8 5.11 0.25
0 -4 -8 2.87 0.15
0 -4 -8 2.51 0.14
0 4 8 2.81 0.13
0 4 8 2.82 0.15
-1 -4 -8 15.45 0.63
-1 -4 -8 15.65 0.69
1 4 8 15.84 0.63
1 4 8 15.65 0.66
-2 -4 -8 4.5 0.23
-2 -4 -8 4.61 0.21
2 4 8 4.4 0.21
-3 -4 -8 8.67 0.38
-3 -4 -8 8.92 0.41
3 4 8 8.67 0.39
-4 -4 -8 4.89 0.26
-4 -4 -8 4.83 0.24
4 4 8 4.78 0.24
-5 -4 -8 1.06 0.12
-5 -4 -8 1 0.11
5 4 8 1.24 0.11
5 -5 -8 -0.04 0.09
4 -5 -8 -0.04 0.08
-4 5 8 -0.02 0.07
3 -5 -8 0.13 0.07
-3 5 8 0.1 0.07
2 -5 -8 0.16 0.04
2 -5 -8 0.08 0.05
-2 5 8 0.11 0.06
1 -5 -8 0.19 0.05
1 -5 -8 0.2 0.04
-1 5 8 0.19 0.05
-1 5 8 0.2 0.03
0 -5 -8 1.19 0.09
0 -5 -8 1.21 0.1
0 5 8 1.25 0.08
0 5 8 1.19 0.09
-1 -5 -8 4.22 0.22
-1 -5 -8 4.3 0.2
1 5 8 4.33 0.21
1 5 8 4.44 0.2
-2 -5 -8 1.53 0.1
-2 -5 -8 1.3 0.11
2 5 8 1.49 0.09
2 5 8 1.45 0.1
-3 -5 -8 4.98 0.26
-3 -5 -8 5.02 0.23
3 5 8 4.51 0.23
-4 -5 -8 0.03 0.05
-4 -5 -8 0.01 0.07
4 5 8 0.02 0.04
-5 -5 -8 0.04 0.06
-5 -5 -8 0.14 0.07
5 5 8 0.01 0.05
4 -6 -8 0.15 0.1
-4 6 8 0.01 0.09
3 -6 -8 -0.09 0.07
-3 6 8 -0.11 0.07
2 -6 -8 0.14 0.05
2 -6 -8 0.27 0.07
-2 6 8 0.11 0.07
1 -6 -8 0.09 0.05
1 -6 -8 0.03 0.04
-1 6 8 0.14 0.03
-1 6 8 0.11 0.05
0 -6 -8 0.61 0.07
0 -6 -8 0.49 0.06
0 6 8 0.51 0.06
0 6 8 0.4 0.06
-1 -6 -8 3.15 0.18
1 6 8 3.24 0.16
1 6 8 3.09 0.16
-2 -6 -8 0.27 0.07
2 6 8 0.24 0.06
2 6 8 0.24 0.04
-3 -6 -8 0.12 0.05
-3 -6 -8 -0.02 0.06
3 6 8 0.13 0.06
3 6 8 -0.03 0.04
-4 -6 -8 0.15 0.08
-4 -6 -8 0.13 0.06
4 6 8 0.13 0.06
4 6 8 0.08 0.05
-5 -6 -8 -0.04 0.06
-5 -6 -8 -0.05 0.07
5 6 8 0 0.05
5 6 8 -0.04 0.07
4 -7 -8 -0.1 0.08
-4 7 8 -0.08 0.09
3 -7 -8 -0.01 0.08
-3 7 8 -0.01 0.07
2 -7 -8 0.03 0.06
2 -7 -8 0.03 0.05
-2 7 8 -0.02 0.07
1 -7 -8 1.15 0.11
1 -7 -8 1.21 0.11
-1 7 8 1.29 0.09
-1 7 8 1.25 0.11
0 -7 -8 3.05 0.17
0 -7 -8 2.97 0.18
0 7 8 3.01 0.17
0 7 8 3 0.15
-1 -7 -8 0.63 0.09
1 7 8 0.65 0.07
1 7 8 0.59 0.07
-2 -7 -8 0.17 0.07
2 7 8 0.25 0.06
2 7 8 0.2 0.05
-3 -7 -8 0.62 0.1
3 7 8 0.77 0.08
3 7 8 0.83 0.1
-4 -7 -8 0.06 0.08
4 7 8 0.05 0.07
-5 -7 -8 0.23 0.08
-5 -7 -8 0.16 0.09
5 7 8 0.03 0.07
3 -8 -8 -0.09 0.06
-3 8 8 -0.07 0.08
2 -8 -8 0.02 0.06
-2 8 8 -0.03 0.07
1 -8 -8 0.43 0.08
1 -8 -8 0.49 0.08
-1 8 8 0.54 0.06
-1 8 8 0.42 0.08
0 -8 -8 0.31 0.07
0 -8 -8 0.36 0.06
0 8 8 0.34 0.06
0 8 8 0.3 0.07
-1 -8 -8 1.23 0.13
1 8 8 1.24 0.11
1 8 8 1.13 0.1
-2 -8 -8 0.17 0.08
2 8 8 0.26 0.07
2 8 8 0.22 0.06
-3 -8 -8 0.21 0.08
3 8 8 0.12 0.07
-4 -8 -8 0.86 0.13
4 8 8 0.77 0.11
3 -9 -8 0.08 0.09
2 -9 -8 0.33 0.09
-2 9 8 0.22 0.08
1 -9 -8 0.94 0.11
1 -9 -8 0.85 0.1
-1 9 8 0.72 0.08
-1 9 8 0.84 0.1
0 -9 -8 0.08 0.05
0 -9 -8 0.06 0.07
0 9 8 0.03 0.06
0 9 8 0.08 0.05
-1 -9 -8 0.26 0.09
1 9 8 0.25 0.07
1 9 8 0.17 0.06
-2 -9 -8 0.78 0.12
2 9 8 0.49 0.09
-3 -9 -8 0.08 0.08
3 9 8 -0.04 0.07
-4 -9 -8 0.02 0.09
4 9 8 -0.02 0.07
2 -10 -8 0.06 0.08
-2 10 8 0.02 0.08
1 -10 -8 0.04 0.07
-1 10 8 0.02 0.05
-1 10 8 0.01 0.07
0 -10 -8 0.04 0.07
0 10 8 0.06 0.05
-1 -10 -8 1.2 0.14
1 10 8 1.59 0.13
-2 -10 -8 0.99 0.13
2 10 8 1.06 0.12
-3 -10 -8 0.21 0.1
3 10 8 0.21 0.09
0 -11 -8 0.04 0.08
0 11 8 0.06 0.06
-1 -11 -8 0.11 0.09
1 11 8 0.12 0.07
2 10 -9 0.13 0.07
2 10 -9 0.15 0.06
-2 -10 9 0.18 0.08
1 10 -9 0.02 0.05
1 10 -9 0.01 0.05
-1 -10 9 0 0.07
0 10 -9 0.08 0.06
0 -10 9 0.04 0.09
-1 10 -9 -0.02 0.06
1 -10 9 0.11 0.09
3 9 -9 0.12 0.06
3 9 -9 -0.05 0.06
-3 -9 9 0.04 0.07
-3 -9 9 -0.18 0.07
2 9 -9 0.38 0.06
2 9 -9 0.37 0.07
-2 -9 9 0.12 0.07
1 9 -9 0.05 0.05
1 9 -9 0.11 0.06
-1 -9 9 0.01 0.06
0 9 -9 0.21 0.06
0 -9 9 0.27 0.09
1 -9 9 0.67 0.11
-2 9 -9 0.63 0.09
2 -9 9 0.64 0.12
4 8 -9 -0.03 0.06
-4 -8 9 -0.06 0.06
3 8 -9 0.03 0.06
3 8 -9 0.12 0.05
-3 -8 9 0.07 0.07
2 8 -9 -0.01 0.05
2 8 -9 -0.01 0.04
-2 -8 9 0.01 0.06
1 8 -9 0.04 0.05
1 8 -9 0 0.04
-1 -8 9 0.04 0.05
0 8 -9 0.73 0.08
0 8 -9 0.74 0.07
0 -8 9 0.55 0.09
-2 8 -9 0.23 0.06
2 -8 9 0.1 0.08
-3 8 -9 0.13 0.07
3 -8 9 0.14 0.07
4 7 -9 0.16 0.07
-4 -7 9 0.22 0.08
3 7 -9 0.91 0.09
3 7 -9 0.54 0.08
-3 -7 9 0.53 0.09
2 7 -9 0.41 0.06
2 7 -9 0.33 0.07
-2 -7 9 0.28 0.07
1 7 -9 0.43 0.07
1 7 -9 0.36 0.06
-1 -7 9 0.31 0.07
0 7 -9 2.5 0.15
0 7 -9 2.59 0.14
0 -7 9 2.81 0.18
1 -7 9 0.69 0.1
-2 7 -9 0.46 0.07
2 -7 9 0.49 0.09
-3 7 -9 0.15 0.07
3 -7 9 0.21 0.07
3 -7 9 0.11 0.07
4 -7 9 0.32 0.09
4 -7 9 0.6 0.1
-5 -6 9 0.03 0.08
4 6 -9 0.18 0.07
-4 -6 9 0.11 0.07
3 6 -9 0.21 0.07
3 6 -9 0.28 0.05
-3 -6 9 0.17 0.06
2 6 -9 0.66 0.08
2 6 -9 0.66 0.07
-2 -6 9 0.61 0.08
1 6 -9 4.58 0.21
1 6 -9 4.61 0.23
-1 -6 9 5.21 0.26
0 6 -9 8.75 0.35
0 6 -9 8.49 0.37
0 -6 9 8.02 0.41
-1 6 -9 0.44 0.06
-1 6 -9 0.47 0.05
1 -6 9 0.5 0.06
-2 6 -9 -0.04 0.04
2 -6 9 0 0.05
2 -6 9 -0.05 0.06
-3 6 -9 0.55 0.08
3 -6 9 0.56 0.09
3 -6 9 0.71 0.1
-4 6 -9 0.4 0.07
4 -6 9 0.39 0.09
5 5 -9 0.28 0.08
-5 -5 9 0.25 0.08
4 5 -9 0.58 0.08
-4 -5 9 0.72 0.1
3 5 -9 0.16 0.06
-3 -5 9 0.15 0.06
2 5 -9 1.54 0.09
2 5 -9 1.46 0.11
-2 -5 9 1.41 0.11
1 5 -9 0.31 0.05
1 5 -9 0.4 0.04
-1 -5 9 0.36 0.06
0 5 -9 8.54 0.37
0 5 -9 8.78 0.36
0 -5 9 8.76 0.37
0 -5 9 8.79 0.41
-1 5 -9 0.97 0.07
-1 5 -9 0.96 0.07
1 -5 9 1.03 0.08
1 -5 9 0.91 0.09
-2 5 -9 -0.01 0.04
2 -5 9 -0.06 0.05
2 -5 9 -0.05 0.04
-3 5 -9 0.53 0.07
3 -5 9 0.49 0.08
3 -5 9 0.4 0.08
-4 5 -9 1.73 0.13
4 -5 9 1.39 0.14
5 4 -9 -0.06 0.06
-5 -4 9 -0.1 0.07
4 4 -9 0.39 0.07
-4 -4 9 0.45 0.08
3 4 -9 4.86 0.24
-3 -4 9 4.72 0.26
2 4 -9 7.54 0.29
2 4 -9 7.36 0.32
-2 -4 9 6.29 0.34
1 4 -9 7.66 0.34
1 4 -9 7.65 0.31
-1 -4 9 7.72 0.37
0 4 -9 1.06 0.07
0 4 -9 0.84 0.06
0 -4 9 1.01 0.08
0 -4 9 0.95 0.06
-1 4 -9 0.38 0.04
-1 4 -9 0.32 0.04
1 -4 9 0.45 0.05
1 -4 9 0.26 0.05
-2 4 -9 2.78 0.14
-2 4 -9 2.65 0.13
2 -4 9 2.72 0.15
2 -4 9 2.56 0.15
-3 4 -9 4.31 0.19
3 -4 9 3.09 0.2
3 -4 9 4.15 0.22
-4 4 -9 0.32 0.07
4 -4 9 0.33 0.09
4 -4 9 0.3 0.08
-5 4 -9 0.66 0.09
5 -4 9 0.79 0.12
5 3 -9 0.16 0.06
-5 -3 9 0.17 0.08
4 3 -9 4.12 0.21
-4 -3 9 3.44 0.22
-4 -3 9 3.76 0.22
3 3 -9 11.11 0.49
-3 -3 9 11.42 0.5
-3 -3 9 11.53 0.54
-2 -3 9 0.58 0.06
1 3 -9 4.12 0.2
1 3 -9 4.18 0.18
-1 -3 9 4.26 0.2
-1 -3 9 4.36 0.22
0 3 -9 0.3 0.03
0 3 -9 0.31 0.04
0 -3 9 0.43 0.04
-1 3 -9 0.64 0.05
-1 3 -9 0.53 0.05
1 -3 9 0.48 0.06
1 -3 9 0.51 0.05
-2 3 -9 1.96 0.11
-2 3 -9 1.79 0.1
2 -3 9 1.9 0.12
2 -3 9 1.73 0.11
-3 3 -9 0.08 0.04
3 -3 9 -0.01 0.06
3 -3 9 0.04 0.05
-4 3 -9 6.07 0.28
4 -3 9 6.08 0.31
-5 3 -9 1.38 0.13
5 -3 9 1.55 0.15
5 2 -9 -0.03 0.06
-5 -2 9 0.03 0.08
-5 -2 9 -0.01 0.07
4 2 -9 0.42 0.07
-4 -2 9 0.37 0.08
-4 -2 9 0.51 0.08
3 2 -9 0.03 0.04
-3 -2 9 0.23 0.06
-3 -2 9 0.2 0.06
2 2 -9 0.56 0.04
-2 -2 9 0.62 0.07
-2 -2 9 0.42 0.06
1 2 -9 1.81 0.08
1 2 -9 1.87 0.1
-1 -2 9 1.9 0.11
-1 -2 9 1.96 0.11
0 2 -9 5.68 0.24
0 2 -9 5.71 0.25
0 -2 9 5.89 0.26
0 -2 9 6.15 0.28
-1 2 -9 6.93 0.29
-1 2 -9 7.16 0.3
1 -2 9 6.94 0.33
1 -2 9 7.16 0.31
-2 2 -9 3.72 0.17
-2 2 -9 3.62 0.17
2 -2 9 3.75 0.19
2 -2 9 3.8 0.19
-3 2 -9 0.33 0.05
3 -2 9 0.41 0.07
3 -2 9 0.42 0.06
-4 2 -9 0.01 0.05
4 -2 9 -0.07 0.07
-5 2 -9 0.39 0.08
5 -2 9 0.27 0.09
5 1 -9 0.82 0.09
-5 -1 9 0.82 0.12
-5 -1 9 0.91 0.12
4 1 -9 0.91 0.1
-4 -1 9 0.75 0.1
-4 -1 9 0.68 0.1
3 1 -9 0.01 0.04
-3 -1 9 0.02 0.04
-3 -1 9 0.01 0.05
2 1 -9 6.31 0.27
-2 -1 9 5.93 0.3
-2 -1 9 6.15 0.29
1 1 -9 2.2 0.1
-1 -1 9 2.32 0.12
-1 -1 9 2.32 0.13
0 1 -9 0.27 0.03
0 1 -9 0.27 0.03
0 -1 9 0.3 0.04
0 -1 9 0.34 0.04
-1 1 -9 0.24 0.03
-1 1 -9 0.17 0.03
1 -1 9 0.34 0.04
1 -1 9 0.27 0.03
-2 1 -9 0.16 0.03
-2 1 -9 0.17 0.04
2 -1 9 0.12 0.03
2 -1 9 0.06 0.04
-3 1 -9 3.36 0.17
-3 1 -9 3.42 0.16
3 -1 9 3.14 0.18
3 -1 9 3.24 0.17
-4 1 -9 2.55 0.15
4 -1 9 2.24 0.16
-5 1 -9 0.52 0.08
5 -1 9 0.52 0.09
5 0 -9 0.24 0.06
-5 0 9 0.23 0.1
-5 0 9 0.19 0.09
4 0 -9 0.04 0.05
-4 0 9 0.02 0.07
-4 0 9 0.02 0.06
3 0 -9 2.72 0.14
-3 0 9 2.71 0.16
-3 0 9 2.8 0.17
2 0 -9 0.85 0.07
-2 0 9 0.83 0.08
-2 0 9 0.84 0.08
1 0 -9 0.03 0.02
-1 0 9 0.02 0.03
-1 0 9 0.05 0.03
0 0 -9 26.98 1.11
0 0 -9 27.76 1.06
0 0 9 27.28 1.2
0 0 9 27.15 1.13
-1 0 -9 52.2 2.17
-1 0 -9 52.58 2.08
1 0 9 53.99 2.2
1 0 9 55.28 2.32
-2 0 -9 5.93 0.24
-2 0 -9 5.85 0.26
2 0 9 4.78 0.26
2 0 9 6.14 0.26
-3 0 -9 0.47 0.05
-3 0 -9 0.48 0.06
3 0 9 0.48 0.07
-4 0 -9 2.13 0.13
4 0 9 1.88 0.14
-5 0 -9 -0.03 0.05
5 0 9 -0.02 0.06
5 -1 -9 0.79 0.12
-5 1 9 0.91 0.13
-5 1 9 0.76 0.13
4 -1 -9 0.03 0.04
-4 1 9 0.04 0.07
-4 1 9 0.01 0.07
3 -1 -9 2.08 0.11
-3 1 9 2.1 0.15
-3 1 9 1.86 0.14
2 -1 -9 3.19 0.15
-2 1 9 3.18 0.18
-2 1 9 3.25 0.18
1 -1 -9 0.09 0.03
-1 1 9 0.12 0.04
-1 1 9 0.05 0.03
0 -1 -9 3.99 0.2
0 -1 -9 4.78 0.19
0 1 9 4.64 0.21
0 1 9 4.84 0.22
-1 -1 -9 0.17 0.03
1 1 9 0.18 0.03
1 1 9 0.19 0.02
-2 -1 -9 5.12 0.24
-2 -1 -9 5 0.22
2 1 9 5.05 0.23
-3 -1 -9 4.45 0.22
-3 -1 -9 4.52 0.21
3 1 9 4.64 0.23
-4 -1 -9 2.6 0.16
-4 -1 -9 2.72 0.15
4 1 9 2.88 0.17
-5 -1 -9 1.01 0.11
5 1 9 1.06 0.12
5 -2 -9 0.16 0.09
-5 2 9 0.26 0.1
4 -2 -9 0.1 0.04
4 -2 -9 0.07 0.07
-4 2 9 0.14 0.08
-4 2 9 0.05 0.07
3 -2 -9 0.62 0.07
-3 2 9 0.67 0.09
-3 2 9 0.56 0.09
2 -2 -9 2.54 0.13
-2 2 9 2.84 0.16
-2 2 9 2.61 0.16
1 -2 -9 5.89 0.26
-1 2 9 5.7 0.27
-1 2 9 5.73 0.28
0 -2 -9 0.35 0.03
0 -2 -9 0.22 0.04
0 2 9 0.33 0.04
-1 -2 -9 10.65 0.46
-1 -2 -9 10.75 0.43
1 2 9 10.57 0.46
1 2 9 10.79 0.47
-2 -2 -9 0.4 0.06
-2 -2 -9 0.32 0.04
2 2 9 0.55 0.06
-3 -2 -9 2.3 0.13
-3 -2 -9 2.18 0.14
3 2 9 2.34 0.14
-4 -2 -9 1.26 0.12
-4 -2 -9 1.25 0.1
4 2 9 1.29 0.12
-5 -2 -9 1.05 0.11
5 2 9 1.14 0.12
5 -3 -9 0.24 0.1
-5 3 9 0.13 0.1
4 -3 -9 0.04 0.08
-4 3 9 -0.06 0.07
3 -3 -9 3.99 0.19
3 -3 -9 4.05 0.23
-3 3 9 4.16 0.24
-3 3 9 4.34 0.23
2 -3 -9 2.8 0.14
2 -3 -9 3.06 0.16
-2 3 9 2.79 0.16
-2 3 9 2.17 0.15
1 -3 -9 0.34 0.05
1 -3 -9 0.44 0.05
-1 3 9 0.34 0.03
-1 3 9 0.28 0.05
0 -3 -9 0.16 0.04
0 -3 -9 0.11 0.03
0 3 9 0.27 0.04
0 3 9 0.18 0.04
-1 -3 -9 5.25 0.22
-1 -3 -9 5.07 0.23
1 3 9 5.17 0.23
-2 -3 -9 8.93 0.38
-2 -3 -9 9.05 0.41
2 3 9 9.16 0.4
-3 -3 -9 2.66 0.16
-3 -3 -9 2.78 0.15
3 3 9 2.79 0.15
-4 -3 -9 2.13 0.14
-4 -3 -9 2.19 0.16
4 3 9 2.32 0.15
-5 -3 -9 -0.02 0.05
-5 -3 -9 0.04 0.06
5 3 9 0.02 0.06
5 -4 -9 0 0.09
-5 4 9 0.04 0.1
4 -4 -9 -0.02 0.07
-4 4 9 -0.01 0.08
3 -4 -9 1.9 0.12
3 -4 -9 1.93 0.16
-3 4 9 2.29 0.16
2 -4 -9 2.53 0.15
2 -4 -9 2.4 0.13
-2 4 9 2.34 0.15
1 -4 -9 0.02 0.03
1 -4 -9 0 0.03
-1 4 9 0.01 0.04
0 -4 -9 23.58 1.07
0 -4 -9 24.45 1.01
0 4 9 25.15 1.02
0 4 9 23.83 0.95
-1 -4 -9 0.35 0.04
-1 -4 -9 0.5 0.05
1 4 9 0.51 0.05
1 4 9 0.42 0.05
-2 -4 -9 3.74 0.2
-2 -4 -9 3.78 0.18
2 4 9 3.7 0.18
-3 -4 -9 9.23 0.43
-3 -4 -9 9.02 0.4
3 4 9 9.65 0.41
-4 -4 -9 1.84 0.15
-4 -4 -9 1.56 0.12
4 4 9 1.51 0.12
-5 -4 -9 1.61 0.13
-5 -4 -9 1.65 0.15
5 4 9 1.49 0.13
4 -5 -9 0.02 0.07
-4 5 9 0.02 0.08
3 -5 -9 0.65 0.1
-3 5 9 0.4 0.09
2 -5 -9 0.01 0.05
2 -5 -9 0.03 0.04
-2 5 9 -0.04 0.05
1 -5 -9 1.69 0.11
1 -5 -9 1.57 0.11
-1 5 9 1.65 0.12
-1 5 9 1.83 0.09
0 -5 -9 5.52 0.27
0 -5 -9 5.37 0.26
0 5 9 5.58 0.24
0 5 9 5.6 0.26
-1 -5 -9 0.93 0.06
-1 -5 -9 0.84 0.09
1 5 9 0.93 0.07
1 5 9 0.88 0.08
-2 -5 -9 -0.02 0.04
-2 -5 -9 0 0.05
2 5 9 0.01 0.04
2 5 9 0.03 0.03
-3 -5 -9 1.43 0.11
-3 -5 -9 1.27 0.13
3 5 9 1.33 0.1
-4 -5 -9 0.19 0.08
-4 -5 -9 0.15 0.06
4 5 9 0.12 0.05
-5 -5 -9 0.13 0.07
-5 -5 -9 0.09 0.06
5 5 9 0.13 0.06
4 -6 -9 0.04 0.08
-4 6 9 0.08 0.09
3 -6 -9 0.11 0.07
-3 6 9 0.09 0.07
2 -6 -9 -0.01 0.04
2 -6 -9 0.01 0.06
-2 6 9 0.02 0.06
1 -6 -9 -0.04 0.04
1 -6 -9 0.03 0.04
-1 6 9 0.04 0.03
-1 6 9 0.03 0.04
0 -6 -9 2.7 0.16
0 -6 -9 2.81 0.17
0 6 9 2.97 0.14
0 6 9 2.76 0.16
-1 -6 -9 2.38 0.15
1 6 9 2.13 0.13
1 6 9 2.21 0.13
-2 -6 -9 9.09 0.41
2 6 9 8.6 0.38
2 6 9 8.43 0.38
-3 -6 -9 4 0.23
-3 -6 -9 3.88 0.2
3 6 9 3.72 0.19
3 6 9 3.51 0.2
-4 -6 -9 0.49 0.08
-4 -6 -9 0.5 0.1
4 6 9 0.49 0.07
4 6 9 0.49 0.08
-5 -6 -9 0.43 0.1
-5 -6 -9 0.48 0.09
5 6 9 0.35 0.07
4 -7 -9 -0.09 0.09
-4 7 9 0.06 0.1
3 -7 -9 -0.05 0.07
-3 7 9 -0.06 0.07
2 -7 -9 0 0.05
2 -7 -9 0.09 0.07
-2 7 9 -0.02 0.07
1 -7 -9 0.1 0.06
1 -7 -9 0.07 0.06
-1 7 9 0.25 0.04
-1 7 9 0.14 0.06
0 -7 -9 2.13 0.14
0 -7 -9 1.99 0.13
0 7 9 2.05 0.12
0 7 9 2.05 0.14
-1 -7 -9 1.01 0.11
1 7 9 0.99 0.1
1 7 9 0.91 0.09
-2 -7 -9 3.08 0.21
2 7 9 3.15 0.18
2 7 9 3.17 0.17
-3 -7 -9 -0.03 0.07
3 7 9 0.02 0.04
3 7 9 -0.07 0.05
-4 -7 -9 0.45 0.1
4 7 9 0.29 0.06
4 7 9 0.33 0.08
3 -8 -9 0.03 0.08
-3 8 9 0.02 0.09
2 -8 -9 0.01 0.07
-2 8 9 0.03 0.07
1 -8 -9 0.03 0.06
1 -8 -9 0.09 0.06
-1 8 9 0.1 0.06
-1 8 9 0.16 0.05
0 -8 -9 0.87 0.1
0 -8 -9 0.82 0.09
0 8 9 0.89 0.09
0 8 9 0.81 0.09
-1 -8 -9 0.73 0.1
1 8 9 0.74 0.08
1 8 9 0.62 0.08
-2 -8 -9 0.04 0.08
2 8 9 -0.03 0.06
2 8 9 0.03 0.05
-3 -8 -9 -0.01 0.08
3 8 9 -0.06 0.06
-4 -8 -9 0.03 0.09
4 8 9 0.1 0.07
2 -9 -9 0.32 0.09
-2 9 9 0.29 0.09
1 -9 -9 0.96 0.11
1 -9 -9 0.72 0.1
-1 9 9 0.87 0.11
0 -9 -9 0.09 0.07
0 9 9 0.01 0.06
0 9 9 0.03 0.05
-1 -9 -9 -0.01 0.08
1 9 9 0.02 0.06
1 9 9 0.11 0.06
-2 -9 -9 0.83 0.12
2 9 9 0.84 0.1
-3 -9 -9 0.06 0.09
3 9 9 0.13 0.07
1 -10 -9 0.06 0.07
-1 10 9 0.03 0.07
0 -10 -9 0.47 0.1
0 10 9 0.49 0.07
-1 -10 -9 0.33 0.1
1 10 9 0.41 0.08
-2 -10 -9 0.19 0.09
2 10 9 0.15 0.08
-3 -10 -9 0.42 0.11
3 10 9 0.32 0.09
-2 -10 10 -0.01 0.07
1 10 -10 0.02 0.05
1 10 -10 0.01 0.05
-1 -10 10 -0.07 0.08
0 10 -10 -0.15 0.05
0 -10 10 0.05 0.08
1 -10 10 0.18 0.09
3 9 -10 0.12 0.07
-3 -9 10 0.13 0.07
2 9 -10 0.07 0.05
2 9 -10 0.07 0.06
-2 -9 10 0.02 0.07
1 9 -10 0.14 0.05
1 9 -10 0.08 0.05
-1 -9 10 0.13 0.07
0 9 -10 0.02 0.05
0 -9 10 -0.03 0.07
1 -9 10 0.29 0.09
2 -9 10 0.6 0.1
3 8 -10 0.04 0.06
-3 -8 10 0 0.07
2 8 -10 0.09 0.05
2 8 -10 0.02 0.05
-2 -8 10 0.1 0.06
1 8 -10 -0.02 0.04
1 8 -10 0.11 0.05
-1 -8 10 0.03 0.07
0 8 -10 -0.04 0.05
0 8 -10 -0.03 0.04
0 -8 10 0.07 0.07
-2 8 -10 0.49 0.08
2 -8 10 0.39 0.09
-3 8 -10 0.3 0.08
3 -8 10 0.11 0.07
4 7 -10 0.02 0.07
-4 -7 10 0.03 0.07
3 7 -10 0.43 0.08
-3 -7 10 0.43 0.08
2 7 -10 0.2 0.06
2 7 -10 0.17 0.05
-2 -7 10 0.13 0.06
1 7 -10 0.81 0.08
1 7 -10 0.85 0.09
-1 -7 10 0.89 0.1
0 7 -10 0.99 0.09
0 7 -10 1.09 0.09
0 -7 10 0.66 0.09
-2 7 -10 0.38 0.07
2 -7 10 0.22 0.08
-3 7 -10 0.45 0.08
3 -7 10 0.28 0.08
3 -7 10 0.41 0.08
4 6 -10 0.06 0.06
-4 -6 10 0 0.07
3 6 -10 0.04 0.06
-3 -6 10 -0.05 0.05
2 6 -10 0.19 0.06
2 6 -10 0.27 0.05
-2 -6 10 0.16 0.06
1 6 -10 0.2 0.05
1 6 -10 0.11 0.05
-1 -6 10 0.22 0.06
0 6 -10 4.25 0.2
0 6 -10 4.4 0.21
0 -6 10 4.17 0.24
-1 6 -10 0.32 0.04
-1 6 -10 0.22 0.05
1 -6 10 0.28 0.05
1 -6 10 0.07 0.06
-2 6 -10 0.22 0.06
2 -6 10 0.31 0.07
2 -6 10 0.34 0.07
-3 6 -10 0.07 0.06
3 -6 10 0.11 0.06
3 -6 10 0.06 0.07
-4 6 -10 0.77 0.09
4 -6 10 0.4 0.09
4 -6 10 0.73 0.1
5 5 -10 0.12 0.07
-5 -5 10 0.11 0.08
4 5 -10 0.25 0.07
-4 -5 10 0.25 0.07
3 5 -10 0.03 0.05
-3 -5 10 0.03 0.05
2 5 -10 1.81 0.1
2 5 -10 1.77 0.12
-2 -5 10 1.82 0.13
1 5 -10 4.35 0.19
1 5 -10 4.37 0.21
-1 -5 10 4.34 0.24
0 5 -10 2.91 0.14
0 5 -10 2.77 0.14
0 -5 10 2.81 0.14
0 -5 10 2.69 0.17
-1 5 -10 2.17 0.12
-1 5 -10 2.22 0.12
1 -5 10 2.34 0.12
-2 5 -10 -0.04 0.04
2 -5 10 -0.01 0.04
2 -5 10 -0.09 0.05
-3 5 -10 1.14 0.1
3 -5 10 0.89 0.1
3 -5 10 0.65 0.09
-4 5 -10 0.31 0.07
4 -5 10 0.27 0.07
4 -5 10 0.31 0.08
5 4 -10 0.02 0.06
-5 -4 10 -0.06 0.07
4 4 -10 0.18 0.06
-4 -4 10 0.12 0.07
3 4 -10 0.09 0.05
-3 -4 10 0.01 0.05
2 4 -10 7.04 0.29
2 4 -10 6.97 0.32
-2 -4 10 7.37 0.32
-2 -4 10 7.25 0.35
1 4 -10 7.3 0.28
1 4 -10 7.15 0.31
-1 -4 10 5.65 0.33
-1 -4 10 7.18 0.3
0 4 -10 0.02 0.03
0 4 -10 0.02 0.03
0 -4 10 0.05 0.04
0 -4 10 0.01 0.02
-1 4 -10 3.42 0.16
-1 4 -10 3.51 0.16
1 -4 10 3.61 0.17
-2 4 -10 2.73 0.14
-2 4 -10 2.69 0.13
2 -4 10 2.33 0.15
2 -4 10 2.69 0.15
-3 4 -10 0.58 0.07
3 -4 10 0.69 0.09
3 -4 10 0.44 0.08
-4 4 -10 0.03 0.06
4 -4 10 0.08 0.08
4 -4 10 0 0.05
-5 4 -10 0.33 0.08
5 -4 10 0.47 0.1
5 3 -10 0.02 0.06
-5 -3 10 0.05 0.08
4 3 -10 0.11 0.06
-4 -3 10 0.03 0.07
3 3 -10 3.21 0.18
-3 -3 10 3.31 0.2
-3 -3 10 3.33 0.19
2 3 -10 3.22 0.17
-2 -3 10 3.34 0.19
-2 -3 10 3.45 0.17
1 3 -10 3.15 0.14
1 3 -10 3.28 0.16
-1 -3 10 3.16 0.16
-1 -3 10 3.28 0.18
0 3 -10 0.19 0.03
0 3 -10 0.18 0.03
0 -3 10 0.21 0.03
0 -3 10 0.19 0.04
-1 3 -10 4.21 0.18
-1 3 -10 4.14 0.18
1 -3 10 3.64 0.21
1 -3 10 4.35 0.19
-2 3 -10 0.95 0.08
-2 3 -10 1 0.07
2 -3 10 1.03 0.09
-3 3 -10 6.79 0.29
3 -3 10 6.9 0.32
3 -3 10 5.86 0.31
-4 3 -10 5.01 0.25
4 -3 10 5.19 0.28
-5 3 -10 0.55 0.09
5 -3 10 0.6 0.11
5 2 -10 0.25 0.06
-5 -2 10 0.13 0.09
4 2 -10 1.47 0.12
-4 -2 10 1.3 0.13
-4 -2 10 1.61 0.14
3 2 -10 10.57 0.46
-3 -2 10 10.51 0.51
-3 -2 10 10.9 0.48
2 2 -10 3.5 0.19
-2 -2 10 4.16 0.21
-2 -2 10 4.25 0.2
1 2 -10 0.77 0.04
1 2 -10 0.75 0.06
-1 -2 10 0.78 0.07
-1 -2 10 0.73 0.06
0 2 -10 0.01 0.02
0 2 -10 0.03 0.02
0 -2 10 0.01 0.02
0 -2 10 0.04 0.03
-1 2 -10 0.21 0.03
-1 2 -10 0.14 0.03
1 -2 10 0.24 0.04
1 -2 10 0.3 0.04
-2 2 -10 24.64 0.98
-2 2 -10 24.7 1.01
2 -2 10 24.86 1.04
-3 2 -10 1.23 0.1
3 -2 10 1.09 0.09
3 -2 10 1.42 0.12
-4 2 -10 1.35 0.12
4 -2 10 1.41 0.13
-5 2 -10 0.42 0.08
5 -2 10 0.43 0.09
5 1 -10 2.14 0.15
-5 -1 10 2.28 0.18
-5 -1 10 2.24 0.19
4 1 -10 5.16 0.25
-4 -1 10 5.12 0.29
-4 -1 10 5.26 0.28
3 1 -10 0.15 0.05
-3 -1 10 0.07 0.06
-3 -1 10 0.2 0.06
2 1 -10 1.73 0.1
-2 -1 10 1.73 0.12
-2 -1 10 1.62 0.11
1 1 -10 0.03 0.01
-1 -1 10 -0.02 0.03
-1 -1 10 0.04 0.03
0 1 -10 14.47 0.59
0 1 -10 13.87 0.56
0 -1 10 14.32 0.6
0 -1 10 14.29 0.64
-1 1 -10 10.32 0.45
-1 1 -10 10.18 0.43
1 -1 10 11.14 0.46
1 -1 10 11.04 0.48
-2 1 -10 1.07 0.08
-2 1 -10 1.02 0.07
2 -1 10 1.04 0.08
2 -1 10 1.05 0.09
-3 1 -10 13.7 0.61
-3 1 -10 14.9 0.59
3 -1 10 14.25 0.62
-4 1 -10 7.69 0.33
4 -1 10 6.89 0.35
-5 1 -10 0.17 0.06
5 -1 10 0.17 0.08
5 0 -10 0.17 0.06
-5 0 10 0.1 0.1
-5 0 10 0.14 0.09
4 0 -10 0.07 0.05
-4 0 10 0 0.06
-4 0 10 0.08 0.07
3 0 -10 3.44 0.17
-3 0 10 3.61 0.2
-3 0 10 3.13 0.19
2 0 -10 4.45 0.2
-2 0 10 4.27 0.22
-2 0 10 4.52 0.23
-1 0 10 0.69 0.07
-1 0 10 0.76 0.07
0 0 -10 2.92 0.13
0 0 -10 3 0.14
0 0 10 2.93 0.14
0 0 10 2.89 0.15
-1 0 -10 1.42 0.09
-1 0 -10 1.46 0.08
1 0 10 1.48 0.08
1 0 10 1.52 0.09
-2 0 -10 0.81 0.07
-2 0 -10 0.69 0.06
2 0 10 0.76 0.05
2 0 10 0.74 0.07
-3 0 -10 0.38 0.06
-3 0 -10 0.39 0.06
3 0 10 0.21 0.06
-4 0 -10 0.69 0.08
4 0 10 0.65 0.09
-5 0 -10 -0.01 0.05
5 0 10 0.03 0.06
5 -1 -10 0.03 0.09
-5 1 10 0.05 0.09
-5 1 10 0.08 0.09
4 -1 -10 0.34 0.05
-4 1 10 0.13 0.08
-4 1 10 0.35 0.09
3 -1 -10 1.1 0.09
-3 1 10 0.97 0.12
-3 1 10 1.17 0.12
2 -1 -10 1.72 0.1
-2 1 10 1.7 0.12
-2 1 10 1.67 0.12
1 -1 -10 0.01 0.03
-1 1 10 -0.05 0.03
-1 1 10 0.02 0.04
0 -1 -10 0.26 0.04
0 -1 -10 0.31 0.03
0 1 10 0.41 0.04
0 1 10 0.47 0.05
-1 -1 -10 3.75 0.17
-1 -1 -10 3.92 0.18
1 1 10 3.92 0.18
-2 -1 -10 7.22 0.31
-2 -1 -10 7.41 0.33
-3 -1 -10 6.19 0.29
-3 -1 -10 6.14 0.27
3 1 10 6.15 0.29
-4 -1 -10 2.05 0.14
-4 -1 -10 2 0.13
4 1 10 2.12 0.15
-5 -1 -10 0.57 0.08
5 1 10 0.53 0.09
5 -2 -10 0.06 0.1
-5 2 10 -0.04 0.09
-5 2 10 0.16 0.09
4 -2 -10 0.02 0.04
4 -2 -10 0.04 0.07
-4 2 10 0.07 0.08
-4 2 10 0.02 0.07
3 -2 -10 1.07 0.08
-3 2 10 1.01 0.11
-3 2 10 0.83 0.1
2 -2 -10 0.18 0.04
-2 2 10 0.19 0.05
-2 2 10 0.2 0.06
1 -2 -10 22.84 0.92
-1 2 10 21.9 0.95
-1 2 10 22.34 0.99
0 -2 -10 18.75 0.76
0 2 10 20.15 0.86
-1 -2 -10 0.07 0.03
-1 -2 -10 0.04 0.02
1 2 10 0.04 0.02
-2 -2 -10 3.76 0.17
-2 -2 -10 3.79 0.19
2 2 10 3.43 0.18
-3 -2 -10 4.03 0.2
-3 -2 -10 4.07 0.21
3 2 10 4.11 0.21
-4 -2 -10 0.9 0.09
-4 -2 -10 1.01 0.11
4 2 10 0.89 0.1
-5 -2 -10 0.39 0.07
5 2 10 0.41 0.08
5 -3 -10 -0.01 0.09
-5 3 10 -0.08 0.09
4 -3 -10 0.25 0.09
-4 3 10 0.27 0.09
3 -3 -10 0.04 0.04
3 -3 -10 -0.02 0.06
-3 3 10 -0.03 0.07
-3 3 10 0.01 0.07
2 -3 -10 1.73 0.11
2 -3 -10 1.8 0.12
-2 3 10 1.75 0.13
-2 3 10 1.57 0.13
1 -3 -10 0.58 0.06
1 -3 -10 0.49 0.06
-1 3 10 0.55 0.06
-1 3 10 0.52 0.04
0 -3 -10 10.53 0.5
0 -3 -10 12.03 0.53
0 3 10 12.66 0.53
-1 -3 -10 0.82 0.05
-1 -3 -10 0.92 0.06
1 3 10 0.78 0.07
-2 -3 -10 0.07 0.05
-2 -3 -10 0.08 0.03
2 3 10 0.07 0.04
-3 -3 -10 0.49 0.08
-3 -3 -10 0.55 0.07
3 3 10 0.68 0.07
-4 -3 -10 2.03 0.13
-4 -3 -10 2.2 0.16
4 3 10 2.15 0.15
-5 -3 -10 0.12 0.06
-5 -3 -10 0.17 0.07
5 3 10 0.1 0.07
5 -4 -10 0.08 0.09
4 -4 -10 0.18 0.08
-4 4 10 0.22 0.09
3 -4 -10 0.01 0.04
3 -4 -10 0.12 0.07
-3 4 10 0.11 0.08
2 -4 -10 7.53 0.37
2 -4 -10 7.3 0.33
-2 4 10 7.53 0.36
1 -4 -10 0.55 0.07
1 -4 -10 0.5 0.06
-1 4 10 0.72 0.08
0 -4 -10 4.21 0.21
0 -4 -10 4.43 0.21
0 4 10 4.07 0.18
0 4 10 4.08 0.21
-1 -4 -10 0.26 0.04
1 4 10 0.4 0.05
1 4 10 0.41 0.05
-2 -4 -10 12.52 0.56
-2 -4 -10 12.26 0.52
2 4 10 13.02 0.54
-3 -4 -10 1.9 0.14
-3 -4 -10 1.78 0.12
3 4 10 1.92 0.12
-4 -4 -10 1.6 0.12
-4 -4 -10 1.69 0.15
4 4 10 1.61 0.12
-5 -4 -10 0.69 0.1
-5 -4 -10 0.6 0.09
5 4 10 0.57 0.08
4 -5 -10 0.26 0.09
-4 5 10 0.2 0.09
3 -5 -10 0.8 0.09
3 -5 -10 1.03 0.12
-3 5 10 0.78 0.11
2 -5 -10 0.39 0.06
2 -5 -10 0.49 0.08
-2 5 10 0.47 0.08
1 -5 -10 0.43 0.06
1 -5 -10 0.44 0.06
-1 5 10 0.44 0.07
0 -5 -10 0.75 0.08
0 -5 -10 0.65 0.07
0 5 10 0.7 0.06
0 5 10 0.72 0.08
-1 -5 -10 0.29 0.06
1 5 10 0.35 0.05
1 5 10 0.37 0.05
-2 -5 -10 5.79 0.29
-2 -5 -10 5.76 0.26
2 5 10 5.53 0.26
2 5 10 5.48 0.26
-3 -5 -10 1.78 0.15
-3 -5 -10 1.65 0.12
3 5 10 1.78 0.12
-4 -5 -10 0.03 0.05
-4 -5 -10 0.09 0.07
4 5 10 0.03 0.05
-5 -5 -10 0.07 0.06
-5 -5 -10 0.12 0.08
5 5 10 0.08 0.06
4 -6 -10 0.11 0.09
-4 6 10 0.1 0.1
3 -6 -10 0.1 0.08
-3 6 10 0.14 0.08
2 -6 -10 0.31 0.06
2 -6 -10 0.34 0.08
-2 6 10 0.34 0.08
1 -6 -10 1.13 0.1
1 -6 -10 1.06 0.11
-1 6 10 1.28 0.12
0 -6 -10 0.54 0.06
0 -6 -10 0.48 0.07
0 6 10 0.59 0.06
0 6 10 0.51 0.07
-1 -6 -10 1.62 0.13
1 6 10 1.63 0.11
1 6 10 1.7 0.11
-2 -6 -10 5.67 0.3
2 6 10 5.58 0.26
2 6 10 5.49 0.26
-3 -6 -10 2.53 0.18
-3 -6 -10 2.46 0.16
3 6 10 2.43 0.15
3 6 10 2.26 0.15
-4 -6 -10 2.03 0.17
-4 -6 -10 1.63 0.14
4 6 10 1.5 0.14
4 6 10 1.49 0.12
-5 -6 -10 0.66 0.11
-5 -6 -10 0.57 0.09
5 6 10 0.71 0.09
3 -7 -10 0.08 0.08
-3 7 10 0.09 0.08
2 -7 -10 0.32 0.08
2 -7 -10 0.32 0.07
-2 7 10 0.35 0.08
1 -7 -10 0.24 0.07
1 -7 -10 0.32 0.07
-1 7 10 0.34 0.08
0 -7 -10 0 0.04
0 -7 -10 -0.07 0.05
0 7 10 0.04 0.04
0 7 10 0.03 0.05
-1 -7 -10 0.15 0.07
1 7 10 0.1 0.06
1 7 10 0.14 0.05
-2 -7 -10 0.09 0.07
2 7 10 0.05 0.05
2 7 10 0.06 0.05
-3 -7 -10 0.12 0.08
3 7 10 0.17 0.05
3 7 10 0.18 0.07
-4 -7 -10 0.27 0.1
-4 -7 -10 0.26 0.07
4 7 10 0.18 0.06
4 7 10 0.24 0.08
3 -8 -10 0.01 0.08
-3 8 10 -0.11 0.09
2 -8 -10 -0.01 0.06
-2 8 10 -0.02 0.06
1 -8 -10 0.79 0.1
1 -8 -10 0.89 0.11
-1 8 10 0.79 0.1
0 -8 -10 0.37 0.08
0 8 10 0.31 0.06
0 8 10 0.34 0.08
-1 -8 -10 1.39 0.15
1 8 10 1.37 0.11
1 8 10 1.44 0.13
-2 -8 -10 2.09 0.18
2 8 10 1.75 0.14
2 8 10 1.86 0.14
-3 -8 -10 0.55 0.11
3 8 10 0.44 0.07
3 8 10 0.53 0.09
-4 -8 -10 0.21 0.1
4 8 10 0.19 0.08
2 -9 -10 -0.03 0.07
-2 9 10 0.1 0.08
1 -9 -10 0.29 0.08
1 -9 -10 0.36 0.08
-1 9 10 0.35 0.09
0 -9 -10 0.19 0.08
0 9 10 0.14 0.07
0 9 10 0.21 0.06
-1 -9 -10 1.58 0.17
1 9 10 1.69 0.14
1 9 10 1.59 0.14
-2 -9 -10 0.07 0.09
2 9 10 0.08 0.07
-3 -9 -10 0.15 0.1
3 9 10 0.23 0.08
-1 10 10 0.08 0.08
0 -10 -10 0.27 0.09
0 10 10 0.27 0.06
0 10 10 0.11 0.08
-1 -10 -10 -0.07 0.08
1 10 10 0.07 0.06
-2 -10 -10 -0.03 0.08
2 10 10 0.01 0.07
-1 -10 11 -0.03 0.08
0 -10 11 0.03 0.08
2 9 -11 0.12 0.05
2 9 -11 0.17 0.07
-2 -9 11 0.06 0.08
1 9 -11 0.1 0.05
1 9 -11 0.19 0.06
-1 -9 11 -0.02 0.06
0 9 -11 -0.02 0.05
0 -9 11 -0.06 0.06
-1 9 -11 0.06 0.06
1 -9 11 0.07 0.07
2 -9 11 0.17 0.09
3 8 -11 0.27 0.07
-3 -8 11 0.22 0.08
2 8 -11 0.05 0.05
2 8 -11 -0.04 0.04
-2 -8 11 0.01 0.07
1 8 -11 0.05 0.05
1 8 -11 0.08 0.05
-1 -8 11 -0.04 0.06
0 8 -11 0.2 0.06
0 8 -11 0.19 0.05
0 -8 11 0.13 0.07
-1 8 -11 0.03 0.05
1 -8 11 0.08 0.08
-2 8 -11 0.3 0.07
2 -8 11 0.07 0.07
3 -8 11 -0.03 0.08
4 7 -11 0.08 0.07
-4 -7 11 0.02 0.08
3 7 -11 0 0.06
-3 -7 11 0.01 0.06
2 7 -11 -0.01 0.04
2 7 -11 0.01 0.05
-2 -7 11 -0.08 0.05
1 7 -11 0.37 0.05
1 7 -11 0.35 0.06
-1 -7 11 0.18 0.06
0 7 -11 2.41 0.14
0 7 -11 2.52 0.14
0 -7 11 2.43 0.17
-2 7 -11 -0.03 0.05
2 -7 11 0.04 0.06
-3 7 -11 0.03 0.06
4 6 -11 0.13 0.07
-4 -6 11 0.13 0.07
3 6 -11 0.19 0.06
-3 -6 11 0.24 0.07
2 6 -11 0 0.04
2 6 -11 -0.01 0.05
-2 -6 11 0 0.05
1 6 -11 0.3 0.05
1 6 -11 0.23 0.06
-1 -6 11 0.25 0.07
0 6 -11 3.71 0.19
0 6 -11 3.73 0.18
0 -6 11 3.71 0.22
-1 6 -11 4.99 0.22
-1 6 -11 5.05 0.22
1 -6 11 4.08 0.26
-2 6 -11 1.34 0.11
2 -6 11 1.47 0.11
-3 6 -11 1.65 0.13
3 -6 11 1.69 0.14
3 -6 11 1.4 0.15
-4 6 -11 0.13 0.06
4 -6 11 -0.03 0.06
4 -6 11 0.15 0.07
4 5 -11 0.14 0.06
-4 -5 11 0.18 0.08
3 5 -11 0.04 0.05
-3 -5 11 -0.01 0.05
2 5 -11 3.12 0.17
-2 -5 11 2.89 0.19
1 5 -11 1.9 0.12
1 5 -11 1.79 0.1
-1 -5 11 1.33 0.12
0 5 -11 1.05 0.09
0 5 -11 1.1 0.08
0 -5 11 1.01 0.1
0 -5 11 1.06 0.08
-1 5 -11 0.08 0.04
-1 5 -11 0.05 0.04
1 -5 11 0.14 0.06
1 -5 11 0.12 0.04
-2 5 -11 0.95 0.1
2 -5 11 1.15 0.11
-3 5 -11 6 0.28
3 -5 11 5.99 0.3
-4 5 -11 -0.02 0.06
4 -5 11 0.08 0.07
5 4 -11 -0.03 0.06
-5 -4 11 -0.03 0.08
4 4 -11 -0.01 0.05
-4 -4 11 -0.05 0.06
3 4 -11 0.38 0.06
-3 -4 11 0.38 0.07
2 4 -11 0.85 0.09
-2 -4 11 0.89 0.1
1 4 -11 7.41 0.32
1 4 -11 7.4 0.3
-1 -4 11 7.2 0.36
-1 -4 11 6.89 0.32
0 4 -11 2.17 0.12
0 4 -11 2.26 0.11
0 -4 11 2.2 0.12
0 -4 11 2.23 0.14
-1 4 -11 0.71 0.07
-1 4 -11 0.9 0.06
1 -4 11 0.53 0.07
1 -4 11 0.85 0.07
-2 4 -11 3.28 0.17
2 -4 11 3.21 0.18
-3 4 -11 2.72 0.15
3 -4 11 2.63 0.17
3 -4 11 2.2 0.16
-4 4 -11 0.23 0.06
4 -4 11 0.22 0.08
5 3 -11 0.19 0.07
-5 -3 11 0.21 0.09
4 3 -11 -0.03 0.05
-4 -3 11 0.01 0.06
3 3 -11 1.05 0.1
-3 -3 11 1.01 0.11
-3 -3 11 1.13 0.11
2 3 -11 0.25 0.05
-2 -3 11 0.48 0.06
-2 -3 11 0.35 0.07
1 3 -11 4.21 0.21
1 3 -11 4.58 0.19
-1 -3 11 4.44 0.21
-1 -3 11 4.41 0.23
0 3 -11 1.22 0.07
0 3 -11 1.25 0.08
0 -3 11 1.05 0.09
0 -3 11 1.33 0.08
-1 3 -11 0.87 0.07
-1 3 -11 0.83 0.07
1 -3 11 0.92 0.08
1 -3 11 0.93 0.07
-2 3 -11 1.08 0.08
-2 3 -11 1.13 0.09
2 -3 11 1.1 0.1
-3 3 -11 0.94 0.09
3 -3 11 1.06 0.11
3 -3 11 0.77 0.09
-4 3 -11 2.13 0.14
4 -3 11 2.06 0.15
-5 3 -11 0.12 0.07
5 -3 11 0.13 0.07
5 2 -11 0.02 0.06
-5 -2 11 -0.07 0.07
4 2 -11 0.2 0.06
-4 -2 11 0.14 0.07
-4 -2 11 0.05 0.07
3 2 -11 0.41 0.06
-3 -2 11 0.6 0.08
-3 -2 11 0.48 0.08
2 2 -11 9.13 0.4
-2 -2 11 9.44 0.42
-2 -2 11 9.36 0.44
1 2 -11 0.29 0.04
1 2 -11 0.23 0.03
-1 -2 11 0.29 0.05
-1 -2 11 0.25 0.05
0 2 -11 6.17 0.26
0 2 -11 6.14 0.27
0 -2 11 6.46 0.3
0 -2 11 6.35 0.28
-1 2 -11 0.13 0.03
-1 2 -11 0.13 0.03
1 -2 11 0.18 0.04
1 -2 11 0.19 0.04
-2 2 -11 1.43 0.09
-2 2 -11 1.25 0.09
2 -2 11 1.35 0.11
-3 2 -11 0.01 0.05
3 -2 11 0.09 0.05
3 -2 11 0.04 0.05
-4 2 -11 0.64 0.08
4 -2 11 0.59 0.09
-5 2 -11 0.51 0.08
5 -2 11 0.5 0.1
5 1 -11 0.21 0.06
-5 -1 11 0.14 0.1
-5 -1 11 0.09 0.09
4 1 -11 0.99 0.1
-4 -1 11 0.85 0.11
-4 -1 11 0.83 0.11
3 1 -11 0.14 0.05
-3 -1 11 0.04 0.06
-3 -1 11 0 0.06
2 1 -11 9.04 0.39
-2 -1 11 8.84 0.42
-2 -1 11 8.75 0.4
1 1 -11 0.05 0.01
-1 -1 11 0.07 0.04
-1 -1 11 0.06 0.04
0 1 -11 0.03 0.03
0 1 -11 -0.02 0.02
0 -1 11 0.01 0.02
0 -1 11 0.03 0.03
-1 1 -11 1.7 0.1
-1 1 -11 1.44 0.09
1 -1 11 1.74 0.1
1 -1 11 1.78 0.1
-2 1 -11 2.27 0.12
-2 1 -11 2.4 0.13
2 -1 11 2.33 0.14
2 -1 11 2.26 0.12
-3 1 -11 11.76 0.53
-3 1 -11 12.6 0.51
3 -1 11 12.37 0.54
-4 1 -11 1.89 0.13
4 -1 11 1.69 0.14
-5 1 -11 0.12 0.06
5 -1 11 0.19 0.07
5 0 -11 0.26 0.06
-5 0 11 0.24 0.11
-5 0 11 0.23 0.1
4 0 -11 1.08 0.1
-4 0 11 0.98 0.12
-4 0 11 1.03 0.13
3 0 -11 4.53 0.21
-3 0 11 3.96 0.24
-3 0 11 4.57 0.24
2 0 -11 2.42 0.13
-2 0 11 2.47 0.15
-2 0 11 2.38 0.15
-1 0 11 0.28 0.04
-1 0 11 0.26 0.05
0 0 -11 2.9 0.13
0 0 -11 2.81 0.14
0 0 11 2.9 0.15
0 0 11 2.89 0.15
-1 0 -11 17.9 0.7
-1 0 -11 17.34 0.73
1 0 11 17.9 0.78
1 0 11 17.2 0.74
-2 0 -11 5.79 0.27
-2 0 -11 6.41 0.28
2 0 11 6.29 0.28
2 0 11 6.26 0.29
-3 0 -11 1.51 0.11
-3 0 -11 1.51 0.12
-4 0 -11 0.47 0.07
4 0 11 0.42 0.08
-5 0 -11 -0.02 0.05
5 0 11 -0.05 0.06
5 -1 -11 1.1 0.15
-5 1 11 1.03 0.15
-5 1 11 1.52 0.17
4 -1 -11 0.29 0.06
-4 1 11 0.16 0.09
-4 1 11 0.15 0.08
3 -1 -11 1.97 0.12
-3 1 11 1.92 0.15
-3 1 11 1.94 0.15
2 -1 -11 0.29 0.05
-2 1 11 0.26 0.06
-2 1 11 0.23 0.05
1 -1 -11 -0.04 0.03
-1 1 11 -0.02 0.03
-1 1 11 -0.04 0.03
0 -1 -11 2.01 0.09
0 1 11 2.06 0.12
0 1 11 2.12 0.11
-1 -1 -11 2.53 0.14
-1 -1 -11 2.67 0.12
1 1 11 2.73 0.13
1 1 11 2.55 0.14
-2 -1 -11 25.12 1.02
-2 -1 -11 26.72 1.08
-3 -1 -11 7.34 0.34
-3 -1 -11 7.43 0.32
3 1 11 7.32 0.34
-4 -1 -11 0.04 0.05
-4 -1 -11 0.12 0.06
4 1 11 0.06 0.06
-5 -1 -11 0.16 0.06
5 1 11 0.26 0.08
5 -2 -11 0.06 0.08
-5 2 11 0.11 0.1
-5 2 11 0 0.09
4 -2 -11 0.35 0.09
4 -2 -11 0.43 0.06
-4 2 11 0.28 0.09
-4 2 11 0.53 0.1
3 -2 -11 0.68 0.08
-3 2 11 0.51 0.09
-3 2 11 0.66 0.1
2 -2 -11 0.24 0.04
-2 2 11 0.12 0.05
-2 2 11 0.15 0.05
1 -2 -11 4.74 0.22
-1 2 11 4.61 0.23
-1 2 11 4.6 0.23
0 -2 -11 1.25 0.07
0 2 11 1.24 0.08
-1 -2 -11 2.94 0.14
-1 -2 -11 2.87 0.15
1 2 11 2.91 0.14
-2 -2 -11 0.14 0.04
-2 -2 -11 0.19 0.05
2 2 11 0.14 0.05
-3 -2 -11 1.48 0.12
-3 -2 -11 1.54 0.1
3 2 11 1.22 0.11
-4 -2 -11 0.13 0.06
-4 -2 -11 0.15 0.05
4 2 11 0.05 0.06
-5 -2 -11 0.21 0.07
5 2 11 0.21 0.07
5 -3 -11 0.07 0.09
4 -3 -11 0.23 0.08
-4 3 11 0.27 0.09
-4 3 11 0.3 0.1
3 -3 -11 0.16 0.04
3 -3 -11 0.12 0.07
-3 3 11 0.14 0.07
-3 3 11 -0.02 0.07
2 -3 -11 0.14 0.06
2 -3 -11 0.17 0.04
-2 3 11 0.08 0.05
-2 3 11 0.12 0.06
1 -3 -11 0.14 0.04
-1 3 11 0.01 0.04
-1 3 11 0.22 0.05
0 -3 -11 0.24 0.04
0 -3 -11 0.13 0.04
0 3 11 0.13 0.02
0 3 11 0.25 0.04
-1 -3 -11 24.48 1.06
-1 -3 -11 24.49 1.12
-1 -3 -11 26.79 1.01
1 3 11 26.65 1.07
-2 -3 -11 17.27 0.71
-2 -3 -11 17.49 0.75
2 3 11 18.04 0.75
-3 -3 -11 5 0.24
-3 -3 -11 5.14 0.27
3 3 11 5.51 0.26
-4 -3 -11 1.31 0.13
-4 -3 -11 1.42 0.11
4 3 11 1.26 0.12
-5 -3 -11 0.23 0.06
-5 -3 -11 0.35 0.09
5 3 11 0.24 0.07
4 -4 -11 0.11 0.09
-4 4 11 0.09 0.09
3 -4 -11 0.18 0.05
3 -4 -11 0.25 0.08
-3 4 11 0.16 0.08
2 -4 -11 1.02 0.1
2 -4 -11 1.1 0.09
-2 4 11 1.07 0.11
1 -4 -11 3.89 0.19
1 -4 -11 3.8 0.21
-1 4 11 3.7 0.2
0 -4 -11 0.38 0.05
0 -4 -11 0.37 0.05
0 4 11 0.39 0.04
0 4 11 0.31 0.05
-1 -4 -11 5.81 0.26
-1 -4 -11 5.95 0.29
1 4 11 6.16 0.28
1 4 11 5.98 0.26
-2 -4 -11 1.3 0.12
-2 -4 -11 1.29 0.1
2 4 11 1.53 0.1
-3 -4 -11 2.05 0.16
-3 -4 -11 1.94 0.13
3 4 11 1.79 0.13
-4 -4 -11 0.61 0.08
-4 -4 -11 0.59 0.1
4 4 11 0.54 0.08
-5 -4 -11 0.1 0.06
-5 -4 -11 0.12 0.07
5 4 11 0.12 0.07
4 -5 -11 0.12 0.09
-4 5 11 0.11 0.09
3 -5 -11 0.14 0.08
3 -5 -11 0.11 0.05
-3 5 11 0.08 0.08
2 -5 -11 0.7 0.09
2 -5 -11 0.66 0.08
-2 5 11 0.76 0.1
1 -5 -11 0.05 0.05
1 -5 -11 0.02 0.04
-1 5 11 0.04 0.05
0 -5 -11 0.51 0.06
0 -5 -11 0.53 0.07
0 5 11 0.55 0.07
0 5 11 0.54 0.05
-1 -5 -11 4.93 0.25
1 5 11 4.87 0.24
1 5 11 4.84 0.22
-2 -5 -11 0.12 0.07
-2 -5 -11 0.01 0.04
2 5 11 0.12 0.05
2 5 11 0.07 0.05
-3 -5 -11 0.85 0.09
-3 -5 -11 1.01 0.12
3 5 11 0.93 0.1
-4 -5 -11 -0.13 0.07
-4 -5 -11 -0.05 0.05
4 5 11 0 0.05
-5 -5 -11 0.06 0.08
-5 -5 -11 0.02 0.06
5 5 11 -0.02 0.06
4 -6 -11 0.04 0.09
3 -6 -11 0.24 0.08
-3 6 11 0.22 0.09
2 -6 -11 0.28 0.07
2 -6 -11 0.23 0.06
-2 6 11 0.47 0.09
1 -6 -11 2.64 0.17
1 -6 -11 2.82 0.16
-1 6 11 2.68 0.17
0 -6 -11 1.06 0.11
0 -6 -11 0.97 0.09
0 6 11 1.14 0.08
0 6 11 1.14 0.11
-1 -6 -11 4.57 0.25
1 6 11 4.58 0.23
1 6 11 4.68 0.22
-2 -6 -11 0.94 0.11
2 6 11 0.93 0.1
2 6 11 0.91 0.09
-3 -6 -11 3.02 0.17
-3 -6 -11 3.22 0.21
3 6 11 2.79 0.17
3 6 11 2.92 0.17
-4 -6 -11 1.18 0.14
-4 -6 -11 1.07 0.12
4 6 11 0.89 0.11
4 6 11 0.95 0.1
3 -7 -11 0.1 0.08
-3 7 11 0.22 0.09
2 -7 -11 0 0.05
2 -7 -11 0.19 0.08
-2 7 11 0.17 0.07
1 -7 -11 0.78 0.09
1 -7 -11 0.67 0.09
-1 7 11 0.6 0.09
0 -7 -11 0.08 0.06
0 7 11 0.03 0.06
0 7 11 0.11 0.04
-1 -7 -11 2.07 0.17
1 7 11 2.03 0.14
1 7 11 2.05 0.13
-2 -7 -11 0.4 0.09
2 7 11 0.31 0.07
2 7 11 0.33 0.07
-3 -7 -11 0 0.07
3 7 11 -0.02 0.05
3 7 11 -0.02 0.05
-4 -7 -11 0.2 0.07
-4 -7 -11 0.05 0.09
4 7 11 0.13 0.06
4 7 11 0.08 0.07
3 -8 -11 0 0.08
2 -8 -11 0 0.07
-2 8 11 0.06 0.07
1 -8 -11 0.35 0.08
1 -8 -11 0.35 0.08
-1 8 11 0.18 0.08
0 -8 -11 0.44 0.09
0 8 11 0.56 0.09
0 8 11 0.46 0.07
-1 -8 -11 2.74 0.2
1 8 11 2.49 0.17
1 8 11 2.59 0.16
-2 -8 -11 2.65 0.2
2 8 11 2.55 0.17
2 8 11 2.37 0.16
-3 -8 -11 0.91 0.13
3 8 11 0.82 0.1
3 8 11 0.6 0.08
-4 -8 -11 0.39 0.11
4 8 11 0.46 0.1
2 -9 -11 0.09 0.08
-2 9 11 0.18 0.09
1 -9 -11 0.12 0.07
-1 9 11 0.27 0.09
0 -9 -11 -0.01 0.08
0 9 11 0.07 0.07
-1 -9 -11 0.3 0.1
1 9 11 0.27 0.07
1 9 11 0.34 0.08
-2 -9 -11 0.05 0.08
2 9 11 0.03 0.07
-3 -9 -11 0.38 0.11
3 9 11 0.53 0.1
0 -10 -11 0.2 0.09
0 10 11 0.16 0.08
-1 -10 -11 0.14 0.09
1 10 11 0.22 0.07
-2 -10 -11 0.03 0.09
2 10 11 0.08 0.07
-2 -9 12 0.04 0.07
1 9 -12 0.05 0.05
1 9 -12 0.1 0.06
-1 -9 12 0.1 0.08
0 9 -12 -0.03 0.05
0 -9 12 -0.03 0.07
-1 9 -12 0.02 0.06
1 -9 12 -0.12 0.08
3 8 -12 0.01 0.06
-3 -8 12 -0.08 0.07
2 8 -12 0.09 0.06
-2 -8 12 0.09 0.07
1 8 -12 -0.03 0.05
1 8 -12 0.04 0.05
-1 -8 12 0 0.07
0 8 -12 0.15 0.05
0 8 -12 0.17 0.05
0 -8 12 0.1 0.07
-1 8 -12 0.2 0.06
1 -8 12 0.06 0.08
-2 8 -12 0.15 0.06
2 -8 12 0.03 0.07
3 7 -12 0.29 0.07
-3 -7 12 0.2 0.08
2 7 -12 0.2 0.06
-2 -7 12 0.19 0.08
1 7 -12 0 0.04
1 7 -12 0.02 0.04
-1 -7 12 0.03 0.06
0 7 -12 0.76 0.08
0 7 -12 0.57 0.07
0 -7 12 0.43 0.08
-1 7 -12 0.52 0.07
1 -7 12 0.06 0.06
-2 7 -12 -0.08 0.05
2 -7 12 0 0.07
-3 7 -12 0.08 0.06
3 -7 12 0.08 0.07
4 6 -12 0.3 0.07
-4 -6 12 0.24 0.09
3 6 -12 0.04 0.05
-3 -6 12 0.08 0.07
2 6 -12 0.04 0.05
-2 -6 12 -0.01 0.06
1 6 -12 0.5 0.07
1 6 -12 0.58 0.06
-1 -6 12 0.44 0.08
0 6 -12 0.03 0.04
0 6 -12 0.12 0.05
0 -6 12 0.12 0.06
-1 6 -12 1.09 0.1
-1 6 -12 1.29 0.09
-2 6 -12 0.3 0.07
2 -6 12 0.2 0.07
2 -6 12 0.31 0.07
-3 6 -12 1.48 0.12
3 -6 12 0.87 0.11
3 -6 12 1.37 0.12
4 5 -12 0.06 0.06
-4 -5 12 0.06 0.08
3 5 -12 0.06 0.05
-3 -5 12 0.03 0.05
2 5 -12 0.02 0.05
-2 -5 12 0.12 0.06
1 5 -12 3.19 0.17
1 5 -12 3.13 0.15
-1 -5 12 3.26 0.2
0 5 -12 6.57 0.29
0 5 -12 6.54 0.28
0 -5 12 6.2 0.33
-1 5 -12 0.1 0.04
-1 5 -12 0.1 0.04
1 -5 12 0.13 0.06
1 -5 12 0.17 0.05
-2 5 -12 0.05 0.05
2 -5 12 0.09 0.05
2 -5 12 0.16 0.06
-3 5 -12 1.16 0.11
3 -5 12 0.99 0.12
3 -5 12 1.27 0.13
-4 5 -12 0.02 0.06
4 -5 12 0.11 0.07
4 4 -12 -0.02 0.05
-4 -4 12 -0.04 0.07
3 4 -12 0.03 0.05
-3 -4 12 0.13 0.07
2 4 -12 0.02 0.05
-2 -4 12 0.13 0.06
1 4 -12 6.97 0.31
1 4 -12 7.04 0.28
-1 -4 12 5.96 0.33
-1 -4 12 6.93 0.31
0 4 -12 5.23 0.24
0 4 -12 5.25 0.23
0 -4 12 5.32 0.24
-1 4 -12 2.07 0.12
-1 4 -12 2.16 0.12
1 -4 12 2.18 0.14
1 -4 12 2.27 0.13
-2 4 -12 6.09 0.28
2 -4 12 6.8 0.31
-3 4 -12 0.05 0.05
3 -4 12 0.03 0.06
3 -4 12 0.09 0.05
-4 4 -12 0.24 0.07
4 -4 12 0.2 0.07
4 3 -12 0.1 0.06
-4 -3 12 0.06 0.07
3 3 -12 0.21 0.05
-3 -3 12 0.35 0.08
2 3 -12 0.44 0.06
-2 -3 12 0.53 0.07
-2 -3 12 0.52 0.08
1 3 -12 3.86 0.17
1 3 -12 3.86 0.19
-1 -3 12 3.72 0.19
-1 -3 12 3.98 0.21
0 3 -12 2.21 0.1
0 3 -12 2.06 0.11
0 -3 12 2.29 0.12
0 -3 12 1.63 0.13
-1 3 -12 5.8 0.26
-1 3 -12 5.93 0.27
1 -3 12 6.17 0.3
1 -3 12 6.29 0.28
-2 3 -12 11.29 0.48
-2 3 -12 11.71 0.47
2 -3 12 11.66 0.5
2 -3 12 10.67 0.52
-3 3 -12 0.08 0.05
3 -3 12 0.16 0.06
-4 3 -12 1.59 0.13
4 -3 12 1.52 0.14
5 2 -12 0.03 0.06
-5 -2 12 -0.09 0.07
4 2 -12 0.09 0.06
-4 -2 12 0.04 0.07
-4 -2 12 0.13 0.08
3 2 -12 0.34 0.06
-3 -2 12 0.33 0.07
-3 -2 12 0.43 0.08
2 2 -12 15.38 0.65
-2 -2 12 15.44 0.68
-2 -2 12 15.69 0.71
1 2 -12 0.62 0.07
-1 -2 12 0.71 0.07
-1 -2 12 0.63 0.08
0 2 -12 0.3 0.04
0 2 -12 0.3 0.03
0 -2 12 0.28 0.04
0 -2 12 0.27 0.05
-1 2 -12 5.09 0.23
-1 2 -12 4.88 0.22
1 -2 12 4.93 0.23
1 -2 12 5.22 0.25
-2 2 -12 10.46 0.43
-2 2 -12 10.4 0.44
2 -2 12 9.69 0.47
2 -2 12 10.42 0.46
-3 2 -12 0 0.05
3 -2 12 0.05 0.06
-4 2 -12 -0.01 0.05
4 -2 12 0.15 0.07
-5 2 -12 0.23 0.07
5 -2 12 0.25 0.08
5 1 -12 0.02 0.05
-5 -1 12 -0.1 0.08
-5 -1 12 -0.05 0.09
4 1 -12 0.39 0.07
-4 -1 12 0.44 0.1
-4 -1 12 0.4 0.09
3 1 -12 -0.02 0.05
-3 -1 12 0.03 0.06
-3 -1 12 0.04 0.06
2 1 -12 2.58 0.14
-2 -1 12 2.8 0.17
-2 -1 12 2.59 0.16
1 1 -12 2.12 0.12
-1 -1 12 2.13 0.13
-1 -1 12 2.06 0.13
0 1 -12 2.61 0.12
0 1 -12 2.68 0.14
0 -1 12 2.6 0.14
0 -1 12 2.53 0.14
-1 1 -12 0.87 0.07
-1 1 -12 0.96 0.07
1 -1 12 0.96 0.08
1 -1 12 0.97 0.07
-2 1 -12 3.06 0.16
-2 1 -12 2.92 0.15
2 -1 12 3.1 0.17
2 -1 12 2.9 0.16
-3 1 -12 7.46 0.32
-3 1 -12 6.77 0.33
3 -1 12 7.55 0.35
-4 1 -12 0.22 0.06
4 -1 12 0.35 0.08
-5 1 -12 0.11 0.06
5 -1 12 0.06 0.07
5 0 -12 -0.03 0.06
-5 0 12 0.13 0.11
-5 0 12 0.1 0.09
4 0 -12 1.1 0.1
-4 0 12 0.94 0.13
-4 0 12 1.18 0.14
3 0 -12 4.56 0.22
-3 0 12 4.31 0.25
-3 0 12 4.28 0.25
2 0 -12 0.82 0.08
-2 0 12 0.73 0.09
-2 0 12 0.91 0.09
1 0 -12 2.27 0.13
-1 0 12 2.51 0.14
-1 0 12 2.43 0.14
0 0 -12 0.03 0.03
0 0 -12 0.02 0.02
0 0 12 0.05 0.03
0 0 12 0.07 0.03
-1 0 -12 0.15 0.03
1 0 12 0.11 0.04
1 0 12 0.18 0.03
-2 0 -12 2.69 0.15
-2 0 -12 2.9 0.16
2 0 12 3.04 0.16
-3 0 -12 1.18 0.11
-3 0 -12 1.17 0.1
3 0 12 1.28 0.11
-4 0 -12 1.97 0.13
4 0 12 1.88 0.14
-5 0 -12 0.07 0.06
5 0 12 0.18 0.07
5 -1 -12 1.06 0.15
-5 1 12 0.91 0.14
4 -1 -12 0.09 0.05
-4 1 12 0.04 0.08
-4 1 12 -0.01 0.07
3 -1 -12 0.27 0.05
-3 1 12 0.28 0.08
-3 1 12 0.22 0.08
2 -1 -12 0.07 0.04
-2 1 12 0.07 0.05
-2 1 12 0.11 0.06
1 -1 -12 4.22 0.2
-1 1 12 4.14 0.21
-1 1 12 4.09 0.21
0 -1 -12 0.52 0.04
0 -1 -12 0.57 0.06
0 1 12 0.65 0.06
0 1 12 0.7 0.07
-1 -1 -12 0.05 0.03
-1 -1 -12 0.04 0.04
1 1 12 0.09 0.04
1 1 12 0.08 0.03
-2 -1 -12 12.57 0.52
-2 -1 -12 12.87 0.55
2 1 12 12.87 0.55
-3 -1 -12 11.43 0.49
-3 -1 -12 11.69 0.52
3 1 12 12.45 0.53
-4 -1 -12 0.38 0.06
-4 -1 -12 0.38 0.07
4 1 12 0.34 0.08
-5 -1 -12 0.01 0.05
5 1 12 0.05 0.06
4 -2 -12 1.02 0.1
4 -2 -12 1.05 0.13
-4 2 12 0.99 0.13
-4 2 12 1.06 0.13
3 -2 -12 0.28 0.05
-3 2 12 0.29 0.08
-3 2 12 0.22 0.07
2 -2 -12 2.74 0.14
-2 2 12 2.54 0.16
-2 2 12 2.44 0.16
1 -2 -12 0.06 0.04
-1 2 12 0 0.04
-1 2 12 0.04 0.04
0 -2 -12 5.07 0.22
0 2 12 5.26 0.25
0 2 12 5.13 0.25
-1 -2 -12 1.06 0.07
-1 -2 -12 1.21 0.09
1 2 12 0.91 0.07
-2 -2 -12 0.61 0.07
-2 -2 -12 0.82 0.09
2 2 12 0.81 0.08
-3 -2 -12 0.43 0.06
-3 -2 -12 0.57 0.08
3 2 12 0.26 0.06
-4 -2 -12 0.3 0.06
-4 -2 -12 0.29 0.07
4 2 12 0.26 0.07
-5 -2 -12 -0.01 0.05
5 2 12 -0.05 0.06
4 -3 -12 0.1 0.07
-4 3 12 0.02 0.08
-4 3 12 -0.05 0.08
3 -3 -12 -0.02 0.04
3 -3 -12 -0.05 0.06
-3 3 12 -0.08 0.07
-3 3 12 0.05 0.07
2 -3 -12 1.12 0.09
2 -3 -12 1.07 0.11
-2 3 12 1.04 0.11
-2 3 12 1.03 0.11
1 -3 -12 3.28 0.17
-1 3 12 3.39 0.18
-1 3 12 3.19 0.19
0 -3 -12 0.53 0.06
0 -3 -12 0.58 0.07
0 3 12 0.58 0.06
0 3 12 0.55 0.05
0 3 12 0.5 0.06
-1 -3 -12 2.98 0.17
-1 -3 -12 2.91 0.15
1 3 12 3.05 0.16
-2 -3 -12 5.3 0.27
-2 -3 -12 5.16 0.24
2 3 12 5.49 0.25
-3 -3 -12 0.51 0.08
-3 -3 -12 0.47 0.07
3 3 12 0.33 0.06
-4 -3 -12 0.06 0.06
-4 -3 -12 0.08 0.05
4 3 12 0.03 0.06
-5 -3 -12 0.1 0.06
5 3 12 0.06 0.06
4 -4 -12 0.07 0.08
-4 4 12 0 0.09
3 -4 -12 0.17 0.05
3 -4 -12 0.21 0.08
-3 4 12 0.15 0.08
2 -4 -12 0.84 0.1
2 -4 -12 0.65 0.07
-2 4 12 0.52 0.08
1 -4 -12 4.2 0.21
1 -4 -12 4.08 0.22
-1 4 12 3.92 0.22
0 -4 -12 0.17 0.04
0 -4 -12 0.16 0.05
0 4 12 0.27 0.06
0 4 12 0.19 0.03
-1 -4 -12 0.01 0.05
-1 -4 -12 -0.04 0.03
1 4 12 0.06 0.05
1 4 12 0.01 0.03
-2 -4 -12 0.21 0.07
-2 -4 -12 0.19 0.05
2 4 12 0.24 0.05
-3 -4 -12 0.35 0.06
-3 -4 -12 0.42 0.08
3 4 12 0.37 0.07
-4 -4 -12 0.27 0.07
-4 -4 -12 0.38 0.09
4 4 12 0.38 0.07
-5 -4 -12 0.19 0.08
-5 -4 -12 0.15 0.07
5 4 12 0.22 0.08
4 -5 -12 -0.04 0.08
-4 5 12 -0.03 0.09
3 -5 -12 -0.01 0.07
3 -5 -12 -0.08 0.05
-3 5 12 0.07 0.08
2 -5 -12 0.72 0.08
2 -5 -12 0.77 0.1
-2 5 12 0.9 0.11
1 -5 -12 0.77 0.09
1 -5 -12 0.82 0.09
-1 5 12 0.91 0.1
0 -5 -12 1.84 0.12
0 -5 -12 1.95 0.13
0 5 12 1.89 0.11
0 5 12 1.88 0.13
-1 -5 -12 3.89 0.22
1 5 12 4.22 0.21
1 5 12 3.89 0.19
-2 -5 -12 7.38 0.36
-2 -5 -12 7.23 0.33
2 5 12 7.26 0.32
2 5 12 7.28 0.34
-3 -5 -12 1.56 0.13
-3 -5 -12 1.72 0.16
3 5 12 1.61 0.11
-4 -5 -12 0.64 0.11
-4 -5 -12 0.56 0.09
4 5 12 0.55 0.08
3 -6 -12 0.58 0.1
-3 6 12 0.45 0.1
2 -6 -12 0.38 0.08
2 -6 -12 0.56 0.09
-2 6 12 0.5 0.1
1 -6 -12 0.01 0.05
1 -6 -12 0.07 0.06
-1 6 12 0.03 0.06
0 -6 -12 0.73 0.09
0 6 12 0.54 0.08
-1 -6 -12 0.35 0.09
1 6 12 0.38 0.06
1 6 12 0.43 0.07
-2 -6 -12 1.56 0.15
2 6 12 1.49 0.12
2 6 12 1.35 0.11
-3 -6 -12 0.34 0.07
-3 -6 -12 0.46 0.09
3 6 12 0.38 0.08
3 6 12 0.31 0.06
-4 -6 -12 0.35 0.08
-4 -6 -12 0.26 0.09
4 6 12 0.18 0.06
4 6 12 0.2 0.07
3 -7 -12 0.23 0.09
-3 7 12 0.23 0.09
2 -7 -12 0.32 0.09
2 -7 -12 0.16 0.07
-2 7 12 0.3 0.09
1 -7 -12 0.54 0.09
-1 7 12 0.35 0.08
0 -7 -12 0.13 0.07
0 7 12 0.19 0.07
-1 -7 -12 0.86 0.11
1 7 12 0.95 0.1
1 7 12 0.84 0.09
-2 -7 -12 1.2 0.13
2 7 12 1.09 0.11
2 7 12 1.15 0.11
-3 -7 -12 -0.03 0.08
3 7 12 0.08 0.07
3 7 12 0.09 0.06
-4 -7 -12 -0.01 0.06
-4 -7 -12 0.03 0.08
4 7 12 0.11 0.07
4 7 12 0.1 0.06
2 -8 -12 0.09 0.08
-2 8 12 0.17 0.09
1 -8 -12 0.04 0.07
-1 8 12 0.13 0.07
0 -8 -12 1.2 0.13
0 8 12 1.2 0.13
-1 -8 -12 1.15 0.13
1 8 12 1.26 0.11
1 8 12 1.06 0.12
-2 -8 -12 1.19 0.14
2 8 12 1 0.11
2 8 12 1.04 0.11
-3 -8 -12 0.45 0.11
3 8 12 0.5 0.09
3 8 12 0.45 0.08
1 -9 -12 -0.01 0.07
-1 9 12 0.01 0.08
0 -9 -12 0.31 0.1
0 9 12 0.41 0.09
-1 -9 -12 -0.01 0.08
1 9 12 0 0.07
1 9 12 0.08 0.06
-2 -9 -12 0.02 0.09
2 9 12 -0.03 0.06
2 9 12 -0.11 0.06
-1 -9 13 0.05 0.08
0 -9 13 -0.07 0.07
2 8 -13 0.08 0.06
-2 -8 13 0.01 0.08
1 8 -13 0.03 0.05
1 8 -13 -0.03 0.05
-1 -8 13 0.01 0.07
0 8 -13 0 0.05
0 -8 13 0.01 0.07
-1 8 -13 -0.07 0.05
1 -8 13 -0.07 0.06
2 -8 13 -0.05 0.06
3 7 -13 -0.02 0.05
-3 -7 13 0.02 0.07
2 7 -13 0.35 0.07
-2 -7 13 0.18 0.07
1 7 -13 0.13 0.05
1 7 -13 0.04 0.04
-1 -7 13 0.02 0.06
0 7 -13 0.03 0.04
0 7 -13 -0.03 0.04
0 -7 13 -0.03 0.06
-1 7 -13 -0.08 0.04
1 -7 13 -0.04 0.05
-2 7 -13 0.03 0.05
2 -7 13 -0.05 0.07
3 -7 13 0 0.06
3 6 -13 0.03 0.06
-3 -6 13 0.02 0.07
2 6 -13 0.08 0.05
-2 -6 13 0.09 0.06
1 6 -13 0.36 0.06
1 6 -13 0.34 0.05
-1 -6 13 0.34 0.08
0 6 -13 0.22 0.05
0 6 -13 0.18 0.05
0 -6 13 0.19 0.07
-1 6 -13 0.33 0.06
1 -6 13 0.31 0.08
-2 6 -13 0.03 0.05
2 -6 13 0.03 0.07
-3 6 -13 0.25 0.06
3 -6 13 0.27 0.07
4 5 -13 0.06 0.06
-4 -5 13 0.06 0.08
3 5 -13 0.42 0.07
-3 -5 13 0.48 0.09
2 5 -13 0.12 0.05
-2 -5 13 0.05 0.05
1 5 -13 0.71 0.08
-1 -5 13 0.49 0.08
0 5 -13 1.18 0.09
0 5 -13 1.26 0.09
-1 5 -13 0.24 0.04
-1 5 -13 0.27 0.05
1 -5 13 0.22 0.05
1 -5 13 0.11 0.05
-2 5 -13 0.01 0.05
2 -5 13 0.04 0.05
2 -5 13 -0.01 0.05
-3 5 -13 0.02 0.05
3 -5 13 0.03 0.06
3 -5 13 0.03 0.06
4 4 -13 0.03 0.06
-4 -4 13 0.07 0.07
3 4 -13 0.03 0.05
-3 -4 13 0.09 0.06
2 4 -13 0.26 0.06
-2 -4 13 0.25 0.07
1 4 -13 0.16 0.05
-1 -4 13 0.21 0.05
-1 -4 13 0.16 0.06
0 4 -13 2.7 0.14
0 4 -13 2.54 0.13
0 -4 13 2.42 0.14
0 -4 13 2.18 0.16
-1 4 -13 0.05 0.04
-1 4 -13 0.06 0.04
1 -4 13 0.04 0.04
1 -4 13 0.07 0.05
-2 4 -13 4.3 0.22
2 -4 13 4.76 0.23
-3 4 -13 0.05 0.05
3 -4 13 0.05 0.06
-4 4 -13 0.22 0.06
4 -4 13 0.28 0.07
4 3 -13 -0.01 0.06
-4 -3 13 -0.05 0.07
3 3 -13 0.17 0.06
-3 -3 13 0.28 0.08
2 3 -13 1.69 0.12
-2 -3 13 1.93 0.14
-2 -3 13 2.02 0.13
1 3 -13 2.95 0.16
-1 -3 13 2.97 0.18
-1 -3 13 3.13 0.17
0 3 -13 0.66 0.06
0 3 -13 0.63 0.06
0 -3 13 0.55 0.07
0 -3 13 0.64 0.07
-1 3 -13 0.22 0.05
-1 3 -13 0.2 0.04
1 -3 13 0.35 0.06
1 -3 13 0.27 0.05
-2 3 -13 3.85 0.18
-2 3 -13 4.01 0.18
2 -3 13 3.05 0.2
2 -3 13 3.93 0.2
-3 3 -13 -0.01 0.05
3 -3 13 0.07 0.05
-4 3 -13 0.42 0.08
4 -3 13 0.26 0.08
4 2 -13 0.02 0.05
-4 -2 13 0.02 0.08
3 2 -13 -0.06 0.05
-3 -2 13 -0.06 0.05
-3 -2 13 0.01 0.05
2 2 -13 1.77 0.12
-2 -2 13 1.67 0.13
-2 -2 13 1.77 0.13
1 2 -13 6.83 0.3
-1 -2 13 6.63 0.32
-1 -2 13 6.88 0.33
0 2 -13 1.98 0.1
0 2 -13 2.01 0.12
0 -2 13 2.03 0.12
0 -2 13 2.1 0.13
-1 2 -13 3.93 0.19
-1 2 -13 3.86 0.19
1 -2 13 4.19 0.2
1 -2 13 4.25 0.22
-2 2 -13 0.6 0.06
-2 2 -13 0.69 0.08
2 -2 13 0.57 0.08
2 -2 13 0.47 0.06
-3 2 -13 0.62 0.07
3 -2 13 0.44 0.08
-4 2 -13 0.02 0.05
4 -2 13 0.01 0.06
4 1 -13 0.21 0.06
-4 -1 13 0.17 0.08
-4 -1 13 0.37 0.09
3 1 -13 1.21 0.11
-3 -1 13 1.32 0.13
-3 -1 13 1.11 0.13
2 1 -13 0.55 0.06
-2 -1 13 0.61 0.08
-2 -1 13 0.68 0.08
1 1 -13 -0.07 0.03
-1 -1 13 0 0.04
-1 -1 13 -0.07 0.04
0 1 -13 3.93 0.19
0 1 -13 3.81 0.17
0 -1 13 3.91 0.19
0 -1 13 3.86 0.2
-1 1 -13 17.98 0.72
-1 1 -13 17.91 0.75
1 -1 13 17.66 0.81
1 -1 13 18.74 0.77
-2 1 -13 0.25 0.05
-2 1 -13 0.18 0.05
2 -1 13 0.12 0.06
-3 1 -13 1.73 0.12
-3 1 -13 1.54 0.12
3 -1 13 1.71 0.13
-4 1 -13 0.14 0.06
4 -1 13 0.16 0.06
5 -1 13 0.14 0.07
4 0 -13 0.14 0.06
-4 0 13 0.2 0.09
-4 0 13 0.28 0.1
3 0 -13 3.72 0.19
-3 0 13 3.49 0.22
-3 0 13 3.7 0.22
2 0 -13 2.28 0.13
-2 0 13 2.16 0.15
-2 0 13 2.26 0.15
1 0 -13 4.3 0.21
-1 0 13 4.3 0.22
-1 0 13 4.34 0.22
0 0 -13 6.34 0.27
0 0 -13 6.63 0.29
0 0 13 6.36 0.3
0 0 13 6.81 0.31
-1 0 -13 12.62 0.53
-1 0 -13 12.36 0.5
1 0 13 12.62 0.54
1 0 13 12.19 0.56
-2 0 -13 2.31 0.14
-2 0 -13 2.39 0.13
2 0 13 2.47 0.14
-3 0 -13 -0.01 0.05
-3 0 -13 -0.01 0.05
3 0 13 0.03 0.06
-4 0 -13 0.31 0.07
4 0 13 0.3 0.08
-5 0 -13 0.4 0.08
5 0 13 0.31 0.08
4 -1 -13 0.05 0.05
-4 1 13 0.05 0.08
-4 1 13 0.01 0.07
3 -1 -13 0.46 0.07
-3 1 13 0.59 0.1
-3 1 13 0.65 0.1
2 -1 -13 0.4 0.06
-2 1 13 0.39 0.07
-2 1 13 0.35 0.07
1 -1 -13 1.54 0.1
-1 1 13 1.58 0.12
-1 1 13 1.42 0.11
0 -1 -13 0.1 0.04
0 1 13 0.09 0.04
0 1 13 0.09 0.03
-1 -1 -13 10.67 0.46
-1 -1 -13 10.62 0.43
1 1 13 10.81 0.48
1 1 13 10.23 0.46
-2 -1 -13 9.5 0.41
-2 -1 -13 9.71 0.44
2 1 13 10.05 0.44
-3 -1 -13 0.1 0.05
-3 -1 -13 0.12 0.06
3 1 13 0.22 0.06
-4 -1 -13 0.39 0.08
-4 -1 -13 0.42 0.07
4 1 13 0.26 0.07
-5 -1 -13 0.03 0.06
5 1 13 0 0.07
4 -2 -13 1.57 0.17
4 -2 -13 1.67 0.13
-4 2 13 1.73 0.17
-4 2 13 1.79 0.17
3 -2 -13 0.42 0.06
-3 2 13 0.42 0.09
-3 2 13 0.42 0.09
2 -2 -13 0.7 0.07
-2 2 13 0.72 0.1
-2 2 13 0.68 0.09
1 -2 -13 0.51 0.06
-1 2 13 0.42 0.07
-1 2 13 0.53 0.07
0 -2 -13 2.06 0.13
0 2 13 2.06 0.13
0 2 13 2.11 0.12
-1 -2 -13 5.39 0.23
-1 -2 -13 5.19 0.26
1 2 13 5.32 0.25
-2 -2 -13 0.72 0.07
-2 -2 -13 0.6 0.08
2 2 13 0.69 0.08
-3 -2 -13 5.96 0.31
-3 -2 -13 6.07 0.28
3 2 13 6.25 0.3
-4 -2 -13 0.12 0.05
-4 -2 -13 0.07 0.06
4 2 13 0.06 0.06
-5 -2 -13 0.1 0.06
5 2 13 0.13 0.07
4 -3 -13 0.31 0.1
4 -3 -13 0.17 0.06
-4 3 13 0.29 0.1
-4 3 13 0.25 0.1
3 -3 -13 0.03 0.05
3 -3 -13 0 0.06
-3 3 13 0 0.07
-3 3 13 0.05 0.07
2 -3 -13 0.56 0.07
2 -3 -13 0.66 0.09
-2 3 13 0.68 0.1
-2 3 13 0.69 0.09
1 -3 -13 0.11 0.05
-1 3 13 0.09 0.06
-1 3 13 0.18 0.05
0 -3 -13 0.12 0.05
0 3 13 0.1 0.04
0 3 13 0.11 0.05
-1 -3 -13 12.04 0.53
-1 -3 -13 12 0.49
1 3 13 12.03 0.53
-2 -3 -13 24.08 1
-2 -3 -13 23.3 0.94
2 3 13 23.46 1
-3 -3 -13 0.21 0.07
-3 -3 -13 0.22 0.06
3 3 13 0.17 0.06
-4 -3 -13 0.3 0.07
-4 -3 -13 0.38 0.09
4 3 13 0.27 0.07
-5 -3 -13 1.19 0.13
5 3 13 1.16 0.12
4 -4 -13 0.01 0.09
-4 4 13 0.09 0.08
3 -4 -13 0.02 0.07
3 -4 -13 0.01 0.05
-3 4 13 0.05 0.07
2 -4 -13 0.39 0.08
2 -4 -13 0.39 0.06
-2 4 13 0.46 0.09
1 -4 -13 0.27 0.06
1 -4 -13 0.25 0.06
-1 4 13 0.25 0.06
0 -4 -13 3.9 0.2
0 -4 -13 4.06 0.21
0 4 13 3.93 0.21
-1 -4 -13 4.78 0.25
-1 -4 -13 4.8 0.22
1 4 13 5.04 0.25
1 4 13 4.75 0.22
-2 -4 -13 0.08 0.05
-2 -4 -13 0.13 0.07
2 4 13 0.05 0.05
-3 -4 -13 0.84 0.11
-3 -4 -13 0.71 0.08
3 4 13 0.84 0.09
-4 -4 -13 0.01 0.05
-4 -4 -13 0 0.07
4 4 13 0.05 0.05
3 -5 -13 0.02 0.06
3 -5 -13 -0.04 0.07
-3 5 13 0.08 0.08
2 -5 -13 -0.01 0.06
2 -5 -13 -0.01 0.05
-2 5 13 -0.01 0.07
1 -5 -13 0.4 0.07
1 -5 -13 0.34 0.07
-1 5 13 0.36 0.07
0 -5 -13 5.46 0.27
0 5 13 5.28 0.28
-1 -5 -13 5.99 0.3
1 5 13 5.48 0.28
1 5 13 5.62 0.26
-2 -5 -13 -0.01 0.04
-2 -5 -13 0.02 0.06
2 5 13 0.01 0.05
2 5 13 0.03 0.05
-3 -5 -13 0.32 0.06
-3 -5 -13 0.41 0.09
3 5 13 0.27 0.06
-4 -5 -13 0.53 0.11
-4 -5 -13 0.53 0.08
4 5 13 0.52 0.08
3 -6 -13 0.47 0.1
-3 6 13 0.38 0.1
2 -6 -13 0.3 0.07
2 -6 -13 0.34 0.08
-2 6 13 0.51 0.1
1 -6 -13 0.8 0.09
1 -6 -13 0.78 0.1
-1 6 13 0.69 0.1
0 -6 -13 0.9 0.11
0 6 13 0.85 0.1
-1 -6 -13 2.37 0.18
1 6 13 2.52 0.15
1 6 13 2.6 0.17
-2 -6 -13 0 0.06
2 6 13 -0.05 0.05
2 6 13 -0.01 0.05
-3 -6 -13 0.08 0.08
-3 -6 -13 0.04 0.05
3 6 13 -0.02 0.05
3 6 13 0.06 0.05
-4 -6 -13 0 0.08
-4 -6 -13 0.07 0.06
4 6 13 0.02 0.07
4 6 13 0.06 0.06
2 -7 -13 0.23 0.07
2 -7 -13 0.42 0.09
-2 7 13 0.23 0.09
1 -7 -13 0.91 0.11
-1 7 13 1 0.13
0 -7 -13 0.94 0.12
0 7 13 1.16 0.13
-1 -7 -13 0.94 0.12
1 7 13 0.82 0.09
1 7 13 0.89 0.11
-2 -7 -13 0.89 0.12
2 7 13 0.99 0.11
2 7 13 0.82 0.1
-3 -7 -13 0.64 0.12
3 7 13 0.36 0.08
3 7 13 0.46 0.09
2 -8 -13 -0.07 0.07
-2 8 13 -0.04 0.08
1 -8 -13 0.16 0.08
-1 8 13 0.45 0.1
0 -8 -13 0.5 0.1
0 8 13 0.73 0.1
-1 -8 -13 0.29 0.1
1 8 13 0.24 0.08
-2 -8 -13 0.36 0.1
2 8 13 0.17 0.07
2 8 13 0.19 0.07
-3 -8 -13 0.23 0.11
3 8 13 0.17 0.07
3 8 13 0.21 0.07
-1 9 13 0.07 0.08
0 -9 -13 0.65 0.12
0 9 13 0.74 0.11
-1 -9 -13 0.16 0.09
1 9 13 0.19 0.08
-2 -9 -13 -0.01 0.08
2 9 13 -0.05 0.07
2 9 13 0.06 0.06
-2 -8 14 0.1 0.08
1 8 -14 0.05 0.05
-1 -8 14 0.08 0.08
0 8 -14 0.15 0.05
0 -8 14 -0.03 0.07
-1 8 -14 -0.02 0.05
1 -8 14 -0.06 0.07
2 7 -14 0.02 0.05
-2 -7 14 0.02 0.07
1 7 -14 0.04 0.05
-1 -7 14 0.06 0.07
0 7 -14 0.08 0.05
0 7 -14 0.02 0.04
0 -7 14 0.04 0.07
-1 7 -14 -0.05 0.04
1 -7 14 -0.04 0.06
-2 7 -14 0 0.06
2 -7 14 -0.09 0.06
3 6 -14 0.04 0.06
-3 -6 14 0.03 0.07
2 6 -14 0.03 0.05
-2 -6 14 0.03 0.07
1 6 -14 0.07 0.05
-1 -6 14 -0.04 0.06
0 6 -14 -0.02 0.04
0 6 -14 -0.04 0.04
0 -6 14 0 0.06
-1 6 -14 0.03 0.04
1 -6 14 -0.01 0.06
-2 6 -14 0.02 0.05
2 -6 14 0 0.06
-3 6 -14 0.06 0.05
3 -6 14 0.16 0.07
3 -6 14 -0.01 0.06
3 5 -14 0.38 0.07
-3 -5 14 0.43 0.09
2 5 -14 0 0.05
-2 -5 14 0.06 0.06
1 5 -14 0.13 0.05
-1 -5 14 0.1 0.07
0 5 -14 0.06 0.04
0 5 -14 0.06 0.04
0 -5 14 0.05 0.06
-1 5 -14 0.02 0.04
-1 5 -14 0 0.03
1 -5 14 0.03 0.04
1 -5 14 0.04 0.05
-2 5 -14 0.1 0.05
2 -5 14 0.1 0.05
2 -5 14 0.09 0.06
-3 5 -14 0.05 0.05
3 -5 14 0.14 0.07
4 4 -14 0 0.06
-4 -4 14 0.01 0.08
3 4 -14 0.05 0.05
-3 -4 14 0.05 0.06
2 4 -14 0.09 0.05
-2 -4 14 0.1 0.06
1 4 -14 0.85 0.08
-1 -4 14 0.69 0.09
0 4 -14 0.42 0.05
0 4 -14 0.31 0.05
0 -4 14 0.3 0.05
0 -4 14 0.39 0.07
-1 4 -14 -0.01 0.03
-1 4 -14 0.09 0.04
1 -4 14 0.09 0.04
1 -4 14 0.02 0.05
-2 4 -14 0.46 0.06
2 -4 14 0.36 0.07
2 -4 14 0.44 0.07
-3 4 -14 0.03 0.05
3 -4 14 0.08 0.06
4 -4 14 0.12 0.07
4 3 -14 0.19 0.06
-4 -3 14 0.03 0.08
3 3 -14 0.08 0.05
-3 -3 14 0.1 0.07
2 3 -14 2.47 0.15
-2 -3 14 2.43 0.16
-2 -3 14 2.41 0.17
1 3 -14 2.35 0.13
-1 -3 14 2.45 0.16
-1 -3 14 2.14 0.14
0 3 -14 -0.03 0.03
0 3 -14 -0.02 0.03
0 -3 14 0.01 0.04
0 -3 14 0.04 0.05
-1 3 -14 0.13 0.04
-1 3 -14 0.12 0.04
1 -3 14 0.12 0.05
1 -3 14 0.25 0.05
-2 3 -14 0.05 0.04
-2 3 -14 0.11 0.05
2 -3 14 0.11 0.05
2 -3 14 0.08 0.05
-3 3 -14 0.16 0.05
3 -3 14 0.27 0.07
-4 3 -14 -0.02 0.05
4 -3 14 0 0.06
4 2 -14 -0.03 0.05
-4 -2 14 -0.06 0.08
3 2 -14 -0.01 0.05
-3 -2 14 0.04 0.06
-3 -2 14 0.13 0.07
2 2 -14 0.71 0.08
-2 -2 14 0.74 0.09
-2 -2 14 0.77 0.09
1 2 -14 6.62 0.3
-1 -2 14 6.58 0.33
-1 -2 14 6.2 0.31
0 2 -14 0.45 0.06
0 -2 14 0.53 0.06
0 -2 14 0.6 0.07
-1 2 -14 9.4 0.41
-1 2 -14 9.18 0.39
1 -2 14 9.21 0.44
1 -2 14 9.46 0.42
-2 2 -14 1.23 0.09
-2 2 -14 1.35 0.1
2 -2 14 1.35 0.11
-3 2 -14 0.38 0.06
3 -2 14 0.4 0.08
-4 2 -14 -0.03 0.05
4 -2 14 0.01 0.06
4 1 -14 0.06 0.06
-4 -1 14 0.03 0.07
-4 -1 14 0.08 0.09
3 1 -14 0.5 0.07
-3 -1 14 0.61 0.1
-3 -1 14 0.6 0.1
2 1 -14 0.42 0.07
-2 -1 14 0.57 0.09
-2 -1 14 0.55 0.08
1 1 -14 1.04 0.09
-1 -1 14 1.22 0.1
-1 -1 14 1.06 0.1
0 1 -14 0.51 0.06
0 -1 14 0.7 0.08
0 -1 14 0.68 0.08
-1 1 -14 15.93 0.65
-1 1 -14 15.66 0.62
1 -1 14 14.62 0.69
1 -1 14 15.24 0.66
-2 1 -14 -0.05 0.03
-2 1 -14 0.06 0.04
2 -1 14 0.03 0.05
-3 1 -14 1.53 0.11
-3 1 -14 1.27 0.11
3 -1 14 1.31 0.11
-4 1 -14 0.02 0.05
4 -1 14 -0.03 0.05
4 0 -14 -0.09 0.05
-4 0 14 -0.01 0.07
-4 0 14 -0.01 0.07
3 0 -14 2.23 0.15
-3 0 14 2.55 0.18
-3 0 14 2.4 0.19
2 0 -14 2.79 0.15
-2 0 14 2.79 0.18
-2 0 14 2.49 0.17
1 0 -14 0.76 0.08
-1 0 14 0.92 0.09
-1 0 14 0.75 0.09
0 0 -14 0.31 0.06
0 0 14 0.33 0.06
0 0 14 0.35 0.05
-1 0 -14 1.58 0.11
-1 0 -14 1.65 0.1
1 0 14 1.6 0.11
1 0 14 1.56 0.11
-2 0 -14 -0.06 0.03
-2 0 -14 0 0.04
2 0 14 0.02 0.05
-3 0 -14 0.25 0.06
-3 0 -14 0.2 0.06
3 0 14 0.24 0.07
-4 0 -14 0.06 0.05
4 0 14 0.02 0.06
4 -1 -14 -0.05 0.05
-4 1 14 0.02 0.09
-4 1 14 0.05 0.08
3 -1 -14 0.14 0.06
-3 1 14 0.17 0.08
-3 1 14 0.19 0.08
2 -1 -14 0.95 0.1
-2 1 14 0.88 0.1
-2 1 14 0.87 0.1
1 -1 -14 0.97 0.09
-1 1 14 1 0.09
-1 1 14 0.89 0.1
0 -1 -14 3.62 0.19
0 1 14 3.67 0.2
0 1 14 3.85 0.2
-1 -1 -14 0.29 0.05
-1 -1 -14 0.29 0.06
1 1 14 0.22 0.05
-2 -1 -14 0.39 0.06
-2 -1 -14 0.49 0.07
2 1 14 0.58 0.07
-3 -1 -14 0.63 0.07
-3 -1 -14 0.62 0.09
3 1 14 0.66 0.08
-4 -1 -14 0 0.05
4 1 14 0.06 0.06
4 -2 -14 2.13 0.15
4 -2 -14 2.03 0.19
-4 2 14 2.08 0.19
-4 2 14 2.09 0.19
3 -2 -14 0.2 0.06
-3 2 14 0.28 0.09
-3 2 14 0.26 0.09
2 -2 -14 0.77 0.09
-2 2 14 0.9 0.1
-2 2 14 0.89 0.11
1 -2 -14 0.03 0.04
-1 2 14 0.01 0.04
-1 2 14 0.02 0.05
0 -2 -14 12.74 0.55
0 2 14 12.67 0.56
0 2 14 12.56 0.58
-1 -2 -14 2.31 0.13
-1 -2 -14 2.34 0.15
1 2 14 2.58 0.14
-2 -2 -14 -0.01 0.05
-2 -2 -14 -0.03 0.04
2 2 14 0.02 0.04
-3 -2 -14 0.04 0.04
-3 -2 -14 -0.06 0.05
3 2 14 0.01 0.05
-4 -2 -14 0.82 0.1
-4 -2 -14 0.76 0.09
4 2 14 0.73 0.1
4 -3 -14 0.11 0.07
4 -3 -14 0.21 0.09
-4 3 14 0.25 0.1
-4 3 14 0.29 0.1
3 -3 -14 -0.06 0.05
3 -3 -14 0.01 0.07
-3 3 14 0.15 0.08
-3 3 14 -0.05 0.07
2 -3 -14 -0.01 0.05
2 -3 -14 -0.03 0.05
-2 3 14 0.05 0.06
-2 3 14 -0.02 0.06
1 -3 -14 0.87 0.09
-1 3 14 0.75 0.09
-1 3 14 1.04 0.11
0 -3 -14 2.55 0.16
0 3 14 2.82 0.17
-1 -3 -14 8.53 0.37
-1 -3 -14 8.58 0.4
1 3 14 9.26 0.4
-2 -3 -14 -0.03 0.06
-2 -3 -14 0 0.04
2 3 14 -0.01 0.04
-3 -3 -14 0.38 0.08
-3 -3 -14 0.33 0.06
3 3 14 0.36 0.07
-4 -3 -14 -0.03 0.07
-4 -3 -14 0.11 0.06
4 3 14 -0.05 0.06
3 -4 -14 0.11 0.08
3 -4 -14 0.08 0.06
-3 4 14 0.18 0.09
2 -4 -14 0.13 0.06
2 -4 -14 0.06 0.06
-2 4 14 0.18 0.07
1 -4 -14 0.08 0.06
1 -4 -14 0.06 0.05
-1 4 14 0.06 0.06
0 -4 -14 1.64 0.13
0 4 14 1.84 0.13
-1 -4 -14 2.23 0.16
-1 -4 -14 2.45 0.13
1 4 14 2.31 0.15
1 4 14 2.24 0.13
-2 -4 -14 4.97 0.26
-2 -4 -14 4.57 0.23
2 4 14 4.58 0.24
-3 -4 -14 0.36 0.09
-3 -4 -14 0.34 0.06
3 4 14 0.23 0.06
-4 -4 -14 0.03 0.06
-4 -4 -14 0.04 0.07
4 4 14 -0.01 0.06
3 -5 -14 -0.05 0.06
3 -5 -14 -0.03 0.07
-3 5 14 -0.01 0.08
2 -5 -14 0 0.06
2 -5 -14 -0.05 0.05
-2 5 14 -0.05 0.07
1 -5 -14 0.14 0.05
1 -5 -14 0.1 0.06
-1 5 14 0.17 0.07
0 -5 -14 4.85 0.27
0 5 14 5.33 0.27
-1 -5 -14 9.7 0.46
1 5 14 9.73 0.42
1 5 14 10.06 0.46
-2 -5 -14 0.06 0.05
-2 -5 -14 -0.02 0.06
2 5 14 -0.01 0.05
2 5 14 0 0.06
-3 -5 -14 0.3 0.09
-3 -5 -14 0.31 0.07
3 5 14 0.29 0.07
-4 -5 -14 1.12 0.14
-4 -5 -14 1.14 0.12
4 5 14 1.07 0.12
3 -6 -14 0.1 0.08
-3 6 14 0.17 0.09
2 -6 -14 0.21 0.08
2 -6 -14 0.16 0.07
-2 6 14 0.1 0.08
1 -6 -14 0.29 0.08
-1 6 14 0.36 0.09
0 -6 -14 0.6 0.1
0 6 14 0.72 0.1
-1 -6 -14 0.11 0.08
1 6 14 0.11 0.07
-2 -6 -14 0.79 0.11
2 6 14 0.68 0.09
2 6 14 0.72 0.09
-3 -6 -14 0 0.08
-3 -6 -14 0.01 0.05
3 6 14 -0.09 0.05
3 6 14 -0.03 0.05
-4 -6 -14 0.57 0.09
-4 -6 -14 0.65 0.13
2 -7 -14 -0.01 0.06
2 -7 -14 0.04 0.07
-2 7 14 0.19 0.09
1 -7 -14 0.79 0.11
-1 7 14 0.94 0.13
0 -7 -14 3.13 0.22
0 7 14 3.27 0.21
-1 -7 -14 0.09 0.08
1 7 14 0.07 0.07
-2 -7 -14 0.35 0.1
2 7 14 0.42 0.08
2 7 14 0.36 0.07
-3 -7 -14 0.12 0.09
3 7 14 0.19 0.07
3 7 14 0.11 0.07
1 -8 -14 0.54 0.1
-1 8 14 0.65 0.11
0 -8 -14 0.33 0.09
0 8 14 0.23 0.08
-1 -8 -14 0.09 0.08
1 8 14 0.12 0.08
-2 -8 -14 0.03 0.09
2 8 14 0.07 0.06
2 8 14 0 0.07
1 9 14 0.18 0.09
0 -8 15 -0.05 0.07
2 7 -15 -0.04 0.05
-2 -7 15 -0.1 0.07
1 7 -15 0.07 0.05
-1 -7 15 -0.01 0.07
0 7 -15 -0.06 0.04
0 7 -15 0.09 0.05
0 -7 15 -0.04 0.06
-1 7 -15 -0.02 0.05
1 -7 15 0.02 0.06
2 -7 15 -0.11 0.07
-3 -6 15 0.01 0.08
2 6 -15 0.02 0.05
-2 -6 15 0.03 0.06
1 6 -15 0.09 0.05
-1 -6 15 0.03 0.07
0 6 -15 -0.04 0.04
0 6 -15 0.02 0.04
0 -6 15 -0.03 0.06
-1 6 -15 0.18 0.05
1 -6 15 -0.04 0.06
-2 6 -15 0.08 0.05
2 -6 15 0 0.07
3 5 -15 -0.02 0.05
-3 -5 15 0.02 0.07
2 5 -15 0 0.05
-2 -5 15 0.04 0.06
1 5 -15 -0.01 0.04
-1 -5 15 0 0.06
0 5 -15 0.03 0.04
0 -5 15 0.02 0.06
-1 5 -15 0.13 0.04
-1 5 -15 0.26 0.05
1 -5 15 0.16 0.07
-2 5 -15 0.03 0.04
2 -5 15 0.03 0.05
2 -5 15 -0.02 0.05
-3 5 -15 0.03 0.05
3 -5 15 0.03 0.06
3 4 -15 -0.02 0.05
-3 -4 15 0.01 0.07
2 4 -15 0.01 0.05
-2 -4 15 0.02 0.06
1 4 -15 0.06 0.04
-1 -4 15 0.01 0.06
0 4 -15 0.1 0.04
0 -4 15 0.08 0.04
0 -4 15 0.04 0.05
-1 4 -15 0.01 0.04
-1 4 -15 -0.02 0.04
1 -4 15 -0.02 0.04
1 -4 15 0.03 0.05
-2 4 -15 0.12 0.05
2 -4 15 0.14 0.06
2 -4 15 0.02 0.05
-3 4 -15 0 0.05
3 -4 15 0.06 0.06
3 3 -15 0.1 0.06
-3 -3 15 0.03 0.07
2 3 -15 0.16 0.05
-2 -3 15 0.11 0.07
1 3 -15 0.05 0.05
-1 -3 15 -0.03 0.05
-1 -3 15 -0.09 0.04
0 3 -15 0.38 0.05
0 -3 15 0.41 0.06
0 -3 15 0.34 0.06
-1 3 -15 0 0.03
-1 3 -15 -0.01 0.03
1 -3 15 -0.04 0.04
1 -3 15 -0.02 0.04
-2 3 -15 0.27 0.05
-2 3 -15 0.18 0.05
2 -3 15 0.22 0.06
-3 3 -15 0.02 0.05
3 -3 15 0.08 0.06
4 2 -15 -0.02 0.06
-4 -2 15 -0.04 0.08
3 2 -15 0.19 0.06
-3 -2 15 0.26 0.07
-3 -2 15 0.15 0.08
2 2 -15 0.63 0.07
-2 -2 15 0.5 0.08
-2 -2 15 0.49 0.09
1 2 -15 -0.04 0.04
-1 -2 15 0 0.05
-1 -2 15 0 0.05
0 2 -15 0 0.04
0 -2 15 -0.03 0.04
0 -2 15 0.01 0.04
-1 2 -15 0.33 0.05
-1 2 -15 0.25 0.04
1 -2 15 0.18 0.05
1 -2 15 0.18 0.05
-2 2 -15 0.28 0.06
-2 2 -15 0.22 0.05
2 -2 15 0.21 0.06
-3 2 -15 0.46 0.07
3 -2 15 0.38 0.08
-4 2 -15 0.11 0.06
4 -2 15 0.01 0.06
4 1 -15 -0.03 0.06
-4 -1 15 -0.05 0.09
-4 -1 15 -0.06 0.07
3 1 -15 1.21 0.11
-3 -1 15 1.63 0.14
-3 -1 15 1.17 0.13
2 1 -15 3.63 0.19
-2 -1 15 3.38 0.21
-2 -1 15 3.41 0.21
1 1 -15 -0.02 0.04
-1 -1 15 0 0.05
-1 -1 15 0.07 0.05
0 1 -15 -0.07 0.04
0 -1 15 0.02 0.04
0 -1 15 0 0.04
-1 1 -15 0.09 0.04
-1 1 -15 0.07 0.03
1 -1 15 -0.02 0.04
1 -1 15 0.01 0.05
-2 1 -15 0.98 0.1
-2 1 -15 0.77 0.08
2 -1 15 1.06 0.1
-3 1 -15 0.11 0.05
-3 1 -15 0.1 0.06
3 -1 15 0.02 0.06
-4 1 -15 0.03 0.06
4 -1 15 -0.11 0.06
4 0 -15 0.04 0.06
-4 0 15 0.05 0.08
-4 0 15 0.1 0.1
3 0 -15 0.98 0.1
-3 0 15 0.93 0.12
-3 0 15 0.96 0.13
2 0 -15 3.56 0.19
-2 0 15 3.17 0.21
-2 0 15 3.37 0.21
-1 0 15 -0.03 0.04
-1 0 15 -0.02 0.05
0 0 -15 13 0.56
0 0 15 12.93 0.57
0 0 15 12.65 0.59
-1 0 -15 1.62 0.1
-1 0 -15 1.68 0.11
1 0 15 1.56 0.12
-2 0 -15 1.31 0.11
-2 0 -15 1.14 0.1
2 0 15 1.38 0.11
-3 0 -15 0.22 0.06
-3 0 -15 0.25 0.06
3 0 15 0.2 0.07
-4 0 -15 0.01 0.05
4 0 15 -0.01 0.07
4 -1 -15 0.11 0.07
-4 1 15 0.18 0.1
-4 1 15 0.01 0.1
3 -1 -15 0.69 0.08
-3 1 15 0.65 0.11
-3 1 15 0.7 0.11
2 -1 -15 0.16 0.06
-2 1 15 0.35 0.08
-2 1 15 0.29 0.08
1 -1 -15 3.24 0.17
-1 1 15 3.13 0.18
-1 1 15 3.04 0.19
0 -1 -15 16.37 0.69
0 1 15 15.95 0.7
0 1 15 15.8 0.73
-1 -1 -15 0.12 0.05
-1 -1 -15 0.2 0.04
1 1 15 0.09 0.05
-2 -1 -15 5.43 0.25
-2 -1 -15 5.51 0.28
2 1 15 5.87 0.28
-3 -1 -15 0.03 0.04
-3 -1 -15 -0.03 0.05
3 1 15 0.06 0.06
-4 -1 -15 -0.01 0.05
4 1 15 0.1 0.07
4 -2 -15 0.93 0.14
3 -2 -15 1.46 0.11
-3 2 15 1.33 0.15
-3 2 15 1.08 0.14
2 -2 -15 -0.01 0.05
-2 2 15 0.05 0.06
-2 2 15 0.04 0.06
1 -2 -15 0.27 0.06
-1 2 15 0.35 0.07
-1 2 15 0.3 0.08
0 -2 -15 4.17 0.22
0 2 15 4.28 0.23
-1 -2 -15 0.39 0.07
1 2 15 0.35 0.07
-2 -2 -15 0.2 0.05
-2 -2 -15 0.25 0.06
2 2 15 0.17 0.06
-3 -2 -15 0.47 0.09
-3 -2 -15 0.55 0.07
3 2 15 0.57 0.08
-4 -2 -15 0.3 0.07
-4 -2 -15 0.19 0.08
4 2 15 0.36 0.08
3 -3 -15 0.05 0.08
3 -3 -15 0.01 0.06
-3 3 15 0.09 0.09
-3 3 15 0.05 0.08
2 -3 -15 0.12 0.06
2 -3 -15 -0.07 0.05
-2 3 15 0.07 0.07
-2 3 15 0.11 0.07
1 -3 -15 1.63 0.13
-1 3 15 1.14 0.12
-1 3 15 1.27 0.13
0 -3 -15 -0.02 0.06
0 3 15 0.04 0.06
-1 -3 -15 0.68 0.09
1 3 15 0.91 0.1
-2 -3 -15 0.78 0.1
-2 -3 -15 0.57 0.07
2 3 15 0.52 0.07
-3 -3 -15 -0.06 0.06
-3 -3 -15 -0.02 0.05
3 3 15 -0.02 0.05
-4 -3 -15 -0.04 0.05
-4 -3 -15 -0.13 0.06
4 3 15 0.03 0.06
3 -4 -15 0.17 0.09
3 -4 -15 0.09 0.07
-3 4 15 0.31 0.1
2 -4 -15 0.21 0.07
2 -4 -15 0.12 0.06
-2 4 15 0.17 0.08
1 -4 -15 2.29 0.16
1 -4 -15 2 0.15
-1 4 15 1.96 0.16
0 -4 -15 0.22 0.07
0 4 15 0.3 0.07
-1 -4 -15 0.72 0.09
1 4 15 0.8 0.1
-2 -4 -15 -0.01 0.04
-2 -4 -15 0.01 0.06
2 4 15 0.01 0.05
-3 -4 -15 0.61 0.1
-3 -4 -15 0.5 0.08
3 4 15 0.46 0.08
-4 -4 -15 0.39 0.1
-4 -4 -15 0.29 0.08
4 4 15 0.35 0.08
3 -5 -15 0.14 0.09
3 -5 -15 0.08 0.07
-3 5 15 0.04 0.09
2 -5 -15 0.13 0.07
2 -5 -15 0.11 0.07
-2 5 15 0.25 0.09
1 -5 -15 1 0.11
-1 5 15 1.38 0.14
0 -5 -15 1.94 0.16
0 5 15 1.87 0.16
-1 -5 -15 0.79 0.11
1 5 15 0.9 0.1
-2 -5 -15 0.17 0.08
-2 -5 -15 0.11 0.05
2 5 15 0.06 0.06
2 5 15 0.1 0.05
-3 -5 -15 0.05 0.05
-3 -5 -15 0.02 0.07
3 5 15 -0.04 0.05
-4 -5 -15 0.64 0.12
4 5 15 0.63 0.1
2 -6 -15 0.02 0.07
2 -6 -15 0.13 0.07
-2 6 15 0.2 0.09
1 -6 -15 0.44 0.09
-1 6 15 0.37 0.09
0 -6 -15 0.1 0.08
0 6 15 0.24 0.08
-1 -6 -15 0.36 0.09
1 6 15 0.23 0.08
2 6 15 0.09 0.06
2 6 15 0.09 0.07
-3 -6 -15 -0.06 0.07
-3 -6 -15 0.05 0.05
3 6 15 -0.01 0.06
3 6 15 -0.04 0.06
1 -7 -15 0.88 0.12
-1 7 15 0.69 0.11
0 -7 -15 2.86 0.2
0 7 15 2.76 0.2
-1 -7 -15 -0.06 0.08
1 7 15 -0.2 0.06
-2 -7 -15 0.08 0.08
2 7 15 0.13 0.07
2 7 15 0.1 0.06
-3 -7 -15 0.54 0.11
3 7 15 0.45 0.09
0 -8 -15 -0.01 0.08
0 8 15 0.1 0.08
-1 -8 -15 0.03 0.08
1 8 15 0.07 0.08
2 8 15 0.01 0.07
-1 -7 16 0.06 0.08
0 7 -16 0.02 0.05
0 -7 16 -0.03 0.07
1 -7 16 -0.05 0.07
2 6 -16 0.2 0.06
-2 -6 16 0.2 0.09
1 6 -16 0.17 0.06
-1 -6 16 0.18 0.08
0 6 -16 0 0.05
0 -6 16 0.04 0.07
-1 6 -16 0.05 0.05
1 -6 16 -0.04 0.05
2 -6 16 -0.11 0.06
2 5 -16 0.16 0.06
-2 -5 16 0.12 0.08
1 5 -16 0.17 0.05
-1 -5 16 0.15 0.07
0 5 -16 0.02 0.04
0 -5 16 -0.05 0.06
-1 5 -16 0.12 0.05
-1 5 -16 0.09 0.04
1 -5 16 0.03 0.06
-2 5 -16 -0.05 0.04
2 -5 16 -0.11 0.05
3 4 -16 -0.04 0.05
-3 -4 16 -0.05 0.07
2 4 -16 -0.05 0.05
-2 -4 16 -0.01 0.06
1 4 -16 0.12 0.05
-1 -4 16 0.06 0.06
0 4 -16 0.55 0.06
0 -4 16 0.39 0.08
-1 4 -16 -0.02 0.04
-1 4 -16 -0.02 0.04
1 -4 16 0 0.05
1 -4 16 0.03 0.05
-2 4 -16 0.03 0.05
2 -4 16 -0.07 0.05
-3 4 -16 0 0.05
3 -4 16 0.06 0.07
3 3 -16 -0.04 0.05
-3 -3 16 -0.02 0.07
2 3 -16 0.01 0.05
-2 -3 16 -0.05 0.06
1 3 -16 0.13 0.05
-1 -3 16 0.1 0.06
-1 -3 16 0.11 0.06
0 3 -16 0.01 0.04
0 -3 16 0.03 0.04
0 -3 16 0 0.05
-1 3 -16 0.19 0.05
-1 3 -16 0.14 0.04
1 -3 16 0.1 0.05
1 -3 16 0.05 0.05
-2 3 -16 0.26 0.06
-2 3 -16 0.17 0.05
2 -3 16 0.18 0.06
-3 3 -16 0.02 0.05
3 -3 16 0.03 0.06
3 2 -16 0.07 0.06
-3 -2 16 0.01 0.07
2 2 -16 0.07 0.05
-2 -2 16 0.05 0.06
-2 -2 16 0.03 0.06
1 2 -16 0.29 0.06
-1 -2 16 0.31 0.07
-1 -2 16 0.36 0.07
0 2 -16 0.22 0.05
0 -2 16 0.21 0.06
0 -2 16 0.07 0.05
-1 2 -16 0.08 0.05
-1 2 -16 0.08 0.04
1 -2 16 0.12 0.05
1 -2 16 0.08 0.05
-2 2 -16 0.08 0.05
-2 2 -16 0.13 0.05
2 -2 16 0.08 0.06
-3 2 -16 0.17 0.06
3 -2 16 0.2 0.07
3 1 -16 0.09 0.06
-3 -1 16 0.14 0.08
-3 -1 16 0.12 0.07
2 1 -16 0.04 0.05
-2 -1 16 0.02 0.06
-2 -1 16 0.01 0.06
1 1 -16 0.82 0.09
-1 -1 16 0.84 0.1
-1 -1 16 0.77 0.09
0 1 -16 0.27 0.05
0 -1 16 0.19 0.06
0 -1 16 0.07 0.05
-1 1 -16 0.61 0.07
1 -1 16 0.74 0.08
-2 1 -16 0.01 0.04
-2 1 -16 0.03 0.05
2 -1 16 0 0.05
-3 1 -16 0.05 0.05
3 -1 16 0.03 0.05
-4 1 -16 0.45 0.08
4 -1 16 0.29 0.09
3 0 -16 0.09 0.06
-3 0 16 0 0.07
-3 0 16 -0.01 0.07
2 0 -16 0.04 0.05
-2 0 16 0.05 0.06
-2 0 16 0 0.07
1 0 -16 0.31 0.06
-1 0 16 0.36 0.08
-1 0 16 0.39 0.07
0 0 -16 0.86 0.09
0 0 16 0.65 0.08
0 0 16 0.51 0.07
-1 0 -16 0.5 0.07
1 0 16 0.47 0.07
-2 0 -16 0.16 0.05
-2 0 -16 0.26 0.06
2 0 16 0.11 0.06
-3 0 -16 -0.04 0.05
-3 0 -16 0.04 0.05
3 0 16 0.07 0.06
-4 0 -16 0.13 0.06
4 0 16 0.04 0.07
3 -1 -16 0.58 0.08
-3 1 16 0.71 0.12
-3 1 16 0.52 0.11
2 -1 -16 0 0.05
-2 1 16 0.03 0.06
-2 1 16 -0.05 0.07
1 -1 -16 0.06 0.06
-1 1 16 0.06 0.07
-1 1 16 0 0.05
0 -1 -16 0.23 0.06
0 1 16 0.21 0.07
-1 -1 -16 0.76 0.09
1 1 16 0.71 0.09
-2 -1 -16 0.01 0.04
-2 -1 -16 -0.03 0.05
2 1 16 0.03 0.05
-3 -1 -16 0.13 0.05
-3 -1 -16 0.15 0.07
3 1 16 0.1 0.06
-4 -1 -16 -0.07 0.05
4 1 16 -0.02 0.07
3 -2 -16 1.21 0.12
-3 2 16 1.32 0.15
-3 2 16 1.39 0.16
2 -2 -16 0.25 0.07
-2 2 16 0.32 0.09
-2 2 16 0.4 0.08
1 -2 -16 5.57 0.27
-1 2 16 5.14 0.29
-1 2 16 5.26 0.29
0 -2 -16 1.49 0.12
0 2 16 1.47 0.13
-1 -2 -16 1.4 0.13
1 2 16 1.43 0.12
-2 -2 -16 0.29 0.07
-2 -2 -16 0.33 0.05
2 2 16 0.21 0.06
-3 -2 -16 -0.06 0.06
-3 -2 -16 -0.01 0.05
3 2 16 0.06 0.06
-4 -2 -16 0.12 0.06
-4 -2 -16 0.19 0.08
4 2 16 0.2 0.08
3 -3 -16 -0.01 0.06
3 -3 -16 -0.08 0.07
-3 3 16 0.13 0.09
-3 3 16 0.15 0.09
2 -3 -16 0.79 0.11
2 -3 -16 0.82 0.1
-2 3 16 1.09 0.13
-2 3 16 0.96 0.13
1 -3 -16 7.97 0.37
-1 3 16 8.03 0.39
-1 3 16 7.46 0.39
0 -3 -16 0 0.06
0 3 16 -0.03 0.06
-1 -3 -16 2.88 0.19
1 3 16 3 0.18
-2 -3 -16 0.01 0.04
-2 -3 -16 0.01 0.06
2 3 16 -0.04 0.05
-3 -3 -16 -0.05 0.06
-3 -3 -16 0.02 0.05
3 3 16 -0.04 0.06
-4 -3 -16 0.1 0.08
-4 -3 -16 0.06 0.06
4 3 16 0.13 0.07
3 -4 -16 0.13 0.09
3 -4 -16 0.08 0.07
-3 4 16 0.37 0.11
2 -4 -16 0.15 0.07
2 -4 -16 0.27 0.08
-2 4 16 0.11 0.08
1 -4 -16 2.26 0.18
-1 4 16 2.45 0.19
0 -4 -16 0.16 0.07
0 4 16 0.04 0.07
-1 -4 -16 -0.06 0.06
1 4 16 -0.03 0.06
-2 -4 -16 0.51 0.1
-2 -4 -16 0.51 0.07
2 4 16 0.56 0.09
-3 -4 -16 0.22 0.06
-3 -4 -16 0.26 0.09
3 4 16 0.23 0.07
2 -5 -16 0.24 0.08
2 -5 -16 0.31 0.08
-2 5 16 0.3 0.09
1 -5 -16 0.27 0.08
-1 5 16 0.22 0.08
0 -5 -16 1.07 0.12
0 5 16 1.4 0.14
-1 -5 -16 0.4 0.09
1 5 16 0.38 0.09
-2 -5 -16 -0.06 0.07
2 5 16 -0.08 0.06
-3 -5 -16 -0.01 0.08
-3 -5 -16 0.04 0.05
3 5 16 0 0.06
-2 6 16 0.39 0.11
1 -6 -16 -0.1 0.07
-1 6 16 0.05 0.08
0 -6 -16 -0.06 0.07
0 6 16 -0.04 0.07
-1 -6 -16 0.53 0.1
1 6 16 0.53 0.1
-2 -6 -16 0.53 0.11
2 6 16 0.53 0.09
-3 -6 -16 0.26 0.07
-3 -6 -16 0.29 0.1
3 6 16 0.16 0.08
3 6 16 0.26 0.08
1 -7 -16 0.75 0.12
-1 7 16 0.85 0.13
0 -7 -16 1.26 0.14
0 7 16 1.39 0.16
-1 -7 -16 -0.05 0.08
1 7 16 0.05 0.08
-2 -7 -16 -0.11 0.08
2 7 16 -0.02 0.07
1 6 -17 0.06 0.05
-1 -6 17 -0.02 0.07
0 6 -17 -0.04 0.05
0 -6 17 0.01 0.08
1 -6 17 -0.07 0.07
2 5 -17 0.17 0.06
-2 -5 17 0.09 0.08
1 5 -17 -0.01 0.05
-1 -5 17 -0.03 0.07
0 5 -17 0.19 0.05
0 -5 17 0.07 0.07
1 -5 17 0.08 0.07
2 4 -17 0.41 0.07
-2 -4 17 0.41 0.09
1 4 -17 0.16 0.06
-1 -4 17 0.14 0.07
0 4 -17 0.01 0.05
0 -4 17 -0.02 0.06
-1 4 -17 0.05 0.05
1 -4 17 -0.01 0.05
1 -4 17 -0.03 0.06
-2 4 -17 0.02 0.05
2 -4 17 -0.03 0.06
-3 -3 17 0.27 0.08
2 3 -17 0.08 0.06
-2 -3 17 0.09 0.07
1 3 -17 0 0.05
-1 -3 17 0.07 0.06
0 3 -17 -0.05 0.04
0 -3 17 -0.05 0.04
0 -3 17 0.05 0.05
-1 3 -17 0.04 0.05
1 -3 17 0.15 0.05
-2 3 -17 -0.01 0.05
2 -3 17 -0.05 0.05
-3 3 -17 -0.03 0.06
3 -3 17 0.09 0.07
3 2 -17 -0.02 0.06
-3 -2 17 0.11 0.08
2 2 -17 0.09 0.06
-2 -2 17 0.07 0.06
-2 -2 17 0.11 0.06
1 2 -17 0.13 0.05
-1 -2 17 0.13 0.06
-1 -2 17 0.16 0.06
0 2 -17 0.26 0.06
0 -2 17 0.29 0.06
0 -2 17 0.26 0.06
-1 2 -17 0.92 0.1
1 -2 17 0.88 0.1
-2 2 -17 0.32 0.06
-2 2 -17 0.3 0.06
2 -2 17 0.27 0.07
-3 2 -17 0.01 0.05
3 -2 17 -0.06 0.06
3 1 -17 -0.01 0.05
-3 -1 17 -0.13 0.07
-3 -1 17 0.1 0.07
2 1 -17 0.09 0.05
-2 -1 17 -0.02 0.06
-2 -1 17 -0.06 0.05
1 1 -17 -0.04 0.05
-1 -1 17 0.01 0.05
-1 -1 17 0 0.06
0 1 -17 0.79 0.09
0 -1 17 0.75 0.09
0 -1 17 0.76 0.09
-1 1 -17 0.1 0.05
1 -1 17 0.08 0.06
-2 1 -17 0.05 0.04
-2 1 -17 0.01 0.05
2 -1 17 0 0.06
-3 1 -17 0.11 0.06
3 -1 17 0.09 0.07
3 0 -17 0.13 0.06
-3 0 17 0.05 0.08
-3 0 17 0.02 0.09
2 0 -17 0.06 0.05
-2 0 17 0.08 0.06
-2 0 17 0.13 0.08
1 0 -17 0.57 0.07
-1 0 17 0.45 0.08
-1 0 17 0.51 0.09
0 0 -17 0.03 0.05
0 0 17 0.06 0.06
-1 0 -17 0.02 0.05
1 0 17 -0.03 0.05
-2 0 -17 0.43 0.07
-2 0 -17 0.31 0.05
2 0 17 0.28 0.07
-3 0 -17 0 0.05
-3 0 -17 -0.06 0.06
3 0 17 -0.04 0.06
3 -1 -17 0.13 0.06
-3 1 17 0.17 0.09
-3 1 17 0.15 0.09
2 -1 -17 0.09 0.06
-2 1 17 0.06 0.08
-2 1 17 0.01 0.07
1 -1 -17 0.06 0.05
-1 1 17 0.09 0.07
-1 1 17 0.03 0.06
0 -1 -17 0.35 0.07
0 1 17 0.38 0.07
-1 -1 -17 -0.01 0.05
1 1 17 0.04 0.05
-2 -1 -17 0.16 0.07
-2 -1 -17 0.16 0.05
2 1 17 0.13 0.06
-3 -1 -17 0.39 0.08
-3 -1 -17 0.38 0.07
3 1 17 0.3 0.08
3 -2 -17 0.29 0.08
-3 2 17 0.32 0.11
-3 2 17 0.2 0.1
2 -2 -17 0 0.06
-2 2 17 0.06 0.07
-2 2 17 0.05 0.07
1 -2 -17 0.54 0.08
-1 2 17 0.55 0.09
-1 2 17 0.58 0.1
0 -2 -17 0.14 0.06
0 2 17 0.01 0.06
-1 -2 -17 0.08 0.06
1 2 17 0.08 0.05
-2 -2 -17 0.01 0.06
2 2 17 0.05 0.06
-3 -2 -17 0.17 0.08
-3 -2 -17 0.2 0.06
3 2 17 0.2 0.07
3 -3 -17 -0.04 0.07
2 -3 -17 -0.11 0.07
2 -3 -17 -0.07 0.07
-2 3 17 0.04 0.08
-2 3 17 0.12 0.08
1 -3 -17 0.79 0.1
-1 3 17 0.74 0.12
0 -3 -17 0.13 0.06
0 3 17 -0.06 0.06
-1 -3 -17 0.13 0.07
1 3 17 0.26 0.07
-2 -3 -17 -0.01 0.06
2 3 17 0 0.06
-3 -3 -17 0.01 0.07
-3 -3 -17 0 0.05
3 3 17 -0.03 0.06
2 -4 -17 0.58 0.1
2 -4 -17 0.62 0.1
-2 4 17 0.64 0.11
1 -4 -17 0.09 0.07
-1 4 17 0 0.07
0 -4 -17 0.16 0.07
0 4 17 0.08 0.07
-1 -4 -17 -0.08 0.06
1 4 17 -0.15 0.06
-2 -4 -17 -0.04 0.07
2 4 17 0.21 0.07
-3 -4 -17 0.1 0.08
-3 -4 -17 0.22 0.06
3 4 17 0.04 0.06
-2 5 17 1.1 0.14
1 -5 -17 0.05 0.07
-1 5 17 -0.14 0.07
0 -5 -17 0.25 0.09
0 5 17 0.4 0.09
-1 -5 -17 0.02 0.07
1 5 17 0.06 0.07
-2 -5 -17 0.06 0.08
2 5 17 -0.06 0.07
3 5 17 -0.02 0.07
1 -6 -17 0.04 0.08
-1 6 17 0.11 0.08
0 -6 -17 0.02 0.08
0 6 17 -0.04 0.08
-1 -6 -17 -0.01 0.08
1 6 17 0.1 0.08
-2 -6 -17 0.1 0.09
2 6 17 0.06 0.08
-1 -5 18 0.06 0.07
0 5 -18 0.09 0.06
0 -5 18 0.08 0.07
1 -5 18 0.01 0.07
-2 -4 18 0.15 0.08
1 4 -18 0.05 0.06
-1 -4 18 0.01 0.07
0 4 -18 0.06 0.05
0 -4 18 0.02 0.06
-1 4 -18 0.07 0.05
2 3 -18 0 0.06
-2 -3 18 0.04 0.07
1 3 -18 0.19 0.06
-1 -3 18 0.08 0.07
0 3 -18 0.09 0.05
0 -3 18 0.12 0.06
0 -3 18 0.1 0.06
-1 3 -18 0.49 0.07
1 -3 18 0.34 0.07
-2 3 -18 -0.06 0.05
2 -3 18 -0.04 0.06
2 2 -18 0.06 0.06
-2 -2 18 0.01 0.06
1 2 -18 0.01 0.05
-1 -2 18 0.01 0.06
-1 -2 18 0.04 0.05
0 2 -18 0.45 0.07
0 -2 18 0.3 0.07
0 -2 18 0.38 0.07
-1 2 -18 -0.02 0.05
1 -2 18 -0.01 0.05
-2 2 -18 0.13 0.06
2 -2 18 0.08 0.06
2 1 -18 0.03 0.06
-2 -1 18 0.02 0.06
-2 -1 18 0.09 0.08
1 1 -18 0.01 0.05
-1 -1 18 0.08 0.07
-1 -1 18 0.04 0.05
0 1 -18 0.25 0.06
0 -1 18 0.17 0.06
-1 1 -18 -0.06 0.05
1 -1 18 0.01 0.06
-2 1 -18 0.06 0.06
2 -1 18 0.08 0.06
-3 1 -18 0.01 0.06
3 -1 18 0.06 0.06
2 0 -18 0.18 0.06
-2 0 18 0.21 0.07
-2 0 18 0.17 0.08
1 0 -18 0.27 0.07
-1 0 18 0.25 0.07
-1 0 18 0.28 0.08
0 0 -18 0.88 0.1
0 0 18 0.81 0.1
-1 0 -18 0.39 0.07
1 0 18 0.44 0.07
-2 0 -18 0.22 0.07
2 0 18 0.13 0.06
-3 0 -18 0.7 0.1
-3 0 -18 0.72 0.09
3 0 18 0.66 0.1
2 -1 -18 0 0.06
-2 1 18 -0.04 0.07
-2 1 18 -0.01 0.08
1 -1 -18 0.04 0.06
-1 1 18 0.06 0.07
0 -1 -18 0.18 0.07
0 1 18 0.15 0.07
-1 -1 -18 0.12 0.07
1 1 18 0.14 0.06
-2 -1 -18 0.53 0.09
2 1 18 0.49 0.08
-3 -1 -18 0.88 0.11
-3 -1 -18 0.76 0.09
3 1 18 0.73 0.11
2 -2 -18 -0.07 0.06
-2 2 18 -0.05 0.07
-2 2 18 -0.09 0.08
1 -2 -18 0 0.06
-1 2 18 0.01 0.07
0 -2 -18 -0.09 0.05
0 2 18 0.01 0.07
-1 -2 -18 0.83 0.1
1 2 18 0.56 0.09
-2 -2 -18 0.08 0.07
2 2 18 0.06 0.07
-3 -2 -18 0.01 0.07
-3 -2 -18 0.08 0.05
3 2 18 0.02 0.08
2 -3 -18 -0.16 0.07
2 -3 -18 -0.09 0.06
-2 3 18 -0.01 0.07
-2 3 18 0.1 0.08
1 -3 -18 0.07 0.07
-1 3 18 0.13 0.09
0 -3 -18 0.19 0.07
0 3 18 0.06 0.07
-1 -3 -18 0.04 0.06
1 3 18 0.01 0.07
-2 -3 -18 0.49 0.1
2 3 18 0.28 0.07
3 3 18 -0.06 0.06
1 -4 -18 0.02 0.07
-1 4 18 -0.12 0.07
0 -4 -18 0.02 0.07
0 4 18 0.11 0.08
-1 -4 -18 -0.07 0.06
1 4 18 -0.02 0.07
-2 -4 -18 0.05 0.09
2 4 18 0.05 0.06
1 -5 -18 -0.05 0.07
-1 5 18 0 0.08
0 -5 -18 0.5 0.1
0 5 18 0.48 0.1
-1 -5 -18 0 0.07
1 5 18 -0.05 0.07
-2 -5 -18 -0.12 0.08
2 5 18 -0.04 0.07
0 -4 19 0.21 0.08
1 3 -19 0.16 0.06
-1 -3 19 0.21 0.08
0 3 -19 0.04 0.06
-1 3 -19 0 0.06
1 -3 19 0.01 0.06
1 2 -19 0.02 0.06
-1 -2 19 0.01 0.06
-1 -2 19 -0.01 0.07
0 2 -19 0.19 0.06
0 -2 19 0.22 0.07
-1 2 -19 0.14 0.07
1 -2 19 0.01 0.06
2 -2 19 -0.06 0.06
-2 -1 19 0.25 0.08
1 1 -19 0.37 0.07
-1 -1 19 0.28 0.07
-1 -1 19 0.38 0.09
0 1 -19 0.38 0.07
0 -1 19 0.27 0.08
-1 1 -19 0.02 0.06
1 -1 19 0 0.06
-2 1 -19 -0.05 0.06
2 -1 19 0 0.07
-2 0 19 0.11 0.08
-2 0 19 0.02 0.07
1 0 -19 0.02 0.06
-1 0 19 0.11 0.08
0 0 -19 0.09 0.06
0 0 19 0.11 0.07
-1 0 -19 -0.04 0.06
1 0 19 0.03 0.06
-2 0 -19 0.15 0.07
2 0 19 0.1 0.07
1 -1 -19 -0.03 0.06
-1 1 19 0.06 0.07
0 -1 -19 -0.05 0.06
0 1 19 -0.07 0.07
-1 -1 -19 0.02 0.06
1 1 19 -0.01 0.06
-2 -1 -19 0.03 0.07
2 1 19 -0.03 0.07
1 -2 -19 0.1 0.07
-1 2 19 0.16 0.09
0 -2 -19 0.16 0.07
0 2 19 0.18 0.08
-1 -2 -19 0.14 0.07
1 2 19 0.14 0.08
-2 -2 -19 0.37 0.09
2 2 19 0.22 0.08
1 -3 -19 -0.04 0.07
-1 3 19 0.02 0.07
0 -3 -19 0.01 0.07
0 3 19 -0.03 0.07
-1 -3 -19 0.13 0.08
1 3 19 0.22 0.09
-2 -3 -19 1.02 0.13
2 3 19 0.77 0.11
0 -4 -19 0.12 0.08
0 4 19 0.19 0.09
-1 -4 -19 0.01 0.08
1 4 19 0.07 0.08
0 1 -20 0.06 0.06
0 -1 20 0.02 0.07
1 -1 20 0.06 0.07
0 0 -20 0.05 0.07
0 0 20 0.16 0.08
-1 0 -20 0 0.07
1 0 20 0.07 0.07
0 -1 -20 -0.05 0.07
0 1 20 0.08 0.07
-1 -1 -20 -0.12 0.06
1 1 20 0.01 0.06
0 -2 -20 -0.07 0.07
0 2 20 -0.1 0.07
1 2 20 0.1 0.08
