#------------------------------------------------------------------------------
#$Date: 2017-09-12 06:56:01 +0300 (Tue, 12 Sep 2017) $
#$Revision: 200712 $
#$URL: file:///home/coder/svn-repositories/cod/cif/4/03/25/4032563.cif $
#------------------------------------------------------------------------------
#
# This file is available in the Crystallography Open Database (COD),
# http://www.crystallography.net/
#
# All data on this site have been placed in the public domain by the
# contributors.
#
data_4032563
loop_
_publ_author_name
'Saruengkhanphasit, Rungroj'
'Collier, Darren'
'Coldham, Iain'
_publ_section_title
;
 Synthesis of Spirocyclic Amines by Using Dipolar Cycloadditions of
 Nitrones.
;
_journal_issue                   12
_journal_name_full               'The Journal of organic chemistry'
_journal_page_first              6489
_journal_page_last               6496
_journal_paper_doi               10.1021/acs.joc.7b00959
_journal_volume                  82
_journal_year                    2017
_chemical_formula_moiety         'C12 H19 N O2'
_chemical_formula_sum            'C12 H19 N O2'
_chemical_formula_weight         209.28
_space_group_crystal_system      triclinic
_space_group_IT_number           2
_space_group_name_Hall           '-P 1'
_space_group_name_H-M_alt        'P -1'
_symmetry_space_group_name_Hall  '-P 1'
_symmetry_space_group_name_H-M   'P -1'
_atom_sites_solution_hydrogens   geom
_audit_creation_method           SHELXL-2014/7
_cell_angle_alpha                89.053(6)
_cell_angle_beta                 73.759(5)
_cell_angle_gamma                73.554(5)
_cell_formula_units_Z            2
_cell_length_a                   6.3659(5)
_cell_length_b                   8.7200(7)
_cell_length_c                   10.5934(8)
_cell_measurement_reflns_used    1510
_cell_measurement_temperature    100(2)
_cell_measurement_theta_max      27.33
_cell_measurement_theta_min      2.44
_cell_volume                     540.23(8)
_computing_cell_refinement       'Bruker SAINT'
_computing_data_collection       'Bruker APEX2'
_computing_data_reduction        'Bruker SAINT'
_computing_molecular_graphics    'Bruker SHELXTL'
_computing_publication_material  'Bruker SHELXTL'
_computing_structure_refinement  'SHELXL-2014/7 (Sheldrick, 2014)'
_computing_structure_solution    'SHELXS-97 (Sheldrick 2008)'
_diffrn_ambient_temperature      100(2)
_diffrn_measured_fraction_theta_full 0.972
_diffrn_measured_fraction_theta_max 0.957
_diffrn_measurement_device_type  'Bruker APEX-II CCD'
_diffrn_measurement_method       '\f and \w scans'
_diffrn_radiation_type           MoK\a
_diffrn_radiation_wavelength     0.71073
_diffrn_reflns_av_R_equivalents  0.0357
_diffrn_reflns_av_unetI/netI     0.0460
_diffrn_reflns_Laue_measured_fraction_full 0.972
_diffrn_reflns_Laue_measured_fraction_max 0.957
_diffrn_reflns_limit_h_max       8
_diffrn_reflns_limit_h_min       -8
_diffrn_reflns_limit_k_max       11
_diffrn_reflns_limit_k_min       -11
_diffrn_reflns_limit_l_max       13
_diffrn_reflns_limit_l_min       -13
_diffrn_reflns_number            6630
_diffrn_reflns_point_group_measured_fraction_full 0.972
_diffrn_reflns_point_group_measured_fraction_max 0.957
_diffrn_reflns_theta_full        25.242
_diffrn_reflns_theta_max         27.579
_diffrn_reflns_theta_min         3.053
_exptl_absorpt_coefficient_mu    0.087
_exptl_absorpt_correction_T_max  0.7455
_exptl_absorpt_correction_T_min  0.6767
_exptl_absorpt_correction_type   multi-scan
_exptl_absorpt_process_details   sadabs
_exptl_crystal_colour            colourless
_exptl_crystal_density_diffrn    1.287
_exptl_crystal_description       plate
_exptl_crystal_F_000             228
_exptl_crystal_size_max          0.280
_exptl_crystal_size_mid          0.180
_exptl_crystal_size_min          0.070
_refine_diff_density_max         0.572
_refine_diff_density_min         -0.267
_refine_diff_density_rms         0.063
_refine_ls_extinction_method     none
_refine_ls_goodness_of_fit_ref   1.020
_refine_ls_hydrogen_treatment    constr
_refine_ls_matrix_type           full
_refine_ls_number_parameters     137
_refine_ls_number_reflns         2386
_refine_ls_number_restraints     0
_refine_ls_restrained_S_all      1.020
_refine_ls_R_factor_all          0.0836
_refine_ls_R_factor_gt           0.0569
_refine_ls_shift/su_max          0.000
_refine_ls_shift/su_mean         0.000
_refine_ls_structure_factor_coef Fsqd
_refine_ls_weighting_details
'w=1/[\s^2^(Fo^2^)+(0.0880P)^2^+0.2458P] where P=(Fo^2^+2Fc^2^)/3'
_refine_ls_weighting_scheme      calc
_refine_ls_wR_factor_gt          0.1469
_refine_ls_wR_factor_ref         0.1632
_reflns_Friedel_coverage         0.000
_reflns_number_gt                1741
_reflns_number_total             2386
_reflns_threshold_expression     'I > 2\s(I)'
_cod_data_source_file            jo7b00959_si_003.cif
_cod_data_source_block           TriCzhu_0m
_cod_depositor_comments          'Adding full bibliography for 4032563.cif.'
_cod_database_code               4032563
_shelx_shelxl_version_number     2014/7
_shelx_space_group_comment
; 
The symmetry employed for this shelxl refinement is uniquely defined 
by the following loop, which should always be used as a source of 
symmetry information in preference to the above space-group names. 
They are only intended as comments. 
;
_shelx_estimated_absorpt_t_min   0.976
_shelx_estimated_absorpt_t_max   0.994
_shelx_res_file
; 
  
    TriCzhu_0m.res created by SHELXL-2014/7 
  
TITL TriCzhu_0m.res in P-1 
CELL  0.71073   6.3659   8.7200  10.5934   89.053   73.759   73.554 
ZERR    2.000   0.0005   0.0007   0.0008    0.006    0.005    0.005 
LATT 1 
SFAC C  H  N  O 
UNIT 24  38  2  4 
L.S. 10 
BOND $H 
EQIV $1 -x+2, -y, -z+1 
HTAB O2 O1_$1 
HTAB 2.0 
FMAP 2 
PLAN 10 
OMIT 0 0 1 
ACTA 
CONF 
WPDB -1 
SIZE 0.07 0.18 0.28 
TEMP -173.150 
WGHT    0.088000    0.245800 
FVAR       0.33376 
O1    4    0.961793    0.236966    0.503872    11.00000    0.01695    0.02137 = 
         0.03049   -0.00113    0.00357   -0.00526 
O2    4    0.752822   -0.000206    0.680735    11.00000    0.02382    0.02074 = 
         0.02810   -0.00099   -0.00295   -0.00245 
AFIX 147 
H2    2    0.860622   -0.071190    0.630199    11.00000   -1.50000 
AFIX   0 
N1    3    0.641671    0.374791    0.665449    11.00000    0.01357    0.01553 = 
         0.02157   -0.00199   -0.00336   -0.00618 
C1    1    0.771823    0.246831    0.582744    11.00000    0.01775    0.01915 = 
         0.02209    0.00004   -0.00376   -0.00367 
C2    1    0.648690    0.116521    0.604944    11.00000    0.02003    0.02233 = 
         0.02109   -0.00099   -0.00362   -0.00576 
AFIX  13 
H2A   2    0.655449    0.066742    0.518987    11.00000   -1.20000 
AFIX   0 
C3    1    0.401578    0.211607    0.679127    11.00000    0.01864    0.02179 = 
         0.02248   -0.00244   -0.00484   -0.00743 
AFIX  13 
H3    2    0.327016    0.259185    0.610361    11.00000   -1.20000 
AFIX   0 
C4    1    0.245800    0.119265    0.764684    11.00000    0.02095    0.02322 = 
         0.03335   -0.00314   -0.00586   -0.00911 
AFIX  23 
H4A   2    0.084351    0.182078    0.777601    11.00000   -1.20000 
H4B   2    0.271487    0.016188    0.716534    11.00000   -1.20000 
AFIX   0 
C5    1    0.284465    0.085281    0.898822    11.00000    0.03258    0.02114 = 
         0.02843    0.00013   -0.00127   -0.00996 
AFIX  23 
H5A   2    0.436463    0.007097    0.887632    11.00000   -1.20000 
H5B   2    0.167088    0.037774    0.952097    11.00000   -1.20000 
AFIX   0 
C6    1    0.271418    0.239338    0.970340    11.00000    0.03132    0.02506 = 
         0.02277    0.00145   -0.00206   -0.00714 
AFIX  23 
H6A   2    0.293339    0.216192    1.058352    11.00000   -1.20000 
H6B   2    0.118683    0.317046    0.982784    11.00000   -1.20000 
AFIX   0 
C7    1    0.456045    0.311603    0.890326    11.00000    0.02436    0.02063 = 
         0.02439   -0.00193   -0.00732   -0.00662 
AFIX  23 
H7A   2    0.608354    0.234261    0.880107    11.00000   -1.20000 
H7B   2    0.448638    0.409829    0.939021    11.00000   -1.20000 
AFIX   0 
C8    1    0.428145    0.353358    0.753539    11.00000    0.01308    0.01637 = 
         0.02001   -0.00102   -0.00210   -0.00597 
C9    1    0.233309    0.509742    0.759978    11.00000    0.01645    0.02322 = 
         0.02642   -0.00070   -0.00442   -0.00544 
AFIX  23 
H9A   2    0.197480    0.518458    0.674552    11.00000   -1.20000 
H9B   2    0.094446    0.503849    0.828850    11.00000   -1.20000 
AFIX   0 
C10   1    0.293990    0.660138    0.790329    11.00000    0.02261    0.01540 = 
         0.03104   -0.00202   -0.00234   -0.00403 
AFIX  23 
H10A  2    0.167810    0.756677    0.788387    11.00000   -1.20000 
H10B  2    0.314647    0.657903    0.879629    11.00000   -1.20000 
AFIX   0 
C11   1    0.514031    0.667716    0.688595    11.00000    0.02649    0.01651 = 
         0.03377   -0.00098   -0.00249   -0.00967 
AFIX  23 
H11A  2    0.487829    0.680601    0.600705    11.00000   -1.20000 
H11B  2    0.556303    0.762264    0.711544    11.00000   -1.20000 
AFIX   0 
C12   1    0.708584    0.517681    0.682982    11.00000    0.01996    0.02180 = 
         0.03342   -0.00241   -0.00276   -0.00937 
AFIX  23 
H12A  2    0.842750    0.519940    0.608877    11.00000   -1.20000 
H12B  2    0.752990    0.514434    0.765618    11.00000   -1.20000 
AFIX   0 
HKLF 4 
  
REM  TriCzhu_0m.res in P-1 
REM R1 =  0.0569 for    1741 Fo > 4sig(Fo)  and  0.0836 for all    2386 data 
REM    137 parameters refined using      0 restraints 
  
END 
  
WGHT      0.0880      0.2457 
  
REM Instructions for potential hydrogen bonds 
HTAB O2 O1_$1 
  
REM Highest difference peak  0.572,  deepest hole -0.267,  1-sigma level  0.063 
Q1    1   0.6761  0.0053  0.5847  11.00000  0.05    0.57 
Q2    1   0.0755  0.2652  0.7939  11.00000  0.05    0.40 
Q3    1   0.3820  0.4803  0.8834  11.00000  0.05    0.37 
Q4    1   0.7645  0.1003  0.6632  11.00000  0.05    0.37 
Q5    1   0.2592  0.3436  0.7002  11.00000  0.05    0.36 
Q6    1   0.3640  0.6361  0.8517  11.00000  0.05    0.34 
Q7    1   0.5734  0.1717  0.7985  11.00000  0.05    0.31 
Q8    1   0.5920  0.6374  0.7431  11.00000  0.05    0.31 
Q9    1   0.6255  0.5328  0.6154  11.00000  0.05    0.29 
Q10   1   0.4274  0.0652  0.8734  11.00000  0.05    0.25 
;
_shelx_res_checksum              74031
_shelx_hkl_file
; 
  -1   0   0  225.59    3.51 
  -1   0   0  225.51    3.49 
  -1   0   0  228.34    3.50 
   1   0   0  229.07    3.50 
   1   0   0  225.16    3.50 
  -2   0   0  141.31    2.37 
  -2   0   0  137.72    2.40 
  -2   0   0  138.55    2.35 
   2   0   0  147.65    2.56 
   2   0   0  139.48    2.38 
   2   0   0  139.32    2.38 
  -3   0   0   30.63    0.82 
  -3   0   0   31.56    0.86 
  -3   0   0   30.68    0.80 
   3   0   0   30.48    0.82 
   3   0   0   29.89    0.82 
  -4   0   0   42.14    1.13 
  -4   0   0   42.00    1.19 
  -4   0   0   44.05    1.11 
  -4   0   0   41.35    1.10 
   4   0   0   41.89    1.13 
   4   0   0   41.79    1.12 
  -5   0   0    0.15    0.22 
  -5   0   0   -0.08    0.22 
  -5   0   0   -0.03    0.17 
  -5   0   0    0.22    0.22 
   5   0   0    0.48    0.27 
   5   0   0    0.18    0.26 
  -6   0   0    9.16    0.78 
  -6   0   0    7.83    0.64 
  -6   0   0    9.28    0.70 
   6   0   0    8.85    0.71 
   6   0   0    9.11    0.71 
  -7   0   0    0.02    0.35 
  -7   0   0   -0.22    0.33 
  -7   0   0   -0.15    0.36 
   7   0   0    0.01    0.42 
   7   0   0   -0.59    0.39 
   7  -1   0    1.56    0.55 
   7  -1   0    1.49    0.55 
  -7   1   0    3.06    0.68 
  -7   1   0    0.94    0.47 
   6  -1   0   16.16    0.90 
   6  -1   0   16.27    0.92 
  -6   1   0   15.57    0.87 
  -6   1   0   16.21    0.94 
  -6   1   0   17.72    0.88 
   5  -1   0    8.45    0.61 
   5  -1   0    7.35    0.57 
  -5   1   0    7.42    0.53 
  -5   1   0    7.64    0.55 
  -5   1   0    7.87    0.58 
   4  -1   0   11.09    0.57 
   4  -1   0   12.01    0.55 
  -4   1   0   10.79    0.52 
  -4   1   0   11.45    0.58 
  -4   1   0   10.97    0.54 
  -4   1   0   10.69    0.55 
   3  -1   0    4.95    0.36 
   3  -1   0    4.45    0.31 
  -3   1   0    4.11    0.30 
  -3   1   0    4.52    0.30 
  -3   1   0    4.46    0.34 
  -3   1   0    4.79    0.33 
   2  -1   0   58.49    1.15 
   2  -1   0   55.75    1.16 
   2  -1   0   58.50    1.13 
  -2   1   0   58.96    1.19 
  -2   1   0   58.46    1.16 
  -2   1   0   58.59    1.13 
  -2   1   0   57.67    1.14 
   1  -1   0   29.96    0.60 
   1  -1   0   29.98    0.61 
  -1   1   0   29.48    0.60 
  -1   1   0   29.56    0.60 
  -1   1   0   28.47    0.62 
  -1  -1   0   13.82    0.34 
   1   1   0   13.95    0.36 
  -2  -1   0    1.13    0.16 
  -2  -1   0    1.07    0.15 
  -2  -1   0    0.94    0.16 
   2   1   0    1.12    0.18 
   2   1   0    0.97    0.15 
  -3  -1   0   -0.05    0.14 
  -3  -1   0   -0.02    0.12 
  -3  -1   0    0.01    0.11 
   3   1   0    0.24    0.15 
   3   1   0   -0.07    0.11 
  -4  -1   0   37.24    0.99 
  -4  -1   0   35.45    1.00 
  -4  -1   0   35.59    1.05 
   4   1   0   36.40    1.04 
   4   1   0   36.39    0.99 
  -5  -1   0    5.13    0.54 
  -5  -1   0    4.30    0.51 
  -5  -1   0    4.62    0.51 
   5   1   0    4.43    0.49 
   5   1   0    4.11    0.48 
  -6  -1   0    5.98    0.62 
  -6  -1   0    5.69    0.64 
  -6  -1   0    7.95    0.65 
  -6  -1   0    6.66    0.65 
   6   1   0    8.36    0.68 
   6   1   0    7.91    0.72 
  -7  -1   0    1.06    0.44 
  -7  -1   0    0.64    0.44 
  -7  -1   0    1.19    0.44 
   7   1   0    0.72    0.43 
   7  -2   0    3.14    0.72 
  -7   2   0    2.23    0.54 
  -7   2   0    2.80    0.65 
   6  -2   0    0.30    0.43 
   6  -2   0    0.05    0.38 
  -6   2   0    0.01    0.37 
  -6   2   0    0.59    0.36 
   5  -2   0    2.39    0.45 
  -5   2   0    2.93    0.45 
  -5   2   0    3.27    0.50 
  -5   2   0    3.84    0.49 
   4  -2   0   10.75    0.60 
  -4   2   0   11.29    0.61 
  -4   2   0    9.59    0.53 
  -4   2   0   11.09    0.56 
   3  -2   0   29.90    0.88 
  -3   2   0   29.18    0.82 
  -3   2   0   29.94    0.82 
  -3   2   0   28.74    0.87 
   2  -2   0   94.36    1.76 
   2  -2   0   96.07    1.74 
  -2   2   0   92.88    1.77 
  -2   2   0   95.64    1.74 
  -1   2   0   66.20    1.21 
  -1   2   0   66.70    1.20 
   0   2   0   35.44    0.70 
   0   2   0   36.17    0.72 
  -1  -2   0   26.63    0.54 
   1   2   0   27.25    0.61 
   1   2   0   26.66    0.57 
  -2  -2   0  141.73    2.39 
   2   2   0  141.27    2.43 
  -3  -2   0   32.16    0.81 
  -3  -2   0   32.97    0.86 
  -3  -2   0   31.04    0.78 
   3   2   0   33.13    0.88 
  -4  -2   0    7.98    0.48 
  -4  -2   0    7.75    0.45 
  -4  -2   0    8.14    0.45 
   4   2   0    7.42    0.46 
   4   2   0    7.89    0.43 
  -5  -2   0    0.26    0.22 
  -5  -2   0    0.60    0.25 
  -5  -2   0    0.06    0.22 
   5   2   0    0.27    0.24 
   5   2   0    0.01    0.22 
  -6  -2   0    0.66    0.31 
  -6  -2   0    0.87    0.36 
  -6  -2   0    0.58    0.32 
   6   2   0    1.02    0.35 
  -7  -2   0    4.49    0.68 
  -7  -2   0    2.56    0.48 
  -7  -2   0    3.51    0.57 
   7   2   0    2.97    0.61 
   6  -3   0    0.47    0.47 
  -6   3   0    0.92    0.43 
  -6   3   0    0.54    0.33 
   5  -3   0    3.48    0.53 
  -5   3   0    5.56    0.63 
  -5   3   0    4.41    0.55 
   4  -3   0    0.54    0.29 
  -4   3   0    0.69    0.27 
  -4   3   0    0.94    0.33 
  -4   3   0    0.19    0.22 
   3  -3   0   15.46    0.64 
  -3   3   0   15.35    0.60 
  -3   3   0   13.98    0.60 
   2  -3   0   71.82    1.46 
  -2   3   0   72.40    1.47 
  -2   3   0   72.39    1.45 
  -1   3   0   35.84    0.79 
  -1   3   0   35.62    0.81 
  -1   3   0   36.52    0.82 
   0   3   0   25.16    0.60 
   0   3   0   25.77    0.63 
   1   3   0   98.30    1.77 
  -2  -3   0    7.39    0.32 
   2   3   0    7.55    0.35 
   2   3   0    7.03    0.34 
  -3  -3   0    0.53    0.18 
   3   3   0    0.28    0.16 
  -4  -3   0    0.31    0.17 
  -4  -3   0    0.30    0.18 
   4   3   0    0.36    0.20 
  -5  -3   0   29.89    1.04 
  -5  -3   0   29.84    0.97 
  -5  -3   0   29.74    0.99 
   5   3   0   29.30    1.06 
  -6  -3   0    0.13    0.28 
  -6  -3   0    0.22    0.28 
  -6  -3   0    0.67    0.34 
   6   3   0    0.52    0.32 
  -7  -3   0   -0.28    0.39 
  -7  -3   0   -0.24    0.33 
  -7  -3   0   -0.25    0.29 
   7   3   0   -0.46    0.34 
   6  -4   0    3.73    0.73 
  -6   4   0    5.63    0.68 
  -6   4   0    8.76    0.94 
   5  -4   0    7.21    0.74 
  -5   4   0    8.63    0.72 
  -5   4   0    6.78    0.64 
   4  -4   0    5.30    0.55 
  -4   4   0    4.73    0.50 
  -4   4   0    6.06    0.58 
   3  -4   0   -0.09    0.22 
  -3   4   0    0.10    0.17 
  -3   4   0   -0.02    0.16 
  -2   4   0    3.43    0.33 
  -2   4   0    3.56    0.32 
  -2   4   0    4.05    0.37 
  -1   4   0   39.51    0.93 
  -1   4   0   40.05    0.94 
   0   4   0   30.82    0.79 
   0   4   0   30.46    0.76 
   1   4   0   69.38    1.42 
   2   4   0   39.41    0.92 
   2   4   0   39.56    0.98 
  -3  -4   0    6.81    0.37 
   3   4   0    7.51    0.42 
  -4  -4   0   63.12    1.45 
   4   4   0   60.69    1.51 
  -5  -4   0    2.23    0.38 
  -5  -4   0    1.47    0.31 
   5   4   0    1.94    0.38 
  -6  -4   0    5.06    0.56 
  -6  -4   0    3.72    0.51 
  -6  -4   0    3.55    0.51 
   6   4   0    3.63    0.53 
  -7  -4   0    0.26    0.44 
  -7  -4   0    0.43    0.42 
  -7  -4   0    0.07    0.37 
   7   4   0    0.34    0.39 
   5  -5   0    0.47    0.46 
  -5   5   0    0.57    0.39 
  -5   5   0    0.90    0.37 
   4  -5   0    0.99    0.36 
  -4   5   0    1.26    0.35 
  -4   5   0    1.08    0.34 
   3  -5   0    0.17    0.30 
  -3   5   0    0.41    0.23 
  -3   5   0    0.47    0.21 
  -3   5   0    0.34    0.20 
  -2   5   0    4.12    0.39 
  -2   5   0    3.84    0.38 
  -2   5   0    3.29    0.34 
  -1   5   0   11.01    0.49 
  -1   5   0   10.20    0.48 
   0   5   0    5.54    0.35 
   0   5   0    5.82    0.35 
   1   5   0    2.13    0.29 
   2   5   0   50.18    1.22 
  -3  -5   0   14.28    0.53 
   3   5   0   14.00    0.59 
  -4  -5   0   39.63    1.09 
   4   5   0   39.99    1.18 
  -5  -5   0   48.93    1.36 
   5   5   0   49.08    1.45 
  -6  -5   0    0.81    0.36 
  -6  -5   0    0.54    0.33 
  -6  -5   0    1.48    0.41 
   6   5   0    0.76    0.38 
  -7  -5   0   -0.22    0.37 
  -7  -5   0   -0.25    0.37 
  -7  -5   0    0.16    0.39 
   7   5   0    0.14    0.37 
   5  -6   0    1.39    0.57 
  -5   6   0    1.51    0.40 
  -5   6   0    1.75    0.51 
   4  -6   0    0.35    0.35 
  -4   6   0    0.00    0.29 
  -4   6   0    0.32    0.28 
  -3   6   0    0.81    0.23 
  -3   6   0    1.02    0.29 
  -2   6   0    0.02    0.21 
  -2   6   0    0.90    0.23 
  -1   6   0   20.67    0.76 
  -1   6   0   22.78    0.77 
   0   6   0    5.88    0.41 
   0   6   0    6.14    0.41 
   1   6   0    8.13    0.48 
   2   6   0   -0.17    0.13 
   3   6   0   17.18    0.73 
  -4  -6   0   11.11    0.57 
   4   6   0   11.17    0.62 
  -5  -6   0    1.29    0.31 
   5   6   0    1.02    0.34 
  -6  -6   0    0.95    0.38 
  -6  -6   0   -0.05    0.33 
   6   6   0    0.06    0.34 
  -7  -6   0    3.38    0.62 
  -7  -6   0    2.13    0.52 
   7   6   0    2.77    0.62 
   4  -7   0   -0.18    0.42 
  -4   7   0    0.33    0.32 
  -3   7   0    1.67    0.36 
  -2   7   0    0.75    0.29 
  -2   7   0    0.91    0.27 
  -1   7   0    5.43    0.50 
  -1   7   0    5.70    0.53 
   0   7   0   28.97    0.93 
   0   7   0   29.48    0.98 
   1   7   0    1.12    0.28 
   2   7   0    0.67    0.26 
   3   7   0   35.16    1.16 
   4   7   0    0.92    0.29 
  -5  -7   0    0.48    0.29 
   5   7   0   -0.01    0.28 
  -6  -7   0    0.62    0.37 
   6   7   0    1.01    0.42 
  -7  -7   0   10.31    0.86 
   7   7   0   11.72    1.11 
  -3   8   0    1.60    0.41 
  -2   8   0    4.66    0.51 
  -2   8   0    5.48    0.55 
  -1   8   0    0.37    0.26 
  -1   8   0    0.06    0.22 
   0   8   0   34.87    1.17 
   1   8   0    3.11    0.45 
   2   8   0   45.38    1.38 
   3   8   0    9.84    0.68 
   5   8   0    8.06    0.76 
   6   8   0   12.34    0.93 
  -2   9   0    0.04    0.28 
  -1   9   0    6.69    0.67 
  -1   9   0    6.40    0.63 
   0   9   0   17.97    0.89 
   1   9   0   -0.10    0.21 
   2   9   0   -0.08    0.27 
   3   9   0    0.81    0.36 
   6   9   0    0.15    0.43 
  -1  10   0    0.35    0.33 
   0  10   0    0.31    0.32 
   1  10   0    0.53    0.32 
   2  10   0    0.71    0.36 
   3  10   0    0.18    0.38 
   1  11   0    0.31    0.39 
   2  11   0    2.53    0.58 
   3  11   0    2.71    0.61 
   3  11  -1    2.34    0.61 
   2  11  -1    0.14    0.40 
   1  11  -1   11.20    0.89 
   3  10  -1    0.43    0.40 
   2  10  -1    1.56    0.47 
   1  10  -1    0.10    0.31 
   0  10  -1    0.04    0.32 
  -1  10  -1   -0.19    0.32 
  -1  10  -1    0.07    0.34 
   6   9  -1    1.56    0.52 
   5   9  -1    3.93    0.58 
   3   9  -1    0.40    0.33 
   2   9  -1   -0.16    0.26 
   1   9  -1    2.73    0.49 
   0   9  -1    0.55    0.34 
  -1   9  -1    1.13    0.37 
  -1   9  -1    0.80    0.32 
  -2   9  -1    4.51    0.60 
  -2   9  -1    5.40    0.62 
   6   8  -1    1.07    0.49 
   5   8  -1    1.44    0.42 
   3   8  -1    1.18    0.36 
   2   8  -1    0.61    0.27 
   1   8  -1    6.35    0.65 
   0   8  -1   13.29    0.73 
  -1   8  -1    6.98    0.62 
  -1   8  -1    7.34    0.57 
  -2   8  -1    4.51    0.53 
  -2   8  -1    3.47    0.48 
  -3   8  -1    0.54    0.36 
  -3   8  -1    0.52    0.34 
   7   7  -1    8.98    0.98 
  -7  -7   1    7.97    0.81 
  -7  -7   1    7.38    0.85 
   6   7  -1    3.74    0.61 
  -6  -7   1    3.46    0.51 
   5   7  -1    7.06    0.70 
  -5  -7   1    6.34    0.61 
   4   7  -1    4.66    0.51 
  -4  -7   1    4.89    0.46 
   3   7  -1    0.74    0.26 
   2   7  -1    4.69    0.49 
   1   7  -1   27.37    0.98 
   0   7  -1   24.78    0.91 
   0   7  -1   23.50    0.85 
  -1   7  -1   41.73    1.20 
  -1   7  -1   40.49    1.23 
  -2   7  -1    0.30    0.24 
  -2   7  -1    0.56    0.28 
  -3   7  -1    4.96    0.55 
  -3   7  -1    5.43    0.57 
  -4   7  -1    0.29    0.32 
   4  -7   1   -0.24    0.41 
   7   6  -1    3.20    0.66 
  -7  -6   1    2.54    0.55 
  -7  -6   1    3.55    0.63 
   6   6  -1    0.22    0.34 
  -6  -6   1    0.26    0.34 
  -6  -6   1    0.07    0.37 
   5   6  -1    0.12    0.25 
  -5  -6   1   -0.02    0.29 
   4   6  -1    0.90    0.26 
  -4  -6   1    1.12    0.29 
   3   6  -1    3.24    0.42 
   3   6  -1    3.33    0.37 
  -3  -6   1    3.38    0.35 
   2   6  -1    3.39    0.39 
   1   6  -1   10.59    0.56 
   0   6  -1    2.41    0.32 
   0   6  -1    2.49    0.35 
  -1   6  -1    9.51    0.54 
  -1   6  -1    9.88    0.53 
  -2   6  -1    5.28    0.51 
  -2   6  -1    5.06    0.47 
  -3   6  -1    0.19    0.24 
  -3   6  -1   -0.28    0.23 
  -4   6  -1    0.61    0.30 
  -4   6  -1    0.06    0.25 
   4  -6   1    0.64    0.42 
  -5   6  -1    1.30    0.43 
   5  -6   1    0.49    0.49 
   7   5  -1    2.81    0.59 
  -7  -5   1    3.05    0.57 
  -7  -5   1    2.24    0.52 
  -7  -5   1    1.80    0.49 
   6   5  -1   -0.01    0.28 
  -6  -5   1   -0.51    0.26 
  -6  -5   1    0.24    0.35 
  -6  -5   1   -0.55    0.27 
   5   5  -1    0.75    0.29 
  -5  -5   1    0.18    0.27 
   4   5  -1   20.22    0.81 
  -4  -5   1   20.25    0.78 
   3   5  -1    4.50    0.42 
   3   5  -1    4.36    0.41 
  -3  -5   1    4.21    0.37 
   2   5  -1    3.21    0.35 
  -2  -5   1    2.86    0.28 
   1   5  -1    1.11    0.23 
   0   5  -1    3.83    0.31 
   0   5  -1    3.67    0.36 
  -1   5  -1    6.15    0.39 
  -1   5  -1    6.47    0.39 
  -2   5  -1    1.29    0.28 
  -2   5  -1    0.85    0.23 
  -3   5  -1    3.07    0.41 
  -3   5  -1    2.17    0.34 
  -3   5  -1    3.20    0.41 
  -4   5  -1    0.14    0.26 
  -4   5  -1    0.71    0.29 
   4  -5   1    0.55    0.35 
  -5   5  -1    0.62    0.38 
  -5   5  -1    1.00    0.36 
   5  -5   1    0.47    0.45 
   7   4  -1    2.20    0.49 
  -7  -4   1    2.12    0.52 
  -7  -4   1    1.94    0.49 
  -7  -4   1    2.88    0.52 
   6   4  -1    0.24    0.26 
  -6  -4   1   -0.20    0.28 
  -6  -4   1    0.33    0.34 
  -6  -4   1    0.10    0.30 
   5   4  -1    8.39    0.59 
  -5  -4   1    7.01    0.55 
  -5  -4   1    7.20    0.54 
  -5  -4   1    7.60    0.51 
   4   4  -1    7.66    0.49 
  -4  -4   1    7.01    0.48 
   3   4  -1   36.12    1.00 
  -3  -4   1   35.96    0.96 
   2   4  -1   21.03    0.67 
   2   4  -1   21.02    0.63 
  -2  -4   1   21.70    0.62 
   1   4  -1    8.61    0.41 
   0   4  -1   13.19    0.49 
   0   4  -1   13.92    0.51 
  -1   4  -1   42.68    1.03 
  -1   4  -1   42.09    1.00 
  -2   4  -1    0.80    0.20 
  -2   4  -1    1.31    0.23 
  -3   4  -1   18.45    0.73 
  -3   4  -1   16.92    0.68 
   3  -4   1   18.02    0.72 
  -4   4  -1   13.11    0.71 
  -4   4  -1   13.72    0.67 
   4  -4   1   13.38    0.73 
  -5   4  -1   12.95    0.74 
  -5   4  -1   14.49    0.86 
   5  -4   1   13.52    0.87 
  -6   4  -1   11.04    1.02 
  -6   4  -1    8.02    0.78 
   6  -4   1    9.01    0.96 
   7   3  -1   -0.08    0.35 
  -7  -3   1    0.36    0.38 
  -7  -3   1   -0.28    0.35 
  -7  -3   1    0.05    0.39 
   6   3  -1    9.46    0.68 
  -6  -3   1    9.95    0.65 
  -6  -3   1    8.81    0.68 
  -6  -3   1    8.49    0.69 
   5   3  -1   23.35    0.94 
  -5  -3   1   21.66    0.90 
  -5  -3   1   23.68    0.90 
  -5  -3   1   22.21    0.88 
   4   3  -1    1.26    0.27 
  -4  -3   1    1.24    0.23 
  -4  -3   1    0.84    0.20 
  -4  -3   1    1.47    0.29 
   3   3  -1   23.22    0.74 
  -3  -3   1   23.13    0.73 
   2   3  -1  136.73    2.39 
   2   3  -1  135.08    2.39 
  -2  -3   1  136.40    2.37 
   1   3  -1   19.63    0.58 
  -1  -3   1   20.78    0.53 
   0   3  -1    0.12    0.12 
   0   3  -1    0.41    0.13 
  -1   3  -1    3.55    0.28 
  -2   3  -1   16.32    0.56 
  -2   3  -1   17.35    0.59 
   2  -3   1   17.04    0.55 
  -3   3  -1    5.85    0.38 
  -3   3  -1    6.15    0.42 
   3  -3   1    5.82    0.41 
  -4   3  -1    0.33    0.21 
  -4   3  -1    0.45    0.23 
  -4   3  -1    0.21    0.19 
   4  -3   1   -0.13    0.26 
  -5   3  -1    8.95    0.63 
  -5   3  -1    7.94    0.66 
   5  -3   1    8.55    0.70 
  -6   3  -1   10.25    0.86 
  -6   3  -1    9.90    0.75 
   6  -3   1   10.24    0.94 
   7   2  -1    1.42    0.50 
  -7  -2   1    2.18    0.53 
  -7  -2   1    2.18    0.55 
   6   2  -1    0.92    0.34 
  -6  -2   1    0.65    0.31 
  -6  -2   1    0.85    0.35 
  -6  -2   1    0.72    0.34 
   5   2  -1   17.91    0.75 
   5   2  -1   18.60    0.82 
  -5  -2   1   17.03    0.77 
  -5  -2   1   17.61    0.82 
  -5  -2   1   18.27    0.76 
   4   2  -1   20.71    0.79 
   4   2  -1   21.08    0.70 
  -4  -2   1   21.57    0.75 
  -4  -2   1   22.70    0.75 
  -4  -2   1   20.95    0.78 
   3   2  -1   10.88    0.49 
  -3  -2   1   11.55    0.51 
  -3  -2   1   11.26    0.46 
   2   2  -1   68.74    1.36 
  -2  -2   1   68.40    1.35 
  -2  -2   1   67.43    1.28 
   1   2  -1   26.25    0.60 
   1   2  -1   26.82    0.62 
  -1  -2   1   27.50    0.61 
   0   2  -1   34.16    0.71 
   0   2  -1   34.22    0.72 
  -1   2  -1    9.71    0.34 
  -1   2  -1    9.62    0.35 
  -2   2  -1  160.57    2.72 
  -2   2  -1  162.55    2.81 
  -2   2  -1  164.51    2.78 
   2  -2   1  161.61    2.77 
   2  -2   1  166.13    2.75 
  -3   2  -1    8.64    0.43 
  -3   2  -1    8.63    0.42 
  -3   2  -1    8.75    0.45 
   3  -2   1    8.14    0.44 
  -4   2  -1    3.22    0.39 
  -4   2  -1    3.16    0.38 
  -4   2  -1    2.21    0.34 
   4  -2   1    3.17    0.41 
  -5   2  -1   12.20    0.66 
  -5   2  -1   12.29    0.68 
  -5   2  -1   11.65    0.70 
   5  -2   1   11.28    0.73 
  -6   2  -1    2.15    0.47 
  -6   2  -1    1.23    0.40 
   6  -2   1    1.48    0.49 
  -7   2  -1    0.13    0.42 
  -7   2  -1    0.28    0.53 
   7  -2   1    1.27    0.53 
   7   1  -1   -0.01    0.37 
  -7  -1   1    0.75    0.39 
  -7  -1   1    0.89    0.41 
  -7  -1   1    0.27    0.43 
   6   1  -1    4.52    0.59 
   6   1  -1    3.65    0.54 
  -6  -1   1    4.17    0.58 
  -6  -1   1    3.00    0.51 
   5   1  -1   20.51    0.82 
   5   1  -1   18.61    0.84 
  -5  -1   1   18.71    0.81 
  -5  -1   1   19.87    0.88 
  -5  -1   1   19.76    0.80 
   4   1  -1    4.43    0.43 
   4   1  -1    4.28    0.44 
  -4  -1   1    4.84    0.37 
  -4  -1   1    4.52    0.45 
  -4  -1   1    4.02    0.41 
   3   1  -1    6.62    0.39 
   3   1  -1    6.13    0.36 
  -3  -1   1    6.64    0.35 
  -3  -1   1    6.54    0.37 
  -3  -1   1    6.44    0.40 
   2   1  -1    2.79    0.27 
   2   1  -1    2.53    0.21 
  -2  -1   1    2.82    0.25 
  -2  -1   1    2.87    0.24 
  -2  -1   1    3.16    0.23 
   1   1  -1   11.45    0.32 
   1   1  -1   11.94    0.31 
  -1  -1   1   11.37    0.33 
  -1  -1   1   11.35    0.35 
   0   1  -1  139.10    2.21 
   0   1  -1  142.80    2.22 
  -1   1  -1  138.70    2.24 
  -1   1  -1  143.92    2.27 
  -1   1  -1  140.51    2.29 
   1  -1   1  143.16    2.26 
   1  -1   1  133.84    2.25 
  -2   1  -1    2.15    0.22 
  -2   1  -1    1.96    0.22 
  -2   1  -1    2.03    0.22 
   2  -1   1    1.74    0.21 
   2  -1   1    2.13    0.23 
  -3   1  -1    2.79    0.30 
  -3   1  -1    2.67    0.29 
  -3   1  -1    2.59    0.28 
  -3   1  -1    2.78    0.31 
   3  -1   1    2.77    0.29 
   3  -1   1    2.52    0.29 
  -4   1  -1   31.99    0.95 
  -4   1  -1   32.88    0.92 
  -4   1  -1   32.83    0.96 
  -4   1  -1   32.91    1.01 
   4  -1   1   33.56    1.00 
   4  -1   1   32.75    0.97 
  -5   1  -1    7.95    0.53 
  -5   1  -1    8.52    0.56 
  -5   1  -1    8.24    0.57 
   5  -1   1    7.95    0.58 
   5  -1   1    7.36    0.59 
  -6   1  -1    7.29    0.76 
  -6   1  -1    7.74    0.75 
  -6   1  -1    7.78    0.63 
   6  -1   1    7.60    0.74 
   6  -1   1    7.27    0.75 
  -7   1  -1    4.22    0.71 
  -7   1  -1    3.02    0.57 
   7  -1   1    2.76    0.58 
   7  -1   1    2.88    0.64 
   7   0  -1   12.23    1.29 
   7   0  -1    9.05    0.90 
  -7   0   1    9.35    0.87 
  -7   0   1   10.31    0.97 
  -7   0   1   10.80    0.84 
   6   0  -1    0.16    0.32 
   6   0  -1    0.66    0.34 
  -6   0   1    0.04    0.28 
  -6   0   1   -0.06    0.31 
  -6   0   1   -0.31    0.27 
   5   0  -1   27.63    0.97 
   5   0  -1   25.37    0.97 
  -5   0   1   24.09    0.90 
  -5   0   1   25.78    0.94 
  -5   0   1   24.90    1.03 
  -5   0   1   26.28    0.97 
   4   0  -1    7.96    0.51 
   4   0  -1    7.54    0.49 
  -4   0   1    8.69    0.52 
  -4   0   1    8.25    0.47 
  -4   0   1    8.55    0.50 
   3   0  -1   19.97    0.51 
   3   0  -1   19.50    0.65 
   3   0  -1   18.88    0.64 
  -3   0   1   19.85    0.64 
  -3   0   1   18.57    0.60 
  -3   0   1   19.13    0.66 
   2   0  -1    4.81    0.29 
   2   0  -1    3.90    0.20 
   2   0  -1    3.80    0.26 
  -2   0   1    4.01    0.25 
  -2   0   1    3.11    0.23 
  -2   0   1    3.86    0.27 
   1   0  -1   45.96    0.85 
   1   0  -1   44.36    0.86 
   1   0  -1   45.03    0.79 
  -1   0   1   45.61    0.85 
  -1   0   1   44.90    0.86 
  -1   0   1   44.36    0.87 
   0   0  -1   -0.23    0.03 
   0   0  -1   -0.25    0.02 
   0   0  -1   -0.21    0.03 
   0   0   1   -0.25    0.02 
   0   0   1   -0.27    0.03 
   0   0   1   -0.30    0.03 
  -1   0  -1    0.58    0.09 
  -1   0  -1    0.50    0.08 
  -1   0  -1    0.46    0.09 
  -1   0  -1    0.35    0.08 
  -1   0  -1    0.72    0.11 
   1   0   1    0.44    0.09 
   1   0   1    0.19    0.09 
   1   0   1    0.41    0.10 
   1   0   1    0.41    0.08 
  -2   0  -1    5.49    0.26 
  -2   0  -1    5.65    0.27 
  -2   0  -1    5.33    0.26 
  -2   0  -1    5.63    0.28 
   2   0   1    5.42    0.29 
   2   0   1    5.84    0.28 
   2   0   1    5.26    0.28 
  -3   0  -1    4.70    0.31 
  -3   0  -1    4.39    0.28 
  -3   0  -1    3.89    0.30 
  -3   0  -1    4.05    0.29 
   3   0   1    4.55    0.32 
   3   0   1    3.94    0.31 
  -4   0  -1    4.47    0.37 
  -4   0  -1    4.66    0.37 
  -4   0  -1    4.59    0.34 
  -4   0  -1    4.32    0.41 
   4   0   1    3.92    0.41 
   4   0   1    5.12    0.46 
  -5   0  -1   -0.11    0.20 
  -5   0  -1    0.84    0.28 
  -5   0  -1    0.47    0.23 
  -5   0  -1    0.46    0.25 
   5   0   1    1.05    0.31 
   5   0   1    0.61    0.30 
  -6   0  -1    5.02    0.60 
  -6   0  -1    4.31    0.59 
  -6   0  -1    5.18    0.61 
   6   0   1    4.43    0.61 
   6   0   1    4.65    0.58 
  -7   0  -1    2.09    0.47 
  -7   0  -1    1.76    0.49 
  -7   0  -1    1.57    0.45 
   7   0   1    0.50    0.52 
   7   0   1    1.96    0.48 
   7  -1  -1   -0.04    0.44 
   7  -1  -1    0.22    0.51 
  -7   1   1   -0.27    0.38 
  -7   1   1   -0.10    0.47 
   6  -1  -1    0.56    0.39 
   6  -1  -1    0.37    0.37 
  -6   1   1    0.13    0.29 
  -6   1   1    0.34    0.36 
  -6   1   1   -0.01    0.27 
   5  -1  -1   33.00    1.12 
   5  -1  -1   33.23    1.14 
  -5   1   1   31.79    1.10 
  -5   1   1   34.14    1.11 
  -5   1   1   31.90    1.18 
   4  -1  -1    3.17    0.38 
   4  -1  -1    2.41    0.37 
  -4   1   1    2.79    0.40 
  -4   1   1    2.92    0.36 
  -4   1   1    3.13    0.40 
  -4   1   1    2.15    0.33 
   3  -1  -1    0.42    0.18 
   3  -1  -1    0.43    0.19 
  -3   1   1    0.69    0.20 
  -3   1   1    0.34    0.18 
  -3   1   1    0.48    0.17 
  -3   1   1    0.43    0.15 
   2  -1  -1    0.08    0.14 
   2  -1  -1   -0.02    0.13 
   2  -1  -1    0.07    0.13 
  -2   1   1   -0.03    0.10 
  -2   1   1   -0.14    0.11 
  -2   1   1   -0.03    0.10 
  -2   1   1   -0.09    0.10 
   1  -1  -1   37.74    0.75 
  -1   1   1   37.07    0.71 
  -1   1   1   37.50    0.76 
  -1   1   1   38.05    0.76 
   0   1   1   58.03    1.05 
  -1  -1  -1  247.61    4.16 
  -1  -1  -1  272.29    4.04 
   1   1   1  277.09    4.12 
  -2  -1  -1   17.64    0.49 
  -2  -1  -1   15.86    0.45 
   2   1   1   17.01    0.51 
   2   1   1   17.15    0.46 
  -3  -1  -1   14.06    0.49 
  -3  -1  -1   14.69    0.51 
  -3  -1  -1   14.26    0.53 
   3   1   1   15.02    0.55 
   3   1   1   14.70    0.51 
  -4  -1  -1    4.56    0.42 
  -4  -1  -1    3.83    0.39 
  -4  -1  -1    4.07    0.34 
   4   1   1    4.02    0.41 
   4   1   1    3.87    0.39 
  -5  -1  -1    4.88    0.52 
  -5  -1  -1    5.73    0.54 
  -5  -1  -1    5.27    0.53 
   5   1   1    5.14    0.55 
   5   1   1    5.93    0.54 
  -6  -1  -1   11.70    0.70 
  -6  -1  -1   10.72    0.68 
  -6  -1  -1   12.18    0.75 
  -6  -1  -1   11.90    0.72 
   6   1   1   11.85    0.70 
   6   1   1   11.46    0.77 
  -7  -1  -1    0.20    0.31 
  -7  -1  -1   -0.39    0.29 
  -7  -1  -1    0.36    0.41 
   7   1   1    0.29    0.42 
   6  -2  -1    0.98    0.41 
   6  -2  -1    2.10    0.51 
  -6   2   1    2.23    0.48 
  -6   2   1    1.00    0.50 
   5  -2  -1    0.49    0.33 
   5  -2  -1    0.35    0.27 
  -5   2   1    0.00    0.23 
  -5   2   1    0.34    0.30 
  -5   2   1    0.28    0.26 
   4  -2  -1   34.10    1.10 
  -4   2   1   33.59    1.01 
  -4   2   1   34.35    1.10 
  -4   2   1   35.20    1.05 
   3  -2  -1    0.28    0.20 
  -3   2   1    0.29    0.19 
  -3   2   1    0.46    0.17 
  -3   2   1    0.55    0.19 
   2  -2  -1   13.10    0.49 
   2  -2  -1   12.62    0.47 
  -2   2   1   12.67    0.44 
  -2   2   1   12.32    0.48 
  -1   2   1  139.19    2.29 
  -1   2   1  136.46    2.25 
   0  -2  -1   71.13    1.21 
   0   2   1   70.04    1.21 
   0   2   1   68.76    1.17 
  -1  -2  -1   16.70    0.41 
   1   2   1   16.64    0.43 
  -2  -2  -1   19.73    0.50 
   2   2   1   19.75    0.57 
  -3  -2  -1   14.95    0.50 
  -3  -2  -1   15.29    0.51 
  -3  -2  -1   16.01    0.54 
   3   2   1   15.32    0.57 
  -4  -2  -1    0.10    0.15 
  -4  -2  -1    0.56    0.21 
  -4  -2  -1    0.31    0.17 
   4   2   1    0.30    0.19 
   4   2   1    0.31    0.17 
  -5  -2  -1    0.49    0.25 
  -5  -2  -1    0.05    0.23 
  -5  -2  -1    0.75    0.27 
   5   2   1    0.69    0.29 
   5   2   1    1.28    0.28 
  -6  -2  -1    3.17    0.47 
  -6  -2  -1    5.00    0.62 
  -6  -2  -1    3.83    0.51 
   6   2   1    3.40    0.52 
  -7  -2  -1    0.78    0.36 
  -7  -2  -1    1.18    0.45 
  -7  -2  -1    0.79    0.38 
   7   2   1    1.17    0.50 
  -8  -2  -1    1.11    0.60 
   8   2   1    0.58    0.63 
   6  -3  -1    5.09    0.74 
  -6   3   1    7.29    0.75 
  -6   3   1    8.32    0.87 
   5  -3  -1    4.63    0.57 
  -5   3   1    7.21    0.70 
  -5   3   1    6.16    0.64 
   4  -3  -1    5.12    0.55 
  -4   3   1    4.31    0.46 
  -4   3   1    5.35    0.55 
   3  -3  -1    0.16    0.22 
  -3   3   1    0.10    0.15 
  -3   3   1    0.04    0.15 
  -2   3   1    1.36    0.20 
  -2   3   1    1.21    0.21 
  -1   3   1    0.36    0.12 
   0   3   1   17.61    0.48 
   0   3   1   17.68    0.45 
   1   3   1   13.51    0.43 
  -2  -3  -1    9.33    0.30 
   2   3   1    9.12    0.39 
  -3  -3  -1   13.31    0.48 
   3   3   1   12.77    0.54 
  -4  -3  -1    0.23    0.16 
  -4  -3  -1    0.22    0.18 
   4   3   1    0.07    0.17 
  -5  -3  -1    7.89    0.50 
  -5  -3  -1    7.64    0.50 
  -5  -3  -1    6.89    0.54 
   5   3   1    7.40    0.56 
  -6  -3  -1    5.13    0.59 
  -6  -3  -1    4.39    0.54 
  -6  -3  -1    3.89    0.55 
   6   3   1    3.77    0.57 
  -7  -3  -1    9.73    0.90 
  -7  -3  -1   10.15    0.75 
  -7  -3  -1    9.33    0.75 
   7   3   1   10.73    0.88 
  -8  -3  -1    2.94    0.60 
  -8  -3  -1    1.03    0.61 
  -8  -3  -1    1.42    0.47 
   8   3   1    1.63    0.62 
   6  -4  -1    3.08    0.68 
  -6   4   1    3.48    0.68 
  -6   4   1    1.98    0.46 
   5  -4  -1    5.28    0.65 
  -5   4   1    6.92    0.75 
  -5   4   1    6.31    0.62 
   4  -4  -1    4.96    0.57 
  -4   4   1    5.34    0.51 
  -4   4   1    6.51    0.54 
   3  -4  -1    8.04    0.54 
  -3   4   1    7.99    0.49 
  -3   4   1    8.58    0.47 
  -2   4   1    3.81    0.29 
  -2   4   1    4.05    0.34 
  -1   4   1    1.90    0.22 
  -1   4   1    1.96    0.22 
   0   4   1    9.07    0.38 
   0   4   1    9.06    0.36 
   1   4   1   90.49    1.72 
   1   4   1   90.24    1.65 
   2   4   1    0.31    0.15 
  -3  -4  -1   21.21    0.61 
   3   4   1   20.92    0.71 
  -4  -4  -1    4.65    0.37 
   4   4   1    5.15    0.50 
  -5  -4  -1   20.45    0.78 
  -5  -4  -1   21.35    0.84 
   5   4   1   21.33    0.91 
  -6  -4  -1   15.04    0.78 
  -6  -4  -1   15.98    0.84 
  -6  -4  -1   15.94    0.81 
   6   4   1   14.93    0.86 
  -7  -4  -1    0.71    0.35 
  -7  -4  -1    0.16    0.39 
  -7  -4  -1   -0.60    0.37 
   7   4   1    0.10    0.36 
  -8  -4  -1    2.29    0.62 
  -8  -4  -1    1.65    0.51 
  -8  -4  -1    1.16    0.56 
   8   4   1    1.83    0.69 
   5  -5  -1    3.43    0.65 
  -5   5   1    3.52    0.51 
  -5   5   1    5.63    0.68 
   4  -5  -1    0.55    0.42 
  -4   5   1    0.74    0.28 
  -4   5   1    0.75    0.31 
  -3   5   1   20.78    0.79 
  -3   5   1   20.26    0.78 
  -2   5   1    3.46    0.36 
  -2   5   1    2.91    0.31 
  -2   5   1    3.12    0.32 
  -1   5   1   37.17    0.95 
  -1   5   1   38.10    0.95 
   0   5   1   14.98    0.53 
   0   5   1   14.84    0.55 
   0   5   1   14.72    0.52 
   1   5   1   44.60    1.09 
   1   5   1   44.40    1.00 
   2   5   1   10.71    0.50 
  -3  -5  -1   28.31    0.69 
   3   5   1   27.72    0.87 
  -4  -5  -1    0.60    0.22 
   4   5   1    0.51    0.26 
  -5  -5  -1   59.75    1.52 
   5   5   1   63.46    1.70 
  -6  -5  -1    0.97    0.38 
  -6  -5  -1    1.28    0.35 
  -6  -5  -1    0.98    0.36 
   6   5   1    0.36    0.34 
  -7  -5  -1   -0.09    0.38 
  -7  -5  -1    0.57    0.34 
  -7  -5  -1   -0.16    0.40 
   7   5   1    0.07    0.38 
   5  -6  -1    5.42    0.78 
  -5   6   1    3.53    0.55 
   4  -6  -1    0.33    0.39 
  -4   6   1    0.13    0.29 
  -4   6   1   -0.05    0.24 
  -3   6   1    0.76    0.26 
  -3   6   1    0.38    0.26 
  -2   6   1   14.07    0.63 
  -2   6   1   13.96    0.61 
  -1   6   1    0.52    0.22 
  -1   6   1    0.55    0.19 
   0   6   1    5.50    0.37 
   0   6   1    5.08    0.38 
   0   6   1    5.15    0.38 
   1   6   1    0.03    0.14 
   2   6   1    4.83    0.46 
  -3  -6  -1   16.71    0.57 
   4   6   1   32.92    1.09 
  -5  -6  -1    8.26    0.55 
   5   6   1    8.26    0.73 
  -6  -6  -1   -0.22    0.31 
   6   6   1   -0.39    0.34 
  -7  -6  -1    0.18    0.46 
  -7  -6  -1    0.17    0.42 
  -7  -6  -1    0.36    0.37 
   7   6   1    0.24    0.46 
  -3   7   1    0.09    0.26 
  -2   7   1   17.50    0.73 
  -2   7   1   18.22    0.78 
  -1   7   1    0.17    0.21 
  -1   7   1    0.05    0.18 
   0   7   1   18.90    0.76 
   0   7   1   17.89    0.70 
   1   7   1    5.94    0.55 
   2   7   1   41.27    1.22 
   4   7   1    0.44    0.27 
   5   7   1    1.64    0.42 
  -6  -7  -1    0.70    0.45 
   6   7   1    1.25    0.47 
  -7  -7  -1    3.63    0.58 
   7   7   1    3.06    0.67 
  -2   8   1    3.96    0.47 
  -1   8   1    2.58    0.39 
  -1   8   1    2.01    0.35 
   0   8   1    8.63    0.57 
   1   8   1    0.72    0.26 
   2   8   1    3.47    0.48 
   3   8   1    5.91    0.60 
   5   8   1    1.67    0.44 
   6   8   1    1.99    0.55 
   7   8   1   -0.13    0.45 
  -1   9   1    0.41    0.26 
   0   9   1    1.26    0.33 
   1   9   1    0.14    0.25 
   2   9   1    5.94    0.63 
   3   9   1    0.52    0.31 
   6   9   1   10.01    0.97 
   0  10   1    0.57    0.28 
   1  10   1   -0.37    0.27 
   2  10   1   -0.52    0.25 
  -3 -10  -1    0.41    0.30 
   1  11   1    0.89    0.40 
   2  11   1    1.96    0.52 
  -3 -11  -1    1.18    0.50 
   3  11  -2    0.76    0.51 
   2  11  -2   -0.85    0.37 
   1  11  -2    1.36    0.50 
   4  10  -2    6.63    0.82 
   3  10  -2    2.87    0.58 
   2  10  -2    0.58    0.37 
   1  10  -2    0.60    0.39 
   0  10  -2    0.48    0.39 
  -1  10  -2   -0.03    0.35 
  -1  10  -2    1.12    0.41 
   5   9  -2    0.66    0.39 
   4   9  -2    0.52    0.39 
   3   9  -2    9.27    0.85 
   2   9  -2    0.14    0.29 
   1   9  -2    0.26    0.30 
   0   9  -2    0.91    0.38 
  -1   9  -2    1.75    0.42 
  -1   9  -2    1.74    0.43 
  -2   9  -2   -0.01    0.30 
  -2   9  -2    0.24    0.31 
   6   8  -2    0.55    0.44 
  -6  -8   2    1.36    0.43 
   5   8  -2    4.03    0.58 
  -5  -8   2    4.97    0.60 
   4   8  -2    1.56    0.35 
  -4  -8   2    1.51    0.53 
   3   8  -2    0.56    0.32 
   2   8  -2   14.26    0.79 
   1   8  -2    5.81    0.63 
   0   8  -2    0.78    0.32 
  -1   8  -2   12.37    0.71 
  -1   8  -2   13.20    0.74 
  -2   8  -2    0.27    0.30 
  -2   8  -2    0.40    0.28 
  -3   8  -2    1.06    0.37 
  -3   8  -2    0.80    0.34 
   6   7  -2   14.70    0.96 
  -6  -7   2   14.24    0.89 
   5   7  -2    4.41    0.56 
  -5  -7   2    2.63    0.44 
   4   7  -2    0.56    0.27 
  -4  -7   2   -0.12    0.26 
   3   7  -2    0.54    0.29 
  -3  -7   2    0.01    0.24 
   2   7  -2    3.99    0.46 
  -2  -7   2    3.20    0.36 
   1   7  -2    1.44    0.34 
   0   7  -2    2.28    0.38 
   0   7  -2    1.97    0.35 
  -1   7  -2    0.41    0.24 
  -1   7  -2    0.33    0.24 
  -2   7  -2    0.75    0.31 
  -2   7  -2    1.65    0.34 
  -3   7  -2    0.06    0.25 
  -3   7  -2    0.52    0.29 
  -4   7  -2    2.85    0.50 
  -4   7  -2    2.52    0.47 
   4  -7   2    3.90    0.58 
   7   6  -2    0.61    0.46 
  -7  -6   2   -0.55    0.42 
  -7  -6   2    0.05    0.50 
   6   6  -2    6.65    0.75 
  -6  -6   2    6.92    0.68 
  -6  -6   2    7.67    0.74 
   5   6  -2    1.85    0.41 
  -5  -6   2    1.22    0.37 
   4   6  -2   29.03    1.02 
  -4  -6   2   28.83    1.02 
   3   6  -2    1.76    0.31 
   3   6  -2    1.25    0.31 
  -3  -6   2    1.05    0.28 
   2   6  -2   13.91    0.66 
  -2  -6   2   15.15    0.61 
   1   6  -2   11.22    0.58 
   0   6  -2   32.06    0.97 
   0   6  -2   31.62    0.99 
  -1   6  -2    0.13    0.19 
  -1   6  -2   -0.01    0.17 
  -2   6  -2    1.61    0.35 
  -2   6  -2    1.21    0.29 
  -3   6  -2    4.10    0.49 
  -3   6  -2    4.61    0.52 
  -4   6  -2    3.98    0.51 
  -4   6  -2    4.77    0.57 
   4  -6   2    4.18    0.58 
  -5   6  -2    0.50    0.36 
   5  -6   2    0.61    0.48 
   7   5  -2    1.54    0.48 
  -7  -5   2    0.37    0.48 
  -7  -5   2    2.09    0.54 
  -7  -5   2    0.67    0.47 
   6   5  -2    1.27    0.43 
  -6  -5   2    1.21    0.39 
  -6  -5   2    0.31    0.38 
  -6  -5   2    1.55    0.41 
   5   5  -2    0.16    0.23 
  -5  -5   2    0.20    0.25 
  -5  -5   2   -0.25    0.28 
   4   5  -2   62.00    1.62 
  -4  -5   2   64.54    1.61 
   3   5  -2    4.28    0.43 
   3   5  -2    5.12    0.45 
  -3  -5   2    3.41    0.38 
   2   5  -2    0.26    0.17 
  -2  -5   2    0.04    0.16 
   1   5  -2   19.12    0.69 
   0   5  -2    0.09    0.15 
   0   5  -2   -0.08    0.12 
  -1   5  -2    0.11    0.18 
  -1   5  -2   -0.14    0.13 
  -2   5  -2    5.15    0.41 
  -2   5  -2    5.37    0.48 
  -3   5  -2   22.20    0.84 
  -4   5  -2    1.61    0.36 
   4  -5   2    1.85    0.43 
  -5   5  -2   -0.19    0.29 
  -5   5  -2   -0.25    0.39 
   5  -5   2    0.31    0.39 
   6  -5   2    0.52    0.54 
   7   4  -2    0.21    0.38 
  -7  -4   2    0.31    0.42 
  -7  -4   2    0.21    0.38 
  -7  -4   2    0.12    0.39 
   6   4  -2    1.20    0.38 
  -6  -4   2    0.56    0.37 
  -6  -4   2    0.99    0.37 
  -6  -4   2    0.52    0.36 
   5   4  -2    6.73    0.57 
  -5  -4   2    6.41    0.53 
  -5  -4   2    6.61    0.62 
  -5  -4   2    7.57    0.54 
   4   4  -2    0.48    0.23 
  -4  -4   2    0.67    0.25 
  -4  -4   2    0.49    0.23 
   3   4  -2   57.87    1.34 
   3   4  -2   59.62    1.40 
  -3  -4   2   58.46    1.39 
   2   4  -2   26.40    0.76 
   2   4  -2   25.57    0.77 
  -2  -4   2   25.31    0.74 
   1   4  -2    4.06    0.31 
  -1  -4   2    4.36    0.31 
   0   4  -2    1.40    0.23 
   0   4  -2    1.23    0.21 
  -1   4  -2   16.53    0.59 
  -1   4  -2   15.80    0.57 
  -2   4  -2   19.36    0.67 
  -3   4  -2   -0.08    0.16 
  -3   4  -2    0.02    0.19 
   3  -4   2   -0.38    0.20 
  -4   4  -2    0.35    0.24 
  -4   4  -2    0.18    0.24 
   4  -4   2    0.74    0.32 
  -5   4  -2    5.09    0.64 
  -5   4  -2    4.38    0.54 
   5  -4   2    5.55    0.69 
  -6   4  -2    0.88    0.39 
  -6   4  -2    0.49    0.45 
   6  -4   2    1.01    0.44 
   7   3  -2    4.36    0.68 
  -7  -3   2    6.48    0.77 
  -7  -3   2    4.57    0.69 
   6   3  -2    1.02    0.38 
  -6  -3   2    0.36    0.32 
  -6  -3   2    0.86    0.38 
  -6  -3   2    0.23    0.32 
   5   3  -2    0.86    0.31 
  -5  -3   2    1.24    0.31 
  -5  -3   2    1.86    0.36 
  -5  -3   2    2.03    0.38 
   4   3  -2    1.66    0.30 
  -4  -3   2    2.25    0.32 
  -4  -3   2    2.68    0.38 
  -4  -3   2    2.16    0.31 
   3   3  -2   18.32    0.67 
  -3  -3   2   18.22    0.68 
  -3  -3   2   17.87    0.61 
   2   3  -2    4.29    0.30 
   2   3  -2    4.69    0.32 
  -2  -3   2    4.25    0.31 
   1   3  -2    2.07    0.23 
  -1  -3   2    2.30    0.23 
   0   3  -2   25.14    0.66 
   0   3  -2   25.44    0.68 
  -1   3  -2   13.43    0.47 
  -2   3  -2    0.89    0.20 
  -3   3  -2   14.38    0.62 
  -3   3  -2   14.73    0.58 
   3  -3   2   13.31    0.60 
  -4   3  -2    7.58    0.54 
  -4   3  -2    8.39    0.50 
   4  -3   2    7.94    0.60 
  -5   3  -2    2.91    0.44 
  -5   3  -2    2.65    0.49 
   5  -3   2    2.78    0.50 
  -6   3  -2    5.74    0.67 
  -6   3  -2    5.97    0.79 
   6  -3   2    6.14    0.72 
   7   2  -2    0.56    0.40 
  -7  -2   2   -0.11    0.38 
  -7  -2   2    0.33    0.41 
   6   2  -2    8.54    0.70 
  -6  -2   2    9.98    0.75 
  -6  -2   2    9.63    0.72 
  -6  -2   2    8.14    0.63 
   5   2  -2    0.21    0.23 
   5   2  -2   -0.04    0.25 
  -5  -2   2    0.25    0.26 
  -5  -2   2   -0.23    0.25 
  -5  -2   2    0.03    0.23 
   4   2  -2   18.45    0.70 
   4   2  -2   19.73    0.78 
  -4  -2   2   19.77    0.72 
  -4  -2   2   18.83    0.78 
  -4  -2   2   19.20    0.73 
   3   2  -2   42.42    1.03 
   3   2  -2   42.22    1.12 
  -3  -2   2   43.24    1.13 
  -3  -2   2   44.44    1.08 
  -3  -2   2   45.54    1.06 
   2   2  -2  180.54    3.01 
   2   2  -2  185.16    3.14 
  -2  -2   2  182.06    3.13 
  -2  -2   2  185.66    3.06 
   1   2  -2   93.36    1.64 
  -1  -2   2   92.53    1.68 
   0   2  -2  107.28    1.86 
   0   2  -2  109.59    1.87 
  -1   2  -2  100.76    1.78 
  -2   2  -2   89.88    1.72 
  -2   2  -2   85.75    1.65 
  -2   2  -2   85.91    1.60 
   2  -2   2   87.96    1.65 
  -3   2  -2   12.09    0.54 
  -3   2  -2   11.97    0.51 
  -3   2  -2   11.14    0.49 
   3  -2   2   11.41    0.53 
  -4   2  -2   27.22    0.95 
  -4   2  -2   29.57    0.90 
  -4   2  -2   27.85    0.90 
   4  -2   2   28.24    0.95 
  -5   2  -2   -0.14    0.21 
  -5   2  -2    0.05    0.22 
  -5   2  -2    0.31    0.25 
   5  -2   2   -0.27    0.26 
  -6   2  -2    0.66    0.34 
  -6   2  -2    1.38    0.44 
   6  -2   2    0.85    0.39 
  -7   2  -2   -0.11    0.39 
  -7   2  -2    0.76    0.51 
   7  -2   2    0.25    0.48 
   7   1  -2    0.16    0.42 
  -7  -1   2   -0.61    0.40 
  -7  -1   2    0.13    0.36 
  -7  -1   2    0.43    0.44 
   6   1  -2    3.15    0.52 
   6   1  -2    4.89    0.62 
  -6  -1   2    3.23    0.54 
  -6  -1   2    5.08    0.59 
   5   1  -2    9.02    0.61 
   5   1  -2   10.09    0.66 
  -5  -1   2    8.44    0.55 
  -5  -1   2    9.36    0.65 
  -5  -1   2    8.83    0.61 
   4   1  -2   23.44    0.81 
   4   1  -2   22.51    0.83 
  -4  -1   2   22.97    0.82 
  -4  -1   2   22.11    0.84 
  -4  -1   2   21.99    0.81 
   3   1  -2  183.59    3.21 
   3   1  -2  185.63    3.30 
  -3  -1   2  181.27    3.29 
  -3  -1   2  183.32    3.20 
  -3  -1   2  188.87    3.25 
   2   1  -2   40.35    0.90 
  -2  -1   2   39.06    0.90 
  -2  -1   2   38.53    0.95 
  -2  -1   2   40.17    0.89 
  -1  -1   2   16.14    0.43 
  -1  -1   2   15.79    0.44 
  -1  -1   2   16.01    0.47 
   0   1  -2  102.03    1.68 
   0   1  -2  102.29    1.67 
   0  -1   2   99.76    1.68 
   0  -1   2  103.24    1.69 
  -1   1  -2    0.23    0.11 
  -1   1  -2    0.11    0.09 
   1  -1   2    0.33    0.12 
   1  -1   2    0.12    0.11 
  -2   1  -2   21.34    0.58 
  -2   1  -2   21.11    0.58 
  -2   1  -2   21.72    0.62 
   2  -1   2   21.14    0.58 
   2  -1   2   21.49    0.60 
   2  -1   2   22.71    0.59 
  -3   1  -2    2.53    0.28 
  -3   1  -2    2.18    0.26 
  -3   1  -2    3.41    0.33 
  -3   1  -2    2.26    0.29 
   3  -1   2    2.05    0.27 
   3  -1   2    1.86    0.25 
  -4   1  -2    2.88    0.37 
  -4   1  -2    3.61    0.40 
  -4   1  -2    3.87    0.42 
  -4   1  -2    2.80    0.34 
   4  -1   2    2.76    0.36 
   4  -1   2    2.52    0.36 
  -5   1  -2    0.01    0.20 
  -5   1  -2    0.16    0.19 
  -5   1  -2   -0.06    0.23 
   5  -1   2    0.28    0.28 
   5  -1   2    0.40    0.27 
  -6   1  -2    0.31    0.28 
  -6   1  -2    0.86    0.33 
  -6   1  -2    0.84    0.36 
   6  -1   2    1.03    0.40 
   6  -1   2    0.65    0.34 
  -7   1  -2    1.99    0.50 
  -7   1  -2    3.75    0.68 
   7  -1   2    3.61    0.63 
   7  -1   2    2.79    0.60 
   7   0  -2    0.19    0.40 
  -7   0   2    1.70    0.55 
  -7   0   2    0.54    0.41 
   6   0  -2   10.24    0.76 
   6   0  -2    9.78    0.73 
  -6   0   2    8.87    0.82 
  -6   0   2    8.87    0.67 
  -6   0   2   10.33    0.84 
   5   0  -2    4.55    0.55 
   5   0  -2    2.91    0.46 
  -5   0   2    4.40    0.53 
  -5   0   2    3.01    0.46 
   4   0  -2    6.98    0.49 
   4   0  -2    6.62    0.48 
  -4   0   2    7.78    0.51 
  -4   0   2    7.00    0.47 
  -4   0   2    7.24    0.45 
   3   0  -2   30.68    0.88 
   3   0  -2   30.37    0.72 
   3   0  -2   31.28    0.91 
  -3   0   2   29.96    0.87 
  -3   0   2   30.99    0.92 
  -3   0   2   32.81    0.89 
   2   0  -2  121.99    2.13 
   2   0  -2  119.24    1.99 
  -2   0   2  117.51    2.15 
  -2   0   2  109.20    2.12 
  -2   0   2  122.01    2.11 
   1   0  -2   72.21    1.27 
   1   0  -2   73.34    1.32 
  -1   0   2   71.24    1.34 
  -1   0   2   73.66    1.32 
  -1   0   2   74.44    1.34 
   0   0  -2  166.79    2.66 
   0   0  -2  169.72    2.66 
   0   0   2  166.38    2.74 
   0   0   2  169.01    2.65 
   0   0   2  168.12    2.66 
  -1   0  -2  961.60   14.54 
  -1   0  -2 1000.00   14.58 
  -1   0  -2  980.30   14.57 
  -1   0  -2  979.49   14.58 
   1   0   2  957.38   14.57 
   1   0   2  973.57   14.56 
   1   0   2  969.86   14.59 
  -2   0  -2    2.19    0.22 
  -2   0  -2    2.17    0.22 
  -2   0  -2    2.18    0.21 
  -2   0  -2    2.26    0.18 
   2   0   2    2.10    0.23 
   2   0   2    2.15    0.21 
   2   0   2    1.87    0.21 
  -3   0  -2    4.08    0.30 
  -3   0  -2    4.10    0.28 
  -3   0  -2    3.53    0.28 
  -3   0  -2    3.92    0.28 
   3   0   2    3.68    0.30 
   3   0   2    4.05    0.33 
  -4   0  -2    0.76    0.21 
  -4   0  -2    0.63    0.22 
  -4   0  -2    0.36    0.17 
  -4   0  -2    0.43    0.19 
   4   0   2    0.23    0.21 
   4   0   2    0.45    0.19 
  -5   0  -2    2.95    0.40 
  -5   0  -2    3.48    0.41 
  -5   0  -2    4.11    0.48 
  -5   0  -2    3.53    0.44 
   5   0   2    2.49    0.44 
   5   0   2    3.17    0.43 
  -6   0  -2    2.26    0.44 
  -6   0  -2    1.14    0.34 
  -6   0  -2    0.86    0.33 
   6   0   2    1.43    0.39 
   6   0   2    1.36    0.45 
  -7   0  -2   -0.07    0.32 
  -7   0  -2    0.14    0.36 
  -7   0  -2    0.48    0.32 
   7   0   2    0.33    0.44 
   7   0   2    0.77    0.43 
   6  -1  -2    2.65    0.48 
   6  -1  -2    3.45    0.56 
  -6   1   2    4.08    0.67 
  -6   1   2    2.51    0.44 
   5  -1  -2   29.10    1.07 
   5  -1  -2   28.89    1.12 
  -5   1   2   27.91    1.15 
  -5   1   2   29.93    1.08 
  -5   1   2   29.37    1.03 
   4  -1  -2   11.28    0.59 
   4  -1  -2   11.72    0.64 
   4  -1  -2   10.66    0.52 
  -4   1   2   10.83    0.57 
  -4   1   2   11.97    0.60 
  -4   1   2   10.64    0.63 
  -4   1   2   11.79    0.57 
   3  -1  -2    9.81    0.50 
   3  -1  -2   10.19    0.51 
   3  -1  -2   10.15    0.44 
  -3   1   2   10.34    0.46 
  -3   1   2   10.62    0.52 
  -3   1   2    9.98    0.46 
  -3   1   2   10.27    0.49 
   2  -1  -2    2.58    0.27 
   2  -1  -2    2.33    0.23 
  -2   1   2    2.57    0.29 
  -2   1   2    2.80    0.28 
   1  -1  -2   42.14    0.88 
   1  -1  -2   41.83    0.87 
  -1   1   2   43.26    0.89 
  -1   1   2   42.30    0.88 
   0  -1  -2   25.21    0.58 
   0   1   2   26.28    0.52 
   0   1   2   26.32    0.67 
  -1  -1  -2    4.85    0.24 
   1   1   2    4.35    0.32 
  -2  -1  -2   64.43    1.19 
  -2  -1  -2   62.94    1.18 
  -2  -1  -2   63.38    1.20 
  -2  -1  -2   63.82    1.19 
   2   1   2   64.15    1.27 
   2   1   2   65.08    1.20 
  -3  -1  -2    3.07    0.29 
  -3  -1  -2    3.36    0.30 
  -3  -1  -2    3.41    0.30 
   3   1   2    2.78    0.32 
   3   1   2    3.12    0.28 
   3   1   2    3.04    0.29 
  -4  -1  -2    1.24    0.24 
  -4  -1  -2    1.10    0.23 
  -4  -1  -2    0.78    0.22 
   4   1   2    0.96    0.21 
   4   1   2    1.16    0.26 
  -5  -1  -2    0.54    0.21 
  -5  -1  -2    0.47    0.25 
  -5  -1  -2    0.98    0.26 
  -5  -1  -2    0.36    0.22 
   5   1   2    0.90    0.27 
   5   1   2    0.30    0.27 
  -6  -1  -2   10.50    0.67 
  -6  -1  -2   10.99    0.70 
  -6  -1  -2    9.68    0.67 
  -6  -1  -2   11.39    0.69 
   6   1   2   10.38    0.78 
   6   1   2   10.88    0.67 
  -7  -1  -2    0.64    0.33 
  -7  -1  -2    0.36    0.39 
  -7  -1  -2    0.75    0.35 
   7   1   2    0.05    0.45 
  -8  -1  -2    1.00    0.54 
   8   1   2    1.09    0.56 
   6  -2  -2    1.32    0.45 
   6  -2  -2    0.63    0.38 
  -6   2   2    0.35    0.33 
  -6   2   2   -0.20    0.40 
   5  -2  -2    0.64    0.37 
   5  -2  -2    0.65    0.32 
  -5   2   2    0.93    0.35 
  -5   2   2    0.21    0.27 
   4  -2  -2   53.18    1.47 
   4  -2  -2   53.74    1.31 
   4  -2  -2   52.80    1.37 
  -4   2   2   55.40    1.37 
  -4   2   2   53.16    1.48 
  -4   2   2   52.00    1.38 
   3  -2  -2    7.98    0.48 
   3  -2  -2    7.30    0.43 
  -3   2   2    7.58    0.42 
  -3   2   2    6.90    0.39 
  -3   2   2    7.37    0.45 
   2  -2  -2    8.73    0.42 
   2  -2  -2    8.55    0.40 
  -2   2   2    8.20    0.35 
  -2   2   2    8.29    0.40 
  -2   2   2    8.64    0.39 
   1  -2  -2  119.04    2.11 
  -1   2   2  117.63    1.96 
  -1   2   2  120.19    2.04 
   0  -2  -2  114.42    1.99 
   0   2   2  116.10    2.10 
  -1  -2  -2   42.80    0.86 
   1   2   2   43.72    0.89 
   1   2   2   43.71    1.01 
  -2  -2  -2    5.52    0.24 
  -2  -2  -2    5.65    0.25 
   2   2   2    6.04    0.32 
  -3  -2  -2    2.95    0.27 
  -3  -2  -2    2.90    0.27 
   3   2   2    2.58    0.31 
  -4  -2  -2    5.36    0.37 
  -4  -2  -2    6.10    0.39 
  -4  -2  -2    6.28    0.39 
   4   2   2    6.14    0.38 
   4   2   2    6.11    0.45 
  -5  -2  -2    2.71    0.38 
  -5  -2  -2    2.87    0.39 
  -5  -2  -2    3.21    0.40 
   5   2   2    3.65    0.48 
   5   2   2    2.85    0.37 
  -6  -2  -2    7.98    0.71 
  -6  -2  -2    7.27    0.67 
  -6  -2  -2    7.94    0.72 
  -6  -2  -2    7.30    0.66 
   6   2   2    8.05    0.78 
   6   2   2    7.23    0.73 
  -7  -2  -2    0.55    0.36 
  -7  -2  -2    0.47    0.38 
  -7  -2  -2    0.78    0.44 
  -7  -2  -2    0.68    0.33 
   7   2   2    0.40    0.47 
  -8  -2  -2    0.06    0.39 
  -8  -2  -2    0.23    0.51 
  -8  -2  -2    0.12    0.43 
   8   2   2   -0.30    0.50 
   6  -3  -2    0.27    0.47 
  -6   3   2    0.42    0.43 
  -6   3   2   -0.11    0.35 
   5  -3  -2    0.07    0.39 
   5  -3  -2    0.35    0.46 
  -5   3   2    0.14    0.24 
  -5   3   2   -0.38    0.30 
   4  -3  -2   12.33    0.65 
   4  -3  -2   11.19    0.71 
  -4   3   2   11.66    0.61 
  -4   3   2   11.04    0.66 
   3  -3  -2    0.02    0.20 
  -3   3   2    0.05    0.16 
  -3   3   2    0.26    0.19 
   2  -3  -2    0.65    0.20 
  -2   3   2    0.12    0.13 
  -2   3   2    0.17    0.13 
  -1   3   2    0.96    0.14 
  -1  -3  -2  108.67    1.92 
   1   3   2  108.03    1.93 
  -2  -3  -2  121.99    2.02 
   2   3   2  115.89    2.14 
  -3  -3  -2   27.32    0.71 
   3   3   2   29.48    0.86 
  -4  -3  -2    0.67    0.19 
  -4  -3  -2    0.21    0.17 
   4   3   2    0.55    0.23 
  -5  -3  -2    5.30    0.49 
  -5  -3  -2    5.14    0.48 
  -5  -3  -2    5.13    0.44 
   5   3   2    5.65    0.57 
  -6  -3  -2   22.16    0.95 
  -6  -3  -2   24.59    0.95 
  -6  -3  -2   25.39    0.98 
   6   3   2   24.10    1.09 
  -7  -3  -2   -0.47    0.35 
  -7  -3  -2   -0.10    0.29 
  -7  -3  -2   -0.26    0.36 
   7   3   2    0.04    0.40 
  -8  -3  -2   -0.06    0.36 
  -8  -3  -2    0.05    0.40 
  -8  -3  -2    0.12    0.53 
   8   3   2    0.14    0.49 
   5  -4  -2    4.10    0.53 
   5  -4  -2    4.12    0.67 
  -5   4   2    7.04    0.74 
  -5   4   2    4.04    0.50 
   4  -4  -2   10.64    0.75 
   4  -4  -2   10.92    0.69 
  -4   4   2   10.95    0.67 
  -4   4   2   11.01    0.60 
   3  -4  -2    7.34    0.54 
  -3   4   2    7.80    0.49 
  -3   4   2    7.53    0.45 
  -2   4   2    0.37    0.16 
  -2   4   2    0.24    0.15 
  -1   4   2    1.96    0.21 
   0   4   2   62.30    1.25 
   1   4   2   16.95    0.55 
   1   4   2   16.68    0.55 
  -2  -4  -2  142.63    2.43 
   2   4   2  138.10    2.49 
  -3  -4  -2   27.84    0.65 
   3   4   2   26.47    0.83 
  -4  -4  -2    1.85    0.28 
   4   4   2    2.33    0.36 
  -5  -4  -2   18.71    0.75 
   5   4   2   17.08    0.84 
  -6  -4  -2    1.71    0.38 
  -6  -4  -2    1.30    0.38 
  -6  -4  -2    1.49    0.38 
   6   4   2    1.12    0.40 
  -7  -4  -2    0.20    0.37 
  -7  -4  -2    0.13    0.30 
  -7  -4  -2   -0.17    0.35 
   7   4   2   -0.33    0.37 
  -8  -4  -2    0.37    0.49 
  -8  -4  -2    0.64    0.35 
  -8  -4  -2   -0.22    0.47 
   8   4   2    1.24    0.58 
   5  -5  -2    0.61    0.40 
   5  -5  -2    0.55    0.51 
  -5   5   2    0.70    0.41 
  -5   5   2    0.67    0.37 
   4  -5  -2    0.86    0.41 
  -4   5   2    1.19    0.33 
  -4   5   2    0.96    0.32 
  -3   5   2    7.32    0.50 
  -3   5   2    7.91    0.51 
  -2   5   2   23.77    0.74 
  -2   5   2   23.84    0.75 
  -1   5   2    6.28    0.36 
   0   5   2    7.45    0.43 
   0   5   2    8.16    0.40 
   0   5   2    8.51    0.37 
   1   5   2    0.47    0.18 
   1   5   2    0.36    0.14 
  -2  -5  -2    1.40    0.21 
  -3  -5  -2   10.31    0.40 
   3   5   2    9.05    0.50 
   4   5   2   18.49    0.79 
  -5  -5  -2   12.32    0.61 
   5   5   2   11.67    0.73 
  -6  -5  -2   12.47    0.70 
  -6  -5  -2   11.65    0.72 
   6   5   2   11.49    0.83 
  -7  -5  -2    1.00    0.37 
  -7  -5  -2    1.12    0.43 
  -7  -5  -2    0.32    0.42 
   7   5   2    1.71    0.55 
  -8  -5  -2   -0.16    0.34 
  -8  -5  -2   -0.65    0.45 
   8   5   2   -0.23    0.44 
   4  -6  -2    2.45    0.59 
   4  -6  -2    1.74    0.51 
  -3   6   2   12.03    0.64 
  -2   6   2    4.23    0.43 
  -1   6   2    8.13    0.44 
  -1   6   2    7.06    0.42 
   0   6   2  126.60    2.41 
   0   6   2  124.49    2.43 
   0   6   2  127.38    2.32 
   1   6   2    2.49    0.32 
   1   6   2    2.52    0.30 
  -2  -6  -2    4.39    0.34 
   2   6   2    4.59    0.45 
  -3  -6  -2    4.29    0.33 
   4   6   2   39.73    1.22 
  -5  -6  -2    5.04    0.47 
   5   6   2    5.80    0.64 
  -6  -6  -2    1.75    0.38 
   6   6   2    1.45    0.49 
  -7  -6  -2   -0.65    0.40 
  -7  -6  -2   -0.12    0.34 
   7   6   2   -0.63    0.36 
   4  -7  -2    0.05    0.46 
   4  -7  -2   -0.26    0.50 
  -2   7   2    3.92    0.43 
  -1   7   2    9.43    0.52 
  -1   7   2    8.71    0.51 
   0   7   2   23.96    0.78 
   0   7   2   22.68    0.83 
   0   7   2   22.99    0.82 
   1   7   2   41.61    1.19 
   1   7   2   42.85    1.14 
   2   7   2    0.37    0.22 
  -3  -7  -2    0.22    0.18 
   4   7   2   14.39    0.72 
   5   7   2    0.04    0.31 
   6   7   2    0.11    0.36 
   7   7   2    3.39    0.71 
  -1   8   2    4.41    0.50 
  -1   8   2    3.53    0.45 
   0   8   2    1.75    0.33 
   0   8   2    1.66    0.33 
   1   8   2   19.41    0.83 
   1   8   2   19.67    0.78 
   2   8   2    4.52    0.50 
  -3  -8  -2    9.38    0.56 
   5   8   2    0.31    0.31 
   6   8   2    7.78    0.84 
   7   8   2    4.56    0.76 
   0   9   2    5.75    0.59 
   1   9   2   14.18    0.77 
  -2  -9  -2    0.15    0.26 
   2   9   2    0.62    0.31 
  -3  -9  -2    0.69    0.28 
   5   9   2    9.79    0.76 
   6   9   2    0.64    0.41 
   1  10   2    0.38    0.32 
  -2 -10  -2    7.62    0.71 
   2  10   2    8.72    0.72 
  -3 -10  -2    2.41    0.43 
  -2 -11  -2    7.41    0.78 
   2  11   2    7.19    0.79 
  -3 -11  -2   10.45    0.82 
   2  11  -3    3.39    0.70 
   4  10  -3    1.18    0.54 
   3  10  -3   -0.10    0.39 
   2  10  -3    0.34    0.41 
   1  10  -3    0.59    0.41 
   0  10  -3    0.27    0.41 
  -1  10  -3    6.23    0.76 
   5   9  -3    5.57    0.68 
   4   9  -3    0.17    0.38 
   3   9  -3    0.08    0.36 
   2   9  -3   -0.08    0.30 
   1   9  -3    5.96    0.71 
   0   9  -3    0.28    0.30 
  -1   9  -3    4.73    0.61 
  -1   9  -3    4.56    0.63 
  -2   9  -3    7.17    0.79 
  -2   9  -3    6.60    0.70 
   6   8  -3    0.19    0.40 
  -6  -8   3    0.02    0.43 
   5   8  -3    0.49    0.33 
  -5  -8   3    0.54    0.38 
   4   8  -3    0.01    0.36 
   4   8  -3    0.47    0.29 
  -4  -8   3    0.34    0.35 
   3   8  -3    5.36    0.64 
  -3  -8   3    5.41    0.55 
   2   8  -3   43.25    1.42 
  -2  -8   3   42.99    1.26 
   1   8  -3    6.50    0.67 
  -1  -8   3    7.40    0.61 
   0   8  -3    9.99    0.68 
  -1   8  -3   24.24    1.05 
  -1   8  -3   25.65    1.03 
  -2   8  -3    7.74    0.79 
  -2   8  -3    7.69    0.72 
  -3   8  -3    3.92    0.55 
  -3   8  -3    2.86    0.51 
   6   7  -3    0.57    0.40 
  -6  -7   3    0.24    0.43 
   5   7  -3    1.03    0.39 
  -5  -7   3    1.41    0.41 
   4   7  -3    4.72    0.53 
  -4  -7   3    4.10    0.51 
   3   7  -3    1.40    0.31 
   3   7  -3    0.70    0.30 
  -3  -7   3    1.18    0.31 
   2   7  -3    0.00    0.22 
  -2  -7   3    0.13    0.26 
   1   7  -3    0.39    0.26 
  -1  -7   3    0.37    0.28 
   0   7  -3    0.49    0.25 
   0   7  -3    0.14    0.22 
  -1   7  -3   19.27    0.87 
  -1   7  -3   19.12    0.84 
  -2   7  -3   12.35    0.71 
  -2   7  -3   11.54    0.70 
  -3   7  -3    1.55    0.41 
  -3   7  -3    0.75    0.33 
  -4   7  -3   -0.08    0.33 
  -4   7  -3   -0.08    0.32 
   4  -7   3    0.33    0.39 
   6   6  -3    0.40    0.38 
  -6  -6   3    0.30    0.38 
  -6  -6   3   -0.04    0.41 
  -6  -6   3    1.04    0.44 
   5   6  -3    1.44    0.42 
  -5  -6   3    0.93    0.38 
   4   6  -3    6.77    0.54 
  -4  -6   3    7.85    0.63 
   3   6  -3    1.12    0.27 
   3   6  -3    0.94    0.28 
  -3  -6   3    1.63    0.33 
   2   6  -3    1.17    0.28 
  -2  -6   3    0.77    0.25 
   1   6  -3    0.40    0.20 
   0   6  -3   19.36    0.78 
   0   6  -3   20.60    0.79 
  -1   6  -3    1.16    0.29 
  -1   6  -3    1.47    0.30 
  -2   6  -3    6.87    0.53 
  -2   6  -3    7.01    0.52 
  -3   6  -3    1.65    0.38 
  -3   6  -3    1.14    0.35 
   3  -6   3    1.39    0.34 
  -4   6  -3    0.32    0.30 
  -4   6  -3    0.14    0.29 
   4  -6   3    0.62    0.37 
  -5   6  -3    0.74    0.40 
   5  -6   3    1.62    0.55 
   7   5  -3    0.97    0.49 
  -7  -5   3    0.40    0.46 
  -7  -5   3    0.52    0.44 
   6   5  -3    7.67    0.79 
  -6  -5   3    6.00    0.68 
  -6  -5   3    6.97    0.74 
  -6  -5   3    8.02    0.69 
   5   5  -3    0.45    0.29 
  -5  -5   3    0.95    0.35 
  -5  -5   3    1.14    0.34 
   4   5  -3    8.14    0.57 
  -4  -5   3    8.41    0.63 
  -4  -5   3    8.74    0.57 
   3   5  -3    3.15    0.40 
   3   5  -3    2.97    0.38 
  -3  -5   3    3.09    0.40 
   2   5  -3    0.07    0.18 
   2   5  -3    0.04    0.17 
  -2  -5   3    0.00    0.17 
   1   5  -3   49.37    1.25 
   0   5  -3    0.15    0.18 
   0   5  -3   -0.15    0.13 
  -1   5  -3    5.25    0.39 
  -1   5  -3    4.47    0.37 
  -2   5  -3    0.88    0.25 
  -2   5  -3    0.57    0.22 
  -3   5  -3   -0.21    0.18 
   3  -5   3    0.23    0.24 
  -4   5  -3    0.62    0.28 
   4  -5   3    0.22    0.33 
  -5   5  -3    0.49    0.34 
   5  -5   3    0.29    0.39 
  -6   5  -3    6.89    0.82 
   6  -5   3    6.92    0.86 
   7   4  -3    2.54    0.57 
  -7  -4   3    2.15    0.63 
  -7  -4   3    2.09    0.55 
  -7  -4   3    2.90    0.62 
   6   4  -3    2.78    0.50 
  -6  -4   3    3.49    0.53 
  -6  -4   3    2.18    0.45 
  -6  -4   3    3.15    0.53 
   5   4  -3    1.78    0.40 
  -5  -4   3    1.69    0.38 
  -5  -4   3    1.30    0.36 
  -5  -4   3    1.78    0.36 
   4   4  -3    1.69    0.35 
  -4  -4   3    1.26    0.29 
  -4  -4   3    1.41    0.34 
   3   4  -3    2.64    0.37 
   3   4  -3    2.55    0.31 
  -3  -4   3    1.53    0.29 
   2   4  -3   32.42    0.90 
   2   4  -3   31.13    0.89 
  -2  -4   3   32.24    0.93 
   1   4  -3   -0.05    0.12 
  -1  -4   3    0.01    0.16 
   0   4  -3    1.40    0.23 
   0   4  -3    1.54    0.23 
  -1   4  -3    0.45    0.19 
  -1   4  -3    0.20    0.15 
  -2   4  -3   61.80    1.41 
  -3   4  -3    1.43    0.29 
   3  -4   3    0.96    0.28 
  -4   4  -3    9.32    0.59 
   4  -4   3    9.38    0.63 
  -5   4  -3    0.86    0.35 
  -5   4  -3    0.40    0.34 
   5  -4   3    0.63    0.39 
  -6   4  -3   15.88    1.11 
  -6   4  -3   16.80    0.96 
   6  -4   3   16.71    1.04 
   7   3  -3    2.75    0.59 
  -7  -3   3    2.10    0.56 
  -7  -3   3    3.16    0.61 
   6   3  -3    0.65    0.34 
  -6  -3   3    0.24    0.35 
  -6  -3   3    0.56    0.36 
  -6  -3   3    0.20    0.31 
   5   3  -3    1.98    0.38 
  -5  -3   3    2.59    0.46 
  -5  -3   3    2.62    0.40 
  -5  -3   3    2.70    0.43 
   4   3  -3   37.32    1.18 
  -4  -3   3   37.29    1.13 
  -4  -3   3   39.04    1.13 
  -4  -3   3   39.44    1.21 
   3   3  -3    1.43    0.27 
  -3  -3   3    1.90    0.27 
  -3  -3   3    2.33    0.33 
  -3  -3   3    1.59    0.26 
   2   3  -3   12.29    0.47 
  -2  -3   3   11.82    0.51 
   1   3  -3   23.21    0.66 
  -1  -3   3   23.68    0.70 
   0   3  -3   19.64    0.60 
   0   3  -3   19.17    0.60 
  -1   3  -3    0.13    0.14 
  -2   3  -3    5.48    0.34 
   2  -3   3    5.95    0.35 
  -3   3  -3   34.42    0.96 
   3  -3   3   31.95    0.94 
  -4   3  -3    0.26    0.24 
  -4   3  -3    0.61    0.22 
  -4   3  -3    0.51    0.22 
   4  -3   3    0.00    0.26 
  -5   3  -3    2.69    0.43 
  -5   3  -3    3.18    0.52 
   5  -3   3    2.96    0.51 
  -6   3  -3    2.22    0.49 
  -6   3  -3    1.99    0.55 
   6  -3   3    2.58    0.50 
   7  -3   3    4.74    0.80 
   7   2  -3    1.03    0.48 
  -7  -2   3    0.62    0.44 
  -7  -2   3   -0.22    0.41 
   6   2  -3    2.33    0.49 
  -6  -2   3    1.95    0.48 
  -6  -2   3    3.15    0.53 
   5   2  -3    0.06    0.26 
   5   2  -3    0.26    0.25 
  -5  -2   3    0.30    0.26 
  -5  -2   3    0.28    0.27 
  -5  -2   3    0.03    0.26 
   4   2  -3   23.78    0.92 
   4   2  -3   25.51    0.86 
  -4  -2   3   23.87    0.92 
  -4  -2   3   23.14    0.86 
  -4  -2   3   23.06    0.84 
   3   2  -3    5.41    0.36 
   3   2  -3    5.40    0.40 
  -3  -2   3    4.96    0.37 
  -3  -2   3    5.63    0.43 
  -3  -2   3    5.16    0.37 
   2   2  -3    0.10    0.11 
  -2  -2   3    0.03    0.15 
  -2  -2   3    0.15    0.13 
  -2  -2   3    0.06    0.13 
   1   2  -3   26.59    0.64 
  -1  -2   3   25.52    0.72 
  -1  -2   3   25.29    0.66 
   0   2  -3   28.24    0.68 
   0   2  -3   28.75    0.69 
   0  -2   3   27.87    0.67 
  -1   2  -3   67.87    1.31 
  -1   2  -3   67.91    1.27 
   1  -2   3   67.20    1.30 
  -2   2  -3   13.46    0.49 
   2  -2   3   13.23    0.49 
   2  -2   3   13.40    0.47 
  -3   2  -3    4.44    0.37 
  -3   2  -3    4.53    0.34 
  -3   2  -3    4.34    0.32 
   3  -2   3    4.04    0.38 
  -4   2  -3   18.34    0.78 
  -4   2  -3   16.99    0.70 
  -4   2  -3   18.38    0.70 
   4  -2   3   19.48    0.77 
  -5   2  -3    3.19    0.46 
  -5   2  -3    4.00    0.51 
  -5   2  -3    3.17    0.45 
   5  -2   3    2.96    0.48 
  -6   2  -3    1.02    0.39 
  -6   2  -3    1.82    0.43 
   6  -2   3    1.92    0.46 
  -7   2  -3    0.21    0.37 
  -7   2  -3    0.58    0.46 
   7  -2   3    0.73    0.49 
   7   1  -3    0.34    0.43 
  -7  -1   3    1.31    0.46 
  -7  -1   3    0.77    0.57 
  -7  -1   3    0.94    0.50 
   6   1  -3    4.10    0.70 
   6   1  -3    3.88    0.59 
  -6  -1   3    3.37    0.58 
  -6  -1   3    3.30    0.56 
   5   1  -3    1.96    0.40 
   5   1  -3    2.46    0.44 
  -5  -1   3    1.28    0.32 
  -5  -1   3    1.73    0.40 
  -5  -1   3    1.83    0.41 
   4   1  -3    2.18    0.36 
   4   1  -3    1.97    0.34 
  -4  -1   3    1.82    0.30 
  -4  -1   3    1.77    0.33 
  -4  -1   3    1.58    0.34 
   3   1  -3    1.57    0.27 
   3   1  -3    2.23    0.32 
  -3  -1   3    1.74    0.28 
  -3  -1   3    1.49    0.28 
  -3  -1   3    2.09    0.29 
   2   1  -3    0.78    0.19 
  -2  -1   3    0.69    0.19 
  -2  -1   3    0.92    0.19 
  -2  -1   3    0.57    0.17 
  -1  -1   3    3.41    0.22 
  -1  -1   3    3.06    0.26 
  -1  -1   3    3.31    0.24 
   0   1  -3   69.10    1.27 
   0   1  -3   68.01    1.24 
   0  -1   3   70.90    1.28 
   0  -1   3   70.40    1.29 
  -1   1  -3  111.84    1.93 
  -1   1  -3  116.42    1.96 
   1  -1   3  114.96    1.96 
   1  -1   3  114.36    1.98 
  -2   1  -3    5.82    0.30 
  -2   1  -3    5.94    0.30 
  -2   1  -3    5.62    0.31 
   2  -1   3    5.93    0.33 
   2  -1   3    5.57    0.31 
   2  -1   3    6.39    0.36 
  -3   1  -3    8.97    0.41 
  -3   1  -3    7.95    0.41 
  -3   1  -3    8.15    0.44 
  -3   1  -3    9.13    0.41 
   3  -1   3    8.80    0.45 
   3  -1   3    8.71    0.44 
  -4   1  -3    0.02    0.17 
  -4   1  -3   -0.02    0.15 
  -4   1  -3   -0.10    0.11 
  -4   1  -3   -0.18    0.13 
   4  -1   3    0.00    0.18 
   4  -1   3    0.22    0.21 
  -5   1  -3   34.77    1.11 
  -5   1  -3   35.17    1.17 
  -5   1  -3   34.65    1.10 
   5  -1   3   35.36    1.15 
   5  -1   3   36.34    1.15 
  -6   1  -3    8.37    0.75 
  -6   1  -3    8.51    0.76 
  -6   1  -3    7.69    0.65 
   6  -1   3    6.61    0.67 
   6  -1   3    8.06    0.75 
  -7   1  -3    0.23    0.37 
  -7   1  -3   -0.01    0.36 
   7  -1   3    0.48    0.45 
   7  -1   3    0.96    0.45 
   6   0  -3    4.45    0.64 
   6   0  -3    4.26    0.61 
  -6   0   3    3.81    0.54 
  -6   0   3    3.35    0.60 
  -6   0   3    4.82    0.61 
   5   0  -3   -0.31    0.27 
   5   0  -3    0.07    0.27 
  -5   0   3   -0.09    0.28 
  -5   0   3   -0.55    0.21 
   4   0  -3    2.96    0.29 
   4   0  -3    2.87    0.41 
   4   0  -3    2.63    0.40 
  -4   0   3    3.00    0.38 
  -4   0   3    3.15    0.42 
  -4   0   3    3.03    0.42 
   3   0  -3    1.20    0.27 
   3   0  -3    0.92    0.18 
   3   0  -3    0.80    0.23 
  -3   0   3    1.01    0.22 
  -3   0   3    1.23    0.25 
  -3   0   3    0.79    0.22 
   2   0  -3   36.40    0.82 
  -2   0   3   34.55    0.92 
  -2   0   3   34.88    0.88 
  -2   0   3   35.85    0.90 
   1   0  -3    6.87    0.31 
  -1   0   3    6.57    0.30 
  -1   0   3    6.37    0.31 
  -1   0   3    6.36    0.32 
   0   0  -3   82.46    1.48 
   0   0  -3   83.34    1.48 
   0   0   3   82.92    1.60 
   0   0   3   84.40    1.48 
   0   0   3   83.40    1.50 
  -1   0  -3  306.36    4.77 
  -1   0  -3  308.77    4.78 
  -1   0  -3  300.45    4.68 
   1   0   3  302.86    4.78 
   1   0   3  303.09    4.76 
   1   0   3  310.54    4.77 
  -2   0  -3   45.72    0.93 
  -2   0  -3   44.51    0.95 
  -2   0  -3   44.45    0.96 
   2   0   3   45.92    0.98 
   2   0   3   46.11    0.96 
  -3   0  -3    1.85    0.25 
  -3   0  -3    2.31    0.25 
  -3   0  -3    2.49    0.28 
  -3   0  -3    1.70    0.24 
   3   0   3    1.64    0.24 
   3   0   3    2.16    0.26 
   3   0   3    1.78    0.27 
  -4   0  -3    0.37    0.18 
  -4   0  -3   -0.08    0.15 
  -4   0  -3   -0.02    0.16 
  -4   0  -3    0.11    0.13 
   4   0   3   -0.03    0.17 
   4   0   3   -0.28    0.15 
   4   0   3    0.13    0.18 
  -5   0  -3    0.67    0.28 
  -5   0  -3    0.18    0.23 
  -5   0  -3    0.68    0.24 
  -5   0  -3    0.54    0.21 
   5   0   3    0.57    0.28 
   5   0   3    0.24    0.28 
  -6   0  -3    7.94    0.64 
  -6   0  -3    7.86    0.64 
  -6   0  -3    8.37    0.62 
   6   0   3    8.72    0.65 
   6   0   3    8.13    0.74 
  -7   0  -3    0.51    0.35 
  -7   0  -3    0.85    0.37 
  -7   0  -3    0.90    0.40 
   7   0   3    0.44    0.44 
   7   0   3    0.17    0.41 
   6  -1  -3    0.07    0.37 
   6  -1  -3   -0.48    0.42 
  -6   1   3    0.01    0.31 
  -6   1   3   -0.08    0.45 
   5  -1  -3    0.21    0.33 
   5  -1  -3   -0.04    0.29 
  -5   1   3    0.43    0.28 
  -5   1   3   -0.44    0.26 
  -5   1   3    0.38    0.34 
   4  -1  -3   18.01    0.82 
   4  -1  -3   19.43    0.82 
   4  -1  -3   18.29    0.68 
  -4   1   3   17.66    0.81 
  -4   1   3   17.77    0.77 
  -4   1   3   19.18    0.74 
   3  -1  -3    2.16    0.31 
   3  -1  -3    2.61    0.35 
   3  -1  -3    2.16    0.27 
  -3   1   3    2.95    0.36 
  -3   1   3    2.24    0.29 
  -3   1   3    2.49    0.33 
   2  -1  -3   17.58    0.57 
  -2   1   3   17.39    0.61 
  -2   1   3   17.14    0.59 
  -2   1   3   19.06    0.61 
   1  -1  -3    1.35    0.19 
   1  -1  -3    1.94    0.24 
  -1   1   3    2.21    0.31 
  -1   1   3    2.72    0.26 
  -1   1   3    2.66    0.25 
  -1   1   3    2.31    0.20 
   0  -1  -3   48.14    0.95 
   0  -1  -3   47.40    0.99 
   0  -1  -3   49.53    0.97 
   0   1   3   49.62    0.96 
   0   1   3   49.31    1.12 
   0   1   3   49.47    0.95 
  -1  -1  -3    5.57    0.29 
  -1  -1  -3    5.66    0.26 
  -1  -1  -3    5.21    0.25 
   1   1   3    5.51    0.37 
   1   1   3    5.69    0.25 
  -2  -1  -3   29.39    0.69 
  -2  -1  -3   29.53    0.69 
  -2  -1  -3   30.10    0.72 
  -2  -1  -3   30.69    0.66 
  -2  -1  -3   28.71    0.70 
   2   1   3   30.03    0.71 
  -3  -1  -3   11.62    0.47 
  -3  -1  -3   11.56    0.44 
  -3  -1  -3   11.96    0.45 
  -3  -1  -3   11.67    0.47 
   3   1   3   11.37    0.46 
   3   1   3   11.41    0.52 
  -4  -1  -3    0.94    0.23 
  -4  -1  -3    0.98    0.22 
  -4  -1  -3    1.25    0.24 
  -4  -1  -3    1.37    0.25 
   4   1   3    1.25    0.24 
   4   1   3    1.44    0.29 
  -5  -1  -3    2.58    0.39 
  -5  -1  -3    1.97    0.34 
  -5  -1  -3    2.10    0.35 
  -5  -1  -3    2.32    0.34 
   5   1   3    2.74    0.38 
   5   1   3    1.93    0.40 
  -6  -1  -3    0.86    0.32 
  -6  -1  -3    0.98    0.31 
  -6  -1  -3    1.62    0.39 
  -6  -1  -3    0.99    0.28 
   6   1   3    0.74    0.32 
   6   1   3    0.29    0.36 
  -7  -1  -3    2.43    0.49 
  -7  -1  -3    2.59    0.50 
  -7  -1  -3    2.89    0.58 
   7   1   3    2.04    0.57 
  -8  -1  -3   -0.12    0.40 
  -8  -1  -3    1.51    0.57 
  -8  -1  -3    0.80    0.44 
   8   1   3    1.87    0.54 
   6  -2  -3    1.86    0.60 
   6  -2  -3    2.05    0.61 
  -6   2   3    1.85    0.44 
  -6   2   3    2.93    0.62 
   5  -2  -3    0.57    0.39 
   5  -2  -3    0.01    0.34 
  -5   2   3    0.35    0.38 
  -5   2   3   -0.11    0.25 
   4  -2  -3    0.61    0.30 
   4  -2  -3    0.90    0.27 
   4  -2  -3    0.46    0.31 
  -4   2   3    0.98    0.27 
  -4   2   3    0.98    0.26 
  -4   2   3    1.35    0.35 
   3  -2  -3   36.47    1.09 
   3  -2  -3   37.28    1.02 
   3  -2  -3   38.03    1.05 
  -3   2   3   35.73    1.07 
  -3   2   3   37.46    0.98 
  -3   2   3   36.65    1.04 
   2  -2  -3    3.36    0.33 
  -2   2   3    4.36    0.48 
  -2   2   3    3.51    0.29 
  -2   2   3    3.19    0.25 
  -2   2   3    4.19    0.37 
   1  -2  -3    2.46    0.26 
  -1   2   3    2.43    0.36 
  -1   2   3    3.00    0.26 
   0  -2  -3   23.46    0.64 
   0   2   3   23.73    0.76 
  -1  -2  -3   49.03    1.01 
   1   2   3   49.65    1.17 
   1   2   3   48.88    1.04 
  -2  -2  -3    1.08    0.16 
  -3  -2  -3   -0.07    0.12 
  -3  -2  -3   -0.07    0.11 
   3   2   3    0.12    0.16 
  -4  -2  -3    3.24    0.34 
  -4  -2  -3    3.26    0.34 
  -4  -2  -3    3.73    0.32 
   4   2   3    3.23    0.40 
   4   2   3    3.22    0.35 
  -5  -2  -3    4.64    0.46 
  -5  -2  -3    3.60    0.43 
  -5  -2  -3    3.73    0.43 
   5   2   3    3.59    0.43 
   5   2   3    3.04    0.44 
  -6  -2  -3    1.30    0.35 
  -6  -2  -3    1.31    0.33 
  -6  -2  -3    1.24    0.37 
  -6  -2  -3    1.00    0.33 
   6   2   3    0.58    0.36 
  -7  -2  -3    0.32    0.28 
  -7  -2  -3    0.51    0.37 
  -7  -2  -3    0.23    0.36 
  -7  -2  -3    0.93    0.42 
   7   2   3   -0.33    0.40 
  -8  -2  -3    0.14    0.35 
  -8  -2  -3   -0.08    0.51 
  -8  -2  -3   -0.01    0.40 
   8   2   3   -0.38    0.44 
   6  -3  -3    1.37    0.59 
  -6   3   3    0.84    0.44 
   5  -3  -3    3.52    0.60 
  -5   3   3    3.58    0.55 
  -5   3   3    2.32    0.44 
   4  -3  -3    0.52    0.30 
   4  -3  -3    0.15    0.35 
  -4   3   3    0.14    0.24 
  -4   3   3    0.53    0.32 
   3  -3  -3    0.10    0.25 
   3  -3  -3    0.03    0.23 
  -3   3   3    0.14    0.21 
  -3   3   3   -0.20    0.17 
   2  -3  -3    2.25    0.30 
  -2   3   3    2.61    0.27 
  -2   3   3    3.10    0.32 
   1  -3  -3   37.27    0.98 
   0  -3  -3    0.24    0.14 
  -1  -3  -3   88.80    1.69 
   1   3   3   90.68    1.87 
   1   3   3   90.99    1.72 
  -2  -3  -3    0.33    0.12 
  -3  -3  -3    4.63    0.28 
   3   3   3    4.49    0.37 
  -4  -3  -3    0.10    0.15 
  -4  -3  -3    0.23    0.16 
   4   3   3    0.08    0.19 
  -5  -3  -3    1.30    0.29 
  -5  -3  -3    1.19    0.28 
  -5  -3  -3    1.14    0.30 
   5   3   3    1.63    0.36 
  -6  -3  -3   27.09    1.00 
  -6  -3  -3   24.02    0.96 
  -6  -3  -3   26.19    1.01 
   6   3   3   24.98    1.10 
  -7  -3  -3    9.63    0.77 
  -7  -3  -3    9.36    0.76 
  -7  -3  -3    9.25    0.72 
  -7  -3  -3   10.66    0.77 
   7   3   3    9.10    0.92 
  -8  -3  -3   -0.77    0.38 
  -8  -3  -3   -0.10    0.50 
  -8  -3  -3    0.70    0.37 
   8   3   3    0.44    0.51 
   5  -4  -3    4.16    0.69 
  -5   4   3    4.80    0.72 
  -5   4   3    6.16    0.72 
   4  -4  -3    1.96    0.42 
   4  -4  -3    3.17    0.53 
  -4   4   3    2.66    0.39 
  -4   4   3    2.44    0.40 
   3  -4  -3    2.93    0.44 
   3  -4  -3    2.66    0.38 
  -3   4   3    3.20    0.34 
  -3   4   3    3.81    0.42 
   2  -4  -3    2.51    0.35 
  -2   4   3    2.27    0.26 
  -2   4   3    2.69    0.31 
   1  -4  -3   24.72    0.82 
   0  -4  -3   13.08    0.55 
  -1  -4  -3    0.20    0.13 
   1   4   3    0.20    0.17 
  -2  -4  -3  176.13    3.01 
  -3  -4  -3    4.92    0.29 
   3   4   3    4.68    0.43 
  -4  -4  -3   17.19    0.60 
   4   4   3   18.83    0.77 
  -5  -4  -3    5.29    0.47 
   5   4   3    5.43    0.58 
  -6  -4  -3    7.61    0.60 
  -6  -4  -3    8.48    0.59 
  -6  -4  -3    7.41    0.59 
   6   4   3    6.72    0.72 
  -7  -4  -3    8.28    0.76 
  -7  -4  -3    8.47    0.81 
  -7  -4  -3    7.30    0.76 
   7   4   3    7.35    0.85 
  -8  -4  -3    2.11    0.50 
  -8  -4  -3    2.24    0.63 
  -8  -4  -3    1.54    0.57 
  -8  -4  -3    2.22    0.54 
   8   4   3    0.48    0.51 
   5  -5  -3    5.71    0.79 
   5  -5  -3    3.72    0.70 
  -5   5   3    7.24    0.88 
   4  -5  -3    1.80    0.44 
   4  -5  -3    2.41    0.54 
  -4   5   3    3.78    0.49 
   3  -5  -3    3.58    0.46 
   3  -5  -3    3.43    0.46 
  -3   5   3    3.72    0.42 
  -3   5   3    3.86    0.43 
   2  -5  -3   24.34    0.93 
  -2   5   3   24.61    0.76 
   1  -5  -3    0.81    0.24 
   0  -5  -3   43.19    1.17 
   0   5   3   44.91    1.16 
  -1  -5  -3   14.90    0.61 
   1   5   3   14.94    0.60 
  -2  -5  -3   11.20    0.49 
  -3  -5  -3   16.14    0.56 
   3   5   3   15.75    0.67 
   4   5   3   -0.02    0.21 
  -5  -5  -3    5.89    0.44 
   5   5   3    6.36    0.64 
  -6  -5  -3   18.82    0.82 
   6   5   3   19.28    1.00 
  -7  -5  -3    1.42    0.39 
  -7  -5  -3    1.00    0.46 
  -7  -5  -3    1.57    0.47 
   7   5   3    0.60    0.44 
  -8  -5  -3    0.29    0.52 
  -8  -5  -3    0.45    0.38 
   8   5   3    0.00    0.45 
   4  -6  -3    3.70    0.60 
   4  -6  -3    5.75    0.74 
   3  -6  -3    0.36    0.33 
   2  -6  -3    0.86    0.33 
  -2   6   3    1.34    0.44 
   1  -6  -3   16.46    0.79 
   0  -6  -3    1.57    0.30 
   0   6   3    2.01    0.34 
   0   6   3    1.73    0.26 
  -1  -6  -3    2.93    0.36 
   1   6   3    2.76    0.35 
   1   6   3    3.54    0.38 
  -2  -6  -3   -0.09    0.14 
  -3  -6  -3    0.26    0.17 
  -4  -6  -3   12.53    0.51 
   4   6   3   12.69    0.70 
   5   6   3    7.61    0.63 
  -6  -6  -3    0.61    0.28 
   6   6   3    0.50    0.36 
  -7  -6  -3    0.24    0.31 
  -7  -6  -3    0.01    0.40 
   7   6   3    0.27    0.39 
   3  -7  -3    3.62    0.59 
   2  -7  -3    1.48    0.39 
   1  -7  -3    4.84    0.55 
   0  -7  -3    0.26    0.25 
   0   7   3   -0.16    0.24 
   0   7   3   -0.30    0.15 
  -1  -7  -3    0.88    0.28 
   1   7   3    1.59    0.32 
   1   7   3    0.86    0.24 
  -2  -7  -3    2.49    0.36 
  -3  -7  -3    1.34    0.28 
  -4  -7  -3    0.21    0.20 
   4   7   3    0.49    0.30 
   5   7   3    3.56    0.53 
   6   7   3   -0.15    0.32 
   7   7   3    1.37    0.49 
   3  -8  -3    0.78    0.52 
   2  -8  -3    0.35    0.40 
   1  -8  -3    0.95    0.38 
  -1   8   3    0.33    0.32 
   0  -8  -3   -0.02    0.28 
   0   8   3    0.04    0.20 
   0   8   3    0.48    0.29 
  -1  -8  -3    8.13    0.62 
   1   8   3    7.45    0.54 
   1   8   3    7.78    0.55 
  -2  -8  -3    1.54    0.33 
  -3  -8  -3    1.28    0.31 
  -4  -8  -3    0.81    0.45 
   5   8   3   -0.23    0.31 
   6   8   3    4.12    0.66 
   7   8   3    1.11    0.53 
   2  -9  -3    4.45    0.73 
  -2   9   3    3.14    0.56 
   1  -9  -3    3.40    0.61 
  -1   9   3    1.85    0.46 
   0  -9  -3    0.39    0.35 
   0   9   3    0.17    0.31 
  -1  -9  -3    3.22    0.51 
   1   9   3    3.31    0.47 
   1   9   3    3.42    0.46 
  -2  -9  -3    0.92    0.33 
  -3  -9  -3    0.05    0.26 
   6   9   3    1.05    0.45 
   0 -10  -3    3.43    0.67 
  -1 -10  -3    0.45    0.40 
   1  10   3   -0.03    0.28 
  -2 -10  -3    1.93    0.48 
  -3 -10  -3   -0.12    0.31 
  -2 -11  -3    1.49    0.51 
  -3 -11  -3    1.28    0.42 
   4  10  -4    0.12    0.51 
   3  10  -4    0.80    0.49 
   2  10  -4    0.23    0.41 
   1  10  -4   -0.25    0.40 
   0  10  -4    3.06    0.59 
  -1  10  -4    0.03    0.41 
   5   9  -4    0.80    0.38 
   4   9  -4    3.92    0.63 
   3   9  -4    0.39    0.42 
   2   9  -4    9.38    0.85 
   1   9  -4    1.99    0.51 
   0   9  -4    2.26    0.47 
  -1   9  -4    3.10    0.54 
  -1   9  -4    3.54    0.58 
  -2   9  -4    6.56    0.76 
  -2   9  -4    6.24    0.79 
   5   8  -4    0.46    0.36 
  -5  -8   4    0.32    0.40 
   4   8  -4    0.33    0.41 
   4   8  -4    0.45    0.30 
  -4  -8   4    0.49    0.40 
   3   8  -4    1.09    0.45 
  -3  -8   4    0.71    0.40 
   2   8  -4    5.23    0.61 
  -2  -8   4    5.13    0.56 
   1   8  -4    1.43    0.40 
  -1  -8   4    1.74    0.40 
   0   8  -4    4.51    0.56 
  -1   8  -4    0.04    0.29 
  -1   8  -4    0.14    0.31 
  -2   8  -4    0.70    0.32 
  -2   8  -4    0.83    0.36 
  -3   8  -4    0.26    0.33 
  -3   8  -4    0.56    0.40 
   6   7  -4    3.38    0.63 
  -6  -7   4    2.39    0.57 
   5   7  -4    0.18    0.37 
  -5  -7   4    0.58    0.42 
   4   7  -4    7.40    0.67 
   4   7  -4    6.33    0.65 
  -4  -7   4    5.91    0.63 
   3   7  -4    1.55    0.42 
   3   7  -4    2.76    0.41 
  -3  -7   4    3.07    0.46 
   2   7  -4    2.77    0.45 
  -2  -7   4    2.00    0.40 
   1   7  -4    4.79    0.51 
  -1  -7   4    5.57    0.55 
   0   7  -4    3.39    0.46 
  -1   7  -4   11.09    0.67 
  -1   7  -4   10.38    0.67 
  -2   7  -4    0.39    0.30 
  -2   7  -4    1.20    0.34 
  -3   7  -4    4.37    0.56 
  -3   7  -4    4.24    0.60 
  -4   7  -4    0.55    0.37 
  -4   7  -4    0.03    0.34 
   6   6  -4    1.16    0.44 
  -6  -6   4    0.73    0.48 
  -6  -6   4    0.47    0.44 
  -6  -6   4   -0.38    0.43 
   5   6  -4    4.64    0.62 
  -5  -6   4    3.44    0.57 
  -5  -6   4    4.34    0.58 
   4   6  -4   10.30    0.68 
  -4  -6   4    9.48    0.73 
   3   6  -4   40.83    1.25 
   3   6  -4   39.49    1.21 
  -3  -6   4   40.04    1.25 
   2   6  -4    1.25    0.34 
  -2  -6   4    0.94    0.32 
   1   6  -4   28.76    0.99 
   0   6  -4    6.51    0.50 
   0   6  -4    5.89    0.47 
  -1   6  -4   19.92    0.82 
  -1   6  -4   18.07    0.78 
  -2   6  -4    1.31    0.33 
  -2   6  -4    1.27    0.33 
  -3   6  -4    2.57    0.44 
  -3   6  -4    1.86    0.41 
   3  -6   4    2.14    0.43 
  -4   6  -4    1.90    0.44 
   4  -6   4    0.72    0.42 
  -5   6  -4    1.00    0.43 
   5  -6   4    0.76    0.52 
   6   5  -4   10.82    0.88 
  -6  -5   4    9.73    0.79 
  -6  -5   4    9.66    0.90 
  -6  -5   4   11.40    0.87 
   5   5  -4    0.76    0.34 
  -5  -5   4    0.65    0.36 
  -5  -5   4    1.03    0.37 
  -5  -5   4    0.65    0.39 
   4   5  -4   -0.02    0.25 
  -4  -5   4    0.12    0.31 
  -4  -5   4   -0.11    0.28 
   3   5  -4   19.87    0.79 
   3   5  -4   19.96    0.83 
  -3  -5   4   20.57    0.86 
   2   5  -4    0.52    0.22 
   2   5  -4    0.58    0.24 
  -2  -5   4    0.52    0.25 
   1   5  -4    8.20    0.48 
  -1  -5   4    7.30    0.50 
   0   5  -4    2.79    0.35 
   0   5  -4    3.01    0.36 
  -1   5  -4    5.14    0.47 
  -1   5  -4    4.28    0.44 
  -2   5  -4    2.29    0.37 
  -3   5  -4    0.35    0.24 
   3  -5   4    0.07    0.23 
  -4   5  -4    0.62    0.30 
   4  -5   4    0.73    0.36 
  -5   5  -4    0.51    0.32 
   5  -5   4    0.63    0.45 
  -6   5  -4    0.69    0.44 
   6  -5   4    0.88    0.56 
   6   4  -4    0.53    0.39 
  -6  -4   4    1.24    0.42 
  -6  -4   4    1.20    0.44 
  -6  -4   4    0.33    0.35 
   5   4  -4    1.12    0.35 
  -5  -4   4    1.54    0.40 
  -5  -4   4    1.24    0.37 
  -5  -4   4    1.74    0.44 
   4   4  -4    0.49    0.29 
  -4  -4   4    0.04    0.22 
  -4  -4   4    0.41    0.26 
  -4  -4   4    0.16    0.30 
   3   4  -4    0.51    0.23 
   3   4  -4    0.41    0.23 
  -3  -4   4    0.91    0.25 
  -3  -4   4    0.33    0.24 
   2   4  -4   11.59    0.54 
  -2  -4   4   11.96    0.52 
  -2  -4   4   11.01    0.58 
   1   4  -4    0.77    0.19 
  -1  -4   4    0.69    0.23 
   0   4  -4    4.67    0.35 
   0   4  -4    4.96    0.37 
  -1   4  -4    0.16    0.14 
  -1   4  -4    0.21    0.16 
  -2   4  -4    3.85    0.40 
   2  -4   4    3.81    0.37 
  -3   4  -4   12.64    0.63 
   3  -4   4   12.81    0.63 
  -4   4  -4    2.18    0.38 
   4  -4   4    1.95    0.40 
  -5   4  -4   -0.39    0.27 
   5  -4   4   -0.14    0.35 
  -6   4  -4   12.11    0.86 
   6  -4   4   11.07    1.01 
   6   3  -4    0.70    0.36 
  -6  -3   4    0.61    0.39 
  -6  -3   4    0.55    0.39 
  -6  -3   4    0.21    0.39 
   5   3  -4   -0.02    0.26 
  -5  -3   4    0.14    0.28 
  -5  -3   4   -0.02    0.28 
  -5  -3   4   -0.06    0.28 
   4   3  -4   13.73    0.84 
   4   3  -4   12.96    0.73 
  -4  -3   4   12.68    0.74 
  -4  -3   4   12.78    0.70 
  -4  -3   4   14.08    0.69 
   3   3  -4    8.61    0.52 
  -3  -3   4    7.43    0.47 
  -3  -3   4    8.41    0.48 
  -3  -3   4    7.62    0.53 
   2   3  -4    0.32    0.16 
  -2  -3   4   -0.17    0.16 
  -2  -3   4   -0.20    0.13 
   1   3  -4    3.72    0.33 
  -1  -3   4    4.45    0.38 
   0   3  -4    9.67    0.44 
   0   3  -4   10.02    0.44 
  -1   3  -4   28.14    0.79 
  -2   3  -4   11.14    0.49 
   2  -3   4   11.02    0.49 
   2  -3   4   11.01    0.47 
  -3   3  -4   19.93    0.73 
   3  -3   4   20.37    0.75 
  -4   3  -4    5.93    0.53 
  -4   3  -4    5.59    0.53 
   4  -3   4    4.96    0.55 
  -5   3  -4    0.38    0.24 
   5  -3   4   -0.30    0.32 
  -6   3  -4    0.60    0.45 
  -6   3  -4    0.72    0.35 
   6  -3   4    0.66    0.44 
   7  -3   4   13.65    1.09 
   6   2  -4    0.34    0.38 
  -6  -2   4    0.18    0.36 
  -6  -2   4    0.23    0.35 
   5   2  -4   10.44    0.72 
  -5  -2   4   10.24    0.76 
  -5  -2   4   10.27    0.68 
  -5  -2   4   10.31    0.67 
   4   2  -4    4.06    0.50 
   4   2  -4    4.81    0.50 
  -4  -2   4    3.77    0.43 
  -4  -2   4    4.21    0.49 
  -4  -2   4    4.02    0.47 
   3   2  -4    1.11    0.23 
   3   2  -4    1.77    0.31 
  -3  -2   4    1.22    0.28 
  -3  -2   4    1.14    0.25 
  -3  -2   4    1.63    0.29 
  -2  -2   4   31.19    0.91 
  -2  -2   4   30.10    0.85 
  -2  -2   4   32.67    0.88 
   1   2  -4    2.88    0.25 
  -1  -2   4    2.45    0.27 
  -1  -2   4    2.50    0.29 
  -1  -2   4    2.49    0.28 
   0   2  -4    0.15    0.14 
   0   2  -4    0.11    0.12 
   0  -2   4    0.06    0.12 
   0  -2   4    0.13    0.13 
  -1   2  -4   94.99    1.77 
   1  -2   4   95.14    1.76 
   1  -2   4   95.59    1.78 
  -2   2  -4    5.10    0.33 
  -2   2  -4    5.39    0.33 
   2  -2   4    4.79    0.34 
   2  -2   4    5.35    0.34 
   2  -2   4    6.17    0.52 
  -3   2  -4    0.14    0.19 
  -3   2  -4    0.31    0.15 
   3  -2   4    0.33    0.19 
   3  -2   4    0.02    0.18 
  -4   2  -4    0.23    0.18 
  -4   2  -4    0.33    0.23 
  -4   2  -4    0.38    0.22 
   4  -2   4    0.43    0.26 
  -5   2  -4    0.93    0.29 
  -5   2  -4    1.58    0.33 
  -5   2  -4    1.14    0.35 
   5  -2   4    0.86    0.36 
  -6   2  -4    0.57    0.33 
  -6   2  -4    0.44    0.33 
   6  -2   4   -0.19    0.34 
  -7   2  -4   -0.55    0.37 
  -7   2  -4    0.36    0.37 
   7  -2   4    0.45    0.49 
   6   1  -4    3.28    0.59 
  -6  -1   4    2.83    0.53 
  -6  -1   4    3.49    0.62 
   5   1  -4    5.22    0.60 
   5   1  -4    4.56    0.58 
  -5  -1   4    4.03    0.52 
  -5  -1   4    4.42    0.55 
   4   1  -4    0.32    0.28 
   4   1  -4    0.18    0.23 
  -4  -1   4    0.14    0.20 
  -4  -1   4    0.53    0.26 
  -4  -1   4    0.05    0.22 
   3   1  -4    5.73    0.42 
  -3  -1   4    5.59    0.43 
  -3  -1   4    5.59    0.46 
  -3  -1   4    5.38    0.41 
  -2  -1   4   86.89    1.74 
  -2  -1   4   84.86    1.75 
  -2  -1   4   85.64    1.80 
  -1  -1   4    7.31    0.39 
  -1  -1   4    6.80    0.36 
  -1  -1   4    7.36    0.35 
   0   1  -4   31.07    0.76 
   0  -1   4   32.28    0.78 
   0  -1   4   33.08    0.80 
  -1   1  -4  101.00    1.83 
  -1   1  -4  100.89    1.79 
   1  -1   4  102.63    1.85 
   1  -1   4  103.26    1.86 
  -2   1  -4   12.28    0.45 
  -2   1  -4   13.23    0.48 
   2  -1   4   12.70    0.48 
   2  -1   4   12.70    0.49 
  -3   1  -4   10.63    0.47 
  -3   1  -4   11.79    0.50 
  -3   1  -4   11.68    0.51 
   3  -1   4   12.80    0.54 
   3  -1   4   12.23    0.52 
  -4   1  -4    4.69    0.46 
  -4   1  -4    5.50    0.41 
  -4   1  -4    5.68    0.41 
  -4   1  -4    5.71    0.39 
   4  -1   4    5.66    0.45 
   4  -1   4    6.07    0.45 
  -5   1  -4    9.72    0.60 
  -5   1  -4    7.91    0.58 
  -5   1  -4   10.46    0.60 
   5  -1   4    8.55    0.57 
   5  -1   4    8.21    0.63 
   5  -1   4    8.87    0.63 
  -6   1  -4    0.91    0.35 
  -6   1  -4    0.97    0.34 
  -6   1  -4    0.95    0.34 
   6  -1   4    1.11    0.43 
   6  -1   4    0.35    0.36 
  -7   1  -4    6.05    0.74 
  -7   1  -4    4.49    0.65 
   7  -1   4    8.08    0.83 
   7  -1   4    5.81    0.75 
   6   0  -4   10.90    0.98 
   6   0  -4    7.23    0.79 
  -6   0   4    7.95    0.78 
  -6   0   4   10.38    0.96 
  -6   0   4    7.00    0.68 
   5   0  -4    1.18    0.40 
   5   0  -4    1.23    0.41 
  -5   0   4    0.89    0.36 
  -5   0   4    0.24    0.30 
   4   0  -4   23.12    0.91 
   4   0  -4   22.34    0.90 
   4   0  -4   20.26    0.91 
  -4   0   4   22.27    0.88 
  -4   0   4   22.45    0.95 
  -4   0   4   20.68    0.86 
   3   0  -4    3.46    0.40 
   3   0  -4    4.10    0.34 
  -3   0   4    4.58    0.45 
  -3   0   4    4.22    0.35 
  -3   0   4    4.21    0.45 
   2   0  -4    0.18    0.16 
  -2   0   4    0.08    0.16 
  -2   0   4    0.13    0.15 
  -2   0   4    0.28    0.16 
   1   0  -4   77.20    1.47 
  -1   0   4   75.97    1.53 
  -1   0   4   74.69    1.68 
  -1   0   4   79.52    1.51 
  -1   0   4   76.30    1.52 
   0   0  -4    5.93    0.31 
   0   0   4    5.80    0.32 
   0   0   4    6.09    0.40 
   0   0   4    5.96    0.30 
  -1   0  -4   14.42    0.39 
  -1   0  -4   14.74    0.48 
   1   0   4   15.74    0.48 
   1   0   4   14.86    0.49 
  -2   0  -4    0.43    0.12 
  -2   0  -4    0.38    0.15 
   2   0   4    0.32    0.15 
   2   0   4    0.18    0.13 
  -3   0  -4    7.46    0.38 
  -3   0  -4    7.67    0.40 
  -3   0  -4    7.68    0.38 
   3   0   4    7.70    0.42 
   3   0   4    7.65    0.40 
  -4   0  -4    3.33    0.37 
  -4   0  -4    2.51    0.32 
  -4   0  -4    3.05    0.37 
  -4   0  -4    2.77    0.34 
   4   0   4    2.77    0.34 
   4   0   4    2.93    0.39 
   4   0   4    2.76    0.37 
  -5   0  -4   -0.02    0.19 
  -5   0  -4    0.10    0.22 
  -5   0  -4    0.26    0.26 
  -5   0  -4    0.40    0.23 
   5   0   4    0.37    0.23 
   5   0   4    0.09    0.29 
   5   0   4    0.08    0.27 
  -6   0  -4    2.27    0.43 
  -6   0  -4    1.46    0.37 
  -6   0  -4    2.23    0.43 
   6   0   4    1.62    0.45 
   6   0   4    1.46    0.41 
  -7   0  -4    2.01    0.48 
  -7   0  -4    0.54    0.40 
  -7   0  -4    0.83    0.40 
   7   0   4    0.82    0.50 
   7   0   4    0.49    0.43 
   6  -1  -4    0.79    0.44 
   6  -1  -4    1.45    0.57 
  -6   1   4    0.93    0.58 
  -6   1   4    0.87    0.38 
   5  -1  -4    0.44    0.32 
   5  -1  -4    0.40    0.37 
  -5   1   4   -0.03    0.27 
  -5   1   4   -0.15    0.26 
  -5   1   4    0.14    0.33 
   4  -1  -4   25.03    0.85 
   4  -1  -4   24.67    0.99 
   4  -1  -4   26.26    1.00 
  -4   1   4   25.93    1.00 
  -4   1   4   24.75    0.87 
  -4   1   4   24.73    0.95 
   3  -1  -4    1.04    0.29 
   3  -1  -4    0.28    0.22 
  -3   1   4    0.44    0.19 
  -3   1   4    0.62    0.26 
  -3   1   4    0.59    0.21 
   2  -1  -4    3.15    0.32 
  -2   1   4    3.19    0.27 
  -2   1   4    3.97    0.38 
  -2   1   4    3.87    0.38 
   1  -1  -4   -0.26    0.12 
  -1   1   4   -0.08    0.21 
  -1   1   4    0.01    0.12 
  -1   1   4    0.02    0.11 
  -1   1   4   -0.03    0.12 
   0  -1  -4    1.39    0.20 
   0  -1  -4    0.85    0.19 
   0  -1  -4    1.24    0.21 
   0   1   4    0.75    0.16 
   0   1   4    1.09    0.18 
   0   1   4    1.11    0.26 
  -1  -1  -4    1.82    0.22 
  -1  -1  -4    2.48    0.25 
   1   1   4    2.38    0.31 
   1   1   4    2.17    0.23 
   1   1   4    2.62    0.26 
  -2  -1  -4    1.04    0.15 
  -2  -1  -4    1.34    0.20 
  -2  -1  -4    1.14    0.21 
  -2  -1  -4    1.43    0.21 
   2   1   4    1.32    0.19 
   2   1   4    1.03    0.30 
  -3  -1  -4   44.94    1.05 
  -3  -1  -4   46.41    1.10 
  -3  -1  -4   45.33    1.01 
  -3  -1  -4   45.54    1.06 
   3   1   4   46.28    1.08 
  -4  -1  -4    1.48    0.26 
  -4  -1  -4    1.35    0.26 
  -4  -1  -4    0.85    0.24 
  -4  -1  -4    0.92    0.20 
   4   1   4    1.30    0.29 
   4   1   4    1.57    0.28 
  -5  -1  -4    0.77    0.27 
  -5  -1  -4    0.91    0.26 
  -5  -1  -4    0.79    0.25 
  -5  -1  -4    0.90    0.30 
   5   1   4    0.85    0.32 
   5   1   4    1.30    0.31 
  -6  -1  -4    0.82    0.30 
  -6  -1  -4    0.83    0.32 
  -6  -1  -4    0.90    0.36 
  -6  -1  -4    0.77    0.30 
   6   1   4    0.79    0.39 
   6   1   4    0.42    0.32 
  -7  -1  -4   16.71    0.94 
  -7  -1  -4   15.85    0.93 
  -7  -1  -4   15.70    0.90 
   7   1   4   16.39    1.06 
  -8  -1  -4    1.20    0.50 
  -8  -1  -4    1.61    0.58 
  -8  -1  -4    0.88    0.47 
   8   1   4    3.80    0.77 
   6  -2  -4    0.08    0.52 
  -6   2   4   -0.22    0.51 
   5  -2  -4    7.50    0.62 
   5  -2  -4    6.30    0.75 
  -5   2   4    5.71    0.56 
  -5   2   4    8.80    0.86 
   4  -2  -4    0.36    0.31 
   4  -2  -4    1.57    0.41 
   4  -2  -4    0.97    0.33 
  -4   2   4    0.53    0.40 
  -4   2   4    1.03    0.37 
  -4   2   4    0.55    0.24 
   3  -2  -4   77.17    1.70 
   3  -2  -4   75.06    1.79 
  -3   2   4   75.78    1.60 
  -3   2   4   75.95    1.77 
  -3   2   4   76.25    2.04 
  -3   2   4   75.56    1.73 
   2  -2  -4   -0.04    0.17 
  -2   2   4   -0.04    0.12 
  -2   2   4    0.15    0.14 
  -2   2   4    0.07    0.15 
  -2   2   4    0.17    0.26 
   1  -2  -4   11.06    0.48 
   1  -2  -4   11.03    0.50 
  -1   2   4   11.17    0.45 
  -1   2   4   11.06    0.65 
   0  -2  -4   27.86    0.72 
   0  -2  -4   27.35    0.76 
   0   2   4   28.72    0.93 
  -1  -2  -4  114.53    2.13 
   1   2   4  120.03    2.32 
   1   2   4  120.68    2.15 
  -2  -2  -4    0.30    0.14 
   2   2   4    0.36    0.28 
  -3  -2  -4    0.12    0.11 
  -3  -2  -4    0.13    0.13 
  -3  -2  -4    0.05    0.12 
  -3  -2  -4    0.12    0.14 
  -3  -2  -4   -0.01    0.15 
  -4  -2  -4    2.53    0.31 
  -4  -2  -4    3.17    0.34 
  -4  -2  -4    2.69    0.33 
  -4  -2  -4    3.27    0.35 
   4   2   4    2.98    0.34 
   4   2   4    3.09    0.38 
  -5  -2  -4    7.48    0.50 
  -5  -2  -4    7.35    0.50 
  -5  -2  -4    7.35    0.52 
  -5  -2  -4    8.41    0.51 
   5   2   4    7.56    0.59 
   5   2   4    6.40    0.48 
  -6  -2  -4    2.58    0.42 
  -6  -2  -4    2.29    0.48 
  -6  -2  -4    2.68    0.47 
  -6  -2  -4    1.97    0.39 
   6   2   4    2.61    0.51 
  -7  -2  -4    2.00    0.44 
  -7  -2  -4    2.51    0.49 
  -7  -2  -4    1.96    0.48 
  -7  -2  -4    2.70    0.56 
   7   2   4    2.53    0.57 
  -8  -2  -4    1.71    0.53 
  -8  -2  -4    1.93    0.59 
  -8  -2  -4    1.62    0.51 
   8   2   4    0.76    0.55 
   5  -3  -4   -0.02    0.42 
  -5   3   4    0.15    0.38 
   4  -3  -4    0.58    0.38 
   4  -3  -4    1.09    0.36 
  -4   3   4    1.16    0.30 
  -4   3   4    0.72    0.33 
   3  -3  -4   11.63    0.67 
   3  -3  -4   13.40    0.68 
  -3   3   4   11.88    0.55 
  -3   3   4   12.20    0.65 
   2  -3  -4    5.36    0.44 
  -2   3   4    5.48    0.38 
  -2   3   4    6.08    0.65 
   1  -3  -4    9.29    0.49 
  -1   3   4    9.16    0.62 
   0  -3  -4    1.47    0.24 
   0   3   4    2.37    0.39 
  -1  -3  -4   15.22    0.56 
   1   3   4   15.48    0.70 
   1   3   4   15.52    0.57 
  -2  -3  -4   20.23    0.63 
   2   3   4   20.87    0.85 
  -3  -3  -4   11.86    0.46 
  -4  -3  -4    5.25    0.37 
   4   3   4    5.71    0.47 
  -5  -3  -4    0.17    0.20 
  -5  -3  -4   -0.06    0.22 
  -5  -3  -4    0.08    0.23 
   5   3   4    0.28    0.27 
  -6  -3  -4    3.72    0.49 
  -6  -3  -4    4.09    0.58 
  -6  -3  -4    4.15    0.52 
  -6  -3  -4    4.26    0.51 
   6   3   4    3.03    0.53 
  -7  -3  -4    0.13    0.36 
  -7  -3  -4    0.03    0.29 
  -7  -3  -4    0.11    0.40 
  -7  -3  -4   -0.10    0.32 
   7   3   4    0.78    0.41 
  -8  -3  -4    1.04    0.42 
  -8  -3  -4    0.19    0.42 
  -8  -3  -4    0.27    0.50 
   8   3   4    0.49    0.53 
   5  -4  -4    1.08    0.57 
  -5   4   4    0.60    0.44 
   4  -4  -4    0.22    0.40 
   4  -4  -4    0.63    0.36 
  -4   4   4    1.22    0.36 
   3  -4  -4    6.64    0.58 
   3  -4  -4    6.93    0.64 
  -3   4   4    7.98    0.48 
  -3   4   4    7.84    0.56 
   2  -4  -4    0.06    0.25 
  -2   4   4    0.11    0.17 
   1  -4  -4    2.96    0.37 
   0  -4  -4    6.53    0.44 
   0   4   4    6.05    0.44 
  -1  -4  -4   29.63    0.87 
   1   4   4   29.46    1.03 
   1   4   4   30.55    0.88 
  -2  -4  -4   23.96    0.73 
   2   4   4   24.39    0.96 
  -3  -4  -4   31.97    0.82 
  -4  -4  -4    0.23    0.15 
   4   4   4    0.34    0.23 
  -5  -4  -4    4.01    0.42 
  -5  -4  -4    4.05    0.44 
   5   4   4    4.71    0.56 
  -6  -4  -4    1.63    0.34 
  -6  -4  -4    1.95    0.41 
  -6  -4  -4    1.30    0.37 
   6   4   4    2.50    0.47 
  -7  -4  -4   -0.12    0.34 
  -7  -4  -4   -0.17    0.31 
  -7  -4  -4   -0.47    0.32 
  -7  -4  -4    0.54    0.39 
   7   4   4    0.27    0.39 
  -8  -4  -4    0.82    0.47 
  -8  -4  -4    0.77    0.42 
  -8  -4  -4    0.65    0.51 
  -8  -4  -4    0.69    0.48 
   8   4   4    1.78    0.63 
   4  -5  -4    0.25    0.45 
   4  -5  -4   -0.21    0.36 
   3  -5  -4    6.39    0.61 
   3  -5  -4    6.64    0.64 
   2  -5  -4   15.89    0.77 
   2  -5  -4   16.57    0.81 
   1  -5  -4    3.73    0.43 
   0  -5  -4    0.32    0.22 
   0   5   4    0.02    0.20 
  -1  -5  -4   -0.02    0.15 
   1   5   4    0.07    0.20 
  -2  -5  -4   14.68    0.60 
   2   5   4   13.72    0.80 
  -3  -5  -4    6.55    0.41 
  -4  -5  -4   -0.04    0.15 
   4   5   4    0.13    0.25 
  -5  -5  -4    0.08    0.20 
   5   5   4   -0.18    0.27 
  -6  -5  -4    4.28    0.56 
  -6  -5  -4    3.29    0.43 
   6   5   4    3.51    0.58 
  -7  -5  -4    1.85    0.50 
  -7  -5  -4    1.52    0.49 
  -7  -5  -4    1.97    0.44 
   7   5   4    1.00    0.48 
  -8  -5  -4    1.26    0.47 
  -8  -5  -4    0.65    0.56 
  -8  -5  -4    0.70    0.46 
   8   5   4   -0.03    0.47 
   4  -6  -4    1.46    0.55 
   4  -6  -4    1.07    0.50 
   3  -6  -4    0.50    0.41 
   3  -6  -4    0.74    0.41 
   2  -6  -4   19.59    0.96 
   1  -6  -4    1.56    0.36 
   0  -6  -4   13.87    0.72 
   0   6   4   13.86    0.70 
  -1  -6  -4   66.28    1.62 
   1   6   4   65.73    1.60 
  -2  -6  -4    4.68    0.45 
  -3  -6  -4   21.83    0.77 
  -4  -6  -4    2.14    0.29 
   5   6   4    3.71    0.54 
   6   6   4    1.56    0.46 
  -7  -6  -4   -0.54    0.37 
  -7  -6  -4    0.06    0.39 
   7   6   4    0.53    0.44 
   3  -7  -4    0.32    0.46 
   2  -7  -4    0.18    0.38 
   1  -7  -4    0.24    0.32 
  -1   7   4    0.30    0.33 
   0  -7  -4    5.02    0.56 
   0   7   4    5.52    0.57 
  -1  -7  -4   12.28    0.70 
   1   7   4   11.40    0.65 
  -2  -7  -4   19.12    0.81 
  -3  -7  -4    0.45    0.22 
  -4  -7  -4    0.69    0.25 
   5   7   4    0.22    0.32 
   6   7   4    1.05    0.44 
   7   7   4    0.74    0.49 
   2  -8  -4    0.85    0.47 
   1  -8  -4    3.19    0.59 
  -1   8   4    2.45    0.49 
   0  -8  -4    1.84    0.44 
   0   8   4    1.27    0.38 
  -1  -8  -4    2.63    0.45 
   1   8   4    2.84    0.43 
  -2  -8  -4    3.69    0.49 
  -3  -8  -4    2.05    0.39 
  -4  -8  -4    4.98    0.51 
   6   8   4    1.53    0.51 
   7   8   4    1.46    0.58 
   1  -9  -4    2.82    0.65 
  -1   9   4    1.82    0.49 
   0  -9  -4    0.40    0.40 
   0   9   4    0.44    0.32 
  -1  -9  -4    0.57    0.38 
   1   9   4    0.52    0.31 
  -2  -9  -4    2.35    0.47 
  -3  -9  -4    6.30    0.68 
  -4  -9  -4    1.84    0.55 
   0 -10  -4    5.49    0.80 
  -1 -10  -4    0.25    0.43 
  -2 -10  -4    6.70    0.71 
  -3 -10  -4   12.68    0.85 
   3  10  -5    7.58    0.91 
   2  10  -5    1.08    0.49 
   1  10  -5   -0.35    0.44 
   0  10  -5    6.30    0.78 
   4   9  -5    4.46    0.72 
  -4  -9   5    3.41    0.68 
   3   9  -5    2.30    0.58 
  -3  -9   5    1.58    0.59 
   2   9  -5    2.04    0.53 
   1   9  -5   -0.09    0.36 
   0   9  -5    2.47    0.52 
  -1   9  -5    0.84    0.41 
  -1   9  -5    0.43    0.38 
  -2   9  -5    3.07    0.59 
  -2   9  -5    3.35    0.61 
   5   8  -5    2.05    0.53 
  -5  -8   5    1.33    0.52 
   4   8  -5    0.05    0.35 
   4   8  -5    0.03    0.40 
  -4  -8   5   -0.38    0.39 
   3   8  -5   -0.33    0.39 
  -3  -8   5   -0.19    0.33 
   2   8  -5   11.00    0.82 
  -2  -8   5   10.95    0.80 
   1   8  -5   49.56    1.57 
  -1  -8   5   48.85    1.49 
   0   8  -5    2.01    0.41 
  -1   8  -5    3.57    0.53 
  -1   8  -5    2.96    0.50 
  -2   8  -5    5.68    0.63 
  -2   8  -5    6.09    0.68 
  -3   8  -5    4.35    0.61 
  -3   8  -5    5.95    0.72 
   5   7  -5    5.65    0.71 
  -5  -7   5    3.86    0.67 
   4   7  -5    1.55    0.45 
   4   7  -5    1.23    0.38 
  -4  -7   5    1.58    0.46 
   3   7  -5    3.55    0.54 
   3   7  -5    3.71    0.47 
  -3  -7   5    4.09    0.53 
   2   7  -5    2.29    0.46 
  -2  -7   5    2.98    0.49 
   1   7  -5    2.45    0.43 
  -1  -7   5    2.88    0.45 
   0   7  -5    3.33    0.48 
  -1   7  -5    1.21    0.35 
  -1   7  -5    1.45    0.36 
  -2   7  -5    0.63    0.34 
  -2   7  -5    2.20    0.43 
  -3   7  -5   -0.13    0.30 
  -3   7  -5   -0.15    0.28 
  -4   7  -5    0.12    0.34 
  -4   7  -5    0.04    0.33 
   4  -7   5   -0.11    0.44 
   6   6  -5   -0.43    0.42 
  -6  -6   5   -0.60    0.43 
  -6  -6   5   -0.13    0.43 
   5   6  -5    1.10    0.40 
  -5  -6   5   -0.02    0.45 
  -5  -6   5    0.33    0.40 
  -5  -6   5    0.95    0.48 
   4   6  -5    5.09    0.62 
  -4  -6   5    4.82    0.57 
  -4  -6   5    4.97    0.62 
   3   6  -5   11.70    0.72 
   3   6  -5   11.56    0.72 
  -3  -6   5   13.32    0.78 
   2   6  -5    2.14    0.42 
   2   6  -5    2.43    0.37 
  -2  -6   5    2.87    0.45 
   1   6  -5    1.87    0.35 
  -1  -6   5    2.30    0.41 
   0   6  -5    0.43    0.26 
  -1   6  -5   18.43    0.82 
  -1   6  -5   20.21    0.84 
  -2   6  -5    0.75    0.29 
  -2   6  -5    0.57    0.31 
  -3   6  -5    8.70    0.77 
  -3   6  -5    6.53    0.67 
  -4   6  -5    2.23    0.47 
   4  -6   5    1.72    0.49 
  -5   6  -5    1.03    0.47 
   5  -6   5    0.72    0.55 
   6   5  -5    0.12    0.42 
  -6  -5   5    0.47    0.41 
  -6  -5   5   -0.33    0.40 
  -6  -5   5   -0.52    0.41 
   5   5  -5    0.68    0.38 
  -5  -5   5    1.09    0.41 
  -5  -5   5    0.90    0.38 
  -5  -5   5    0.62    0.41 
   4   5  -5    0.52    0.33 
  -4  -5   5    0.11    0.33 
  -4  -5   5    0.57    0.33 
  -4  -5   5    0.56    0.32 
   3   5  -5   25.54    0.92 
   3   5  -5   26.17    0.99 
  -3  -5   5   25.11    1.02 
   2   5  -5   10.24    0.60 
  -2  -5   5    9.19    0.63 
   1   5  -5    0.57    0.21 
  -1  -5   5    1.30    0.32 
   0   5  -5    8.18    0.51 
  -1   5  -5    4.51    0.46 
  -1   5  -5    5.43    0.50 
  -2   5  -5    6.05    0.56 
  -3   5  -5    0.53    0.27 
   3  -5   5    0.05    0.26 
  -4   5  -5    6.65    0.65 
   4  -5   5    4.83    0.61 
  -5   5  -5    1.48    0.45 
   5  -5   5    1.37    0.53 
   6  -5   5   -0.21    0.55 
   6   4  -5    0.33    0.38 
  -6  -4   5    0.08    0.44 
  -6  -4   5    0.48    0.42 
  -6  -4   5    0.10    0.36 
   5   4  -5    0.47    0.32 
  -5  -4   5    0.80    0.38 
  -5  -4   5    1.15    0.40 
  -5  -4   5    0.21    0.33 
   4   4  -5   -0.14    0.26 
  -4  -4   5    0.29    0.30 
  -4  -4   5    0.16    0.27 
  -4  -4   5    0.01    0.26 
   3   4  -5    0.74    0.27 
   3   4  -5    0.11    0.23 
  -3  -4   5    0.34    0.27 
  -3  -4   5    0.01    0.26 
  -3  -4   5    0.33    0.25 
   2   4  -5   17.85    0.69 
  -2  -4   5   17.06    0.76 
  -2  -4   5   16.45    0.67 
   1   4  -5    4.01    0.39 
  -1  -4   5    4.55    0.46 
   0   4  -5   17.10    0.67 
  -1   4  -5    1.89    0.30 
  -1   4  -5    1.98    0.30 
  -2   4  -5    2.23    0.34 
   2  -4   5    2.75    0.36 
  -3   4  -5   17.83    0.76 
   3  -4   5   17.45    0.76 
   3  -4   5   18.20    0.76 
  -4   4  -5    0.22    0.25 
   4  -4   5   -0.11    0.29 
  -5   4  -5    1.56    0.42 
   5  -4   5    1.20    0.48 
  -6   4  -5    0.89    0.45 
   6  -4   5    1.17    0.48 
   6  -4   5    0.79    0.54 
   6   3  -5   -0.36    0.28 
  -6  -3   5    0.08    0.37 
  -6  -3   5    0.14    0.38 
   5   3  -5   -0.12    0.28 
  -5  -3   5    0.06    0.27 
  -5  -3   5   -0.03    0.34 
  -5  -3   5    0.53    0.34 
   4   3  -5   10.00    0.68 
  -4  -3   5   10.12    0.67 
  -4  -3   5   11.06    0.74 
  -4  -3   5   11.10    0.64 
   3   3  -5    0.69    0.23 
  -3  -3   5    0.51    0.27 
  -3  -3   5    0.28    0.24 
  -3  -3   5    0.29    0.24 
   2   3  -5    0.44    0.18 
  -2  -3   5   -0.11    0.16 
  -2  -3   5    0.19    0.18 
  -2  -3   5    0.16    0.20 
   1   3  -5   12.19    0.51 
  -1  -3   5   12.12    0.58 
  -1  -3   5   11.60    0.52 
  -1  -3   5   11.60    0.51 
   0   3  -5    9.09    0.45 
   0  -3   5    9.15    0.43 
  -1   3  -5    8.46    0.43 
   1  -3   5    8.23    0.42 
   1  -3   5    7.59    0.41 
  -2   3  -5    9.87    0.50 
   2  -3   5   10.73    0.50 
   2  -3   5    9.74    0.50 
  -3   3  -5   31.64    0.98 
   3  -3   5   31.80    0.99 
   3  -3   5   30.81    0.98 
  -4   3  -5   24.54    0.88 
  -4   3  -5   25.14    0.93 
   4  -3   5   25.33    0.95 
   4  -3   5   24.89    0.97 
  -5   3  -5    1.47    0.36 
   5  -3   5    0.87    0.41 
   5  -3   5    1.43    0.39 
  -6   3  -5    0.82    0.37 
   6  -3   5    0.21    0.45 
   6   2  -5    1.00    0.41 
  -6  -2   5    0.58    0.41 
  -6  -2   5    0.68    0.44 
   5   2  -5    1.23    0.38 
  -5  -2   5    1.22    0.36 
  -5  -2   5    1.29    0.35 
  -5  -2   5    1.00    0.40 
   4   2  -5    0.20    0.26 
   4   2  -5    0.33    0.25 
  -4  -2   5    0.53    0.26 
  -4  -2   5    0.34    0.31 
  -4  -2   5    0.43    0.30 
   3   2  -5    0.67    0.23 
  -3  -2   5    0.57    0.25 
  -3  -2   5    0.80    0.29 
  -3  -2   5    0.51    0.23 
  -2  -2   5   77.81    1.71 
  -2  -2   5   79.26    1.77 
  -2  -2   5   81.10    1.71 
   1   2  -5    9.83    0.41 
  -1  -2   5    9.25    0.45 
  -1  -2   5    9.00    0.47 
  -1  -2   5    9.00    0.50 
   0   2  -5    7.89    0.39 
   0   2  -5    7.88    0.39 
   0  -2   5    7.66    0.41 
   0  -2   5    7.88    0.40 
  -1   2  -5    2.48    0.27 
  -1   2  -5    2.24    0.26 
   1  -2   5    2.26    0.28 
   1  -2   5    2.50    0.29 
  -2   2  -5  197.75    3.41 
  -2   2  -5  196.85    3.40 
   2  -2   5  196.51    3.46 
   2  -2   5  200.94    3.44 
  -3   2  -5   22.14    0.75 
  -3   2  -5   21.56    0.74 
   3  -2   5   21.73    0.76 
   3  -2   5   21.62    0.79 
  -4   2  -5   16.27    0.69 
  -4   2  -5   15.70    0.70 
   4  -2   5   14.59    0.71 
   4  -2   5   15.39    0.74 
  -5   2  -5   30.75    1.07 
  -5   2  -5   30.02    1.05 
   5  -2   5   30.22    1.15 
   5  -2   5   29.96    1.10 
  -6   2  -5    0.32    0.31 
   6  -2   5   -0.91    0.37 
  -7   2  -5    0.09    0.48 
  -7   2  -5    0.20    0.36 
   7  -2   5   -0.28    0.49 
   6   1  -5    1.52    0.49 
  -6  -1   5    0.58    0.38 
  -6  -1   5    2.46    0.59 
   5   1  -5   -0.38    0.29 
   5   1  -5   -0.10    0.32 
  -5  -1   5    0.36    0.36 
  -5  -1   5    0.53    0.31 
   4   1  -5   34.75    1.16 
  -4  -1   5   34.88    1.23 
  -4  -1   5   33.18    1.11 
  -4  -1   5   35.66    1.18 
   3   1  -5    4.27    0.45 
  -3  -1   5    3.47    0.40 
  -3  -1   5    4.74    0.46 
  -3  -1   5    5.10    0.52 
  -2  -1   5    5.99    0.42 
  -2  -1   5    5.83    0.40 
  -2  -1   5    6.41    0.45 
  -1  -1   5    0.41    0.17 
  -1  -1   5    0.07    0.14 
  -1  -1   5    0.04    0.15 
  -1  -1   5    0.27    0.24 
   0   1  -5    9.88    0.44 
   0  -1   5   10.26    0.46 
   0  -1   5   10.35    0.45 
  -1   1  -5   53.29    1.17 
  -1   1  -5   54.14    1.11 
   1  -1   5   53.56    1.20 
   1  -1   5   54.72    1.18 
  -2   1  -5  125.48    2.31 
  -2   1  -5  123.83    2.24 
   2  -1   5  126.18    2.30 
   2  -1   5  125.30    2.33 
  -3   1  -5    0.54    0.21 
  -3   1  -5    0.86    0.19 
   3  -1   5    0.71    0.23 
   3  -1   5    0.85    0.24 
  -4   1  -5    5.05    0.39 
  -4   1  -5    5.15    0.48 
  -4   1  -5    4.25    0.42 
   4  -1   5    4.60    0.48 
   4  -1   5    4.31    0.45 
  -5   1  -5   -0.23    0.20 
  -5   1  -5    0.45    0.25 
  -5   1  -5   -0.07    0.21 
   5  -1   5    0.39    0.26 
   5  -1   5    0.40    0.29 
  -6   1  -5   18.05    0.85 
  -6   1  -5   16.11    0.87 
  -6   1  -5   16.55    0.95 
   6  -1   5   16.59    0.94 
  -7   1  -5    1.64    0.52 
  -7   1  -5    2.09    0.52 
   7  -1   5    2.19    0.56 
   6   0  -5   -0.05    0.38 
   6   0  -5   -0.32    0.50 
  -6   0   5    0.52    0.34 
  -6   0   5    0.53    0.52 
   5   0  -5    0.50    0.37 
   5   0  -5    1.62    0.46 
  -5   0   5    1.01    0.43 
  -5   0   5    0.84    0.35 
   4   0  -5    3.28    0.49 
   4   0  -5    3.22    0.50 
  -4   0   5    4.45    0.56 
  -4   0   5    3.67    0.48 
   3   0  -5    3.31    0.42 
   3   0  -5    3.65    0.35 
  -3   0   5    4.04    0.47 
  -3   0   5    3.39    0.42 
  -3   0   5    2.76    0.35 
   2   0  -5    5.15    0.38 
  -2   0   5    4.79    0.36 
  -2   0   5    4.85    0.40 
  -2   0   5    5.30    0.46 
  -1   0   5   25.12    0.92 
  -1   0   5   24.52    0.77 
  -1   0   5   25.68    0.77 
  -1   0   5   25.48    0.75 
   0   0  -5   41.90    0.99 
   0   0   5   41.32    1.14 
   0   0   5   41.49    0.97 
   0   0   5   41.79    1.01 
   0   0   5   41.46    0.96 
  -1   0  -5  134.81    2.39 
  -1   0  -5  130.34    2.22 
   1   0   5  135.94    2.40 
   1   0   5  136.35    2.39 
  -2   0  -5   68.04    1.33 
  -2   0  -5   69.37    1.44 
   2   0   5   68.99    1.45 
   2   0   5   70.15    1.43 
  -3   0  -5   16.35    0.56 
  -3   0  -5   15.59    0.61 
  -3   0  -5   16.19    0.61 
   3   0   5   16.98    0.63 
   3   0   5   16.43    0.60 
  -4   0  -5    1.66    0.29 
  -4   0  -5    1.92    0.29 
  -4   0  -5    1.88    0.30 
   4   0   5    2.23    0.36 
   4   0   5    2.00    0.31 
  -5   0  -5    3.69    0.45 
  -5   0  -5    3.28    0.43 
  -5   0  -5    3.77    0.47 
  -5   0  -5    2.48    0.37 
   5   0   5    4.30    0.51 
   5   0   5    3.49    0.47 
  -6   0  -5   -0.04    0.30 
  -6   0  -5    0.82    0.31 
  -6   0  -5   -0.11    0.26 
   6   0   5    0.73    0.35 
   6   0   5   -0.30    0.36 
  -7   0  -5    3.37    0.58 
  -7   0  -5    4.31    0.62 
  -7   0  -5    3.59    0.64 
   7   0   5    3.61    0.59 
   7   0   5    4.07    0.72 
   6  -1  -5    2.74    0.66 
   5  -1  -5    0.60    0.41 
   5  -1  -5    0.10    0.34 
  -5   1   5    0.36    0.41 
  -5   1   5    0.27    0.29 
   4  -1  -5    7.59    0.62 
   4  -1  -5    5.78    0.64 
   4  -1  -5    6.20    0.63 
  -4   1   5    7.69    0.50 
  -4   1   5    6.66    0.66 
  -4   1   5    6.81    0.62 
   3  -1  -5    0.74    0.29 
   3  -1  -5    0.58    0.30 
  -3   1   5    0.72    0.27 
  -3   1   5    1.05    0.30 
   2  -1  -5    4.49    0.39 
  -2   1   5    4.80    0.44 
  -2   1   5    4.59    0.43 
  -2   1   5    3.91    0.49 
  -2   1   5    4.31    0.34 
   1  -1  -5    5.93    0.41 
  -1   1   5    5.16    0.53 
  -1   1   5    5.35    0.35 
  -1   1   5    5.25    0.33 
  -1   1   5    5.41    0.37 
   0  -1  -5    1.01    0.20 
   0  -1  -5    0.98    0.23 
   0   1   5    0.80    0.23 
   0   1   5    0.89    0.19 
   0   1   5    0.88    0.28 
   0   1   5    0.96    0.20 
  -1  -1  -5    0.58    0.19 
  -1  -1  -5    1.32    0.21 
   1   1   5    0.97    0.20 
   1   1   5    1.43    0.23 
   1   1   5    1.45    0.31 
  -2  -1  -5    1.13    0.21 
   2   1   5    0.91    0.20 
   2   1   5    1.04    0.31 
  -3  -1  -5   19.83    0.66 
  -3  -1  -5   18.60    0.65 
  -3  -1  -5   19.82    0.59 
   3   1   5   19.51    0.66 
   3   1   5   19.41    0.62 
  -4  -1  -5    2.54    0.34 
  -4  -1  -5    2.52    0.31 
  -4  -1  -5    2.97    0.36 
   4   1   5    2.74    0.37 
   4   1   5    3.26    0.33 
  -5  -1  -5    0.65    0.26 
  -5  -1  -5   -0.07    0.19 
  -5  -1  -5    0.00    0.20 
  -5  -1  -5   -0.33    0.19 
   5   1   5    0.35    0.27 
   5   1   5    0.00    0.28 
  -6  -1  -5    1.65    0.43 
  -6  -1  -5    1.12    0.37 
  -6  -1  -5    1.56    0.38 
  -6  -1  -5    1.47    0.37 
   6   1   5    1.90    0.42 
   6   1   5    1.20    0.43 
  -7  -1  -5    0.50    0.42 
  -7  -1  -5    0.54    0.35 
  -7  -1  -5    0.49    0.36 
   7   1   5    0.89    0.50 
  -8  -1  -5    0.58    0.53 
  -8  -1  -5    1.09    0.49 
  -8  -1  -5    1.25    0.55 
   8   1   5    1.28    0.63 
   5  -2  -5    3.44    0.56 
   5  -2  -5    2.63    0.57 
  -5   2   5    3.22    0.61 
  -5   2   5    4.04    0.78 
   4  -2  -5    1.89    0.39 
   4  -2  -5    1.54    0.42 
   4  -2  -5    0.89    0.37 
  -4   2   5    1.98    0.41 
  -4   2   5    1.24    0.52 
  -4   2   5    1.13    0.30 
   3  -2  -5    2.73    0.39 
   3  -2  -5    1.79    0.38 
  -3   2   5    1.91    0.45 
  -3   2   5    1.99    0.32 
  -3   2   5    1.81    0.36 
  -3   2   5    1.49    0.27 
   2  -2  -5   36.41    1.05 
  -2   2   5   36.08    1.03 
  -2   2   5   36.03    1.02 
  -2   2   5   35.43    1.31 
   1  -2  -5    5.64    0.42 
  -1   2   5    5.65    0.36 
  -1   2   5    5.75    0.57 
   0  -2  -5    0.08    0.16 
   0  -2  -5    0.02    0.14 
   0  -2  -5    0.01    0.15 
   0   2   5    0.01    0.18 
   0   2   5    0.05    0.25 
   0   2   5    0.11    0.11 
  -1  -2  -5   40.28    0.99 
  -1  -2  -5   39.48    0.93 
   1   2   5   39.44    1.00 
   1   2   5   39.28    1.16 
  -2  -2  -5   16.99    0.56 
  -2  -2  -5   15.84    0.55 
   2   2   5   16.67    0.77 
  -3  -2  -5    0.24    0.12 
  -3  -2  -5    0.24    0.19 
  -3  -2  -5    0.00    0.13 
  -3  -2  -5    0.12    0.15 
  -4  -2  -5    3.14    0.33 
  -4  -2  -5    3.96    0.39 
  -4  -2  -5    4.29    0.41 
  -4  -2  -5    3.11    0.37 
   4   2   5    3.42    0.36 
  -5  -2  -5    0.05    0.22 
  -5  -2  -5   -0.19    0.20 
  -5  -2  -5    0.24    0.24 
  -5  -2  -5    0.21    0.22 
   5   2   5   -0.01    0.23 
   5   2   5   -0.05    0.29 
  -6  -2  -5   19.65    0.91 
  -6  -2  -5   21.23    0.91 
  -6  -2  -5   20.59    0.89 
  -6  -2  -5   20.34    0.93 
   6   2   5   21.80    1.06 
  -7  -2  -5   16.30    0.95 
  -7  -2  -5   13.66    0.85 
  -7  -2  -5   16.17    0.94 
  -7  -2  -5   14.56    0.87 
   7   2   5   14.62    1.04 
  -8  -2  -5   -0.41    0.40 
  -8  -2  -5    0.62    0.52 
  -8  -2  -5    0.37    0.40 
   8   2   5    0.16    0.54 
   5  -3  -5    0.58    0.50 
  -5   3   5    0.48    0.67 
  -5   3   5   -0.81    0.41 
   4  -3  -5   11.98    0.80 
   4  -3  -5   12.24    0.84 
  -4   3   5   13.05    0.82 
   3  -3  -5    0.29    0.31 
   3  -3  -5    0.25    0.31 
  -3   3   5    0.73    0.28 
  -3   3   5    0.94    0.53 
   2  -3  -5    5.44    0.50 
  -2   3   5    7.28    0.75 
  -2   3   5    5.43    0.44 
   1  -3  -5   -0.15    0.20 
  -1   3   5    0.49    0.32 
  -1   3   5    0.32    0.16 
   0  -3  -5   14.07    0.61 
   0  -3  -5   14.51    0.55 
   0   3   5   14.67    0.64 
   0   3   5   14.18    0.78 
  -1  -3  -5   12.01    0.54 
   1   3   5   11.96    0.54 
   1   3   5   11.73    0.65 
  -2  -3  -5    0.62    0.20 
   2   3   5    0.85    0.32 
  -3  -3  -5   16.85    0.58 
  -4  -3  -5    2.95    0.32 
  -4  -3  -5    3.17    0.34 
  -5  -3  -5    0.29    0.24 
  -5  -3  -5    0.10    0.23 
  -5  -3  -5   -0.07    0.22 
  -5  -3  -5    0.11    0.20 
   5   3   5    0.10    0.28 
  -6  -3  -5    1.24    0.34 
  -6  -3  -5    1.16    0.38 
  -6  -3  -5    0.70    0.31 
  -6  -3  -5    1.15    0.35 
   6   3   5    1.29    0.45 
  -7  -3  -5   23.74    1.08 
  -7  -3  -5   23.99    1.07 
  -7  -3  -5   21.20    1.03 
  -7  -3  -5   21.26    1.05 
   7   3   5   21.47    1.18 
  -8  -3  -5    0.29    0.42 
  -8  -3  -5    0.11    0.37 
  -8  -3  -5    0.04    0.47 
   8   3   5   -0.43    0.50 
   4  -4  -5    3.07    0.54 
   4  -4  -5    1.64    0.48 
  -4   4   5    3.74    0.82 
  -4   4   5    1.98    0.45 
   3  -4  -5    0.44    0.35 
   3  -4  -5   -0.27    0.31 
  -3   4   5   -0.37    0.49 
  -3   4   5    0.08    0.24 
   2  -4  -5    0.69    0.33 
  -2   4   5    0.93    0.46 
  -2   4   5    1.00    0.25 
   1  -4  -5    5.27    0.51 
  -1   4   5    4.24    0.57 
   0  -4  -5    5.15    0.47 
   0   4   5    5.64    0.63 
   0   4   5    5.57    0.51 
  -1  -4  -5    0.45    0.21 
   1   4   5    0.24    0.21 
   1   4   5    1.29    0.34 
  -2  -4  -5    4.83    0.39 
   2   4   5    5.78    0.62 
  -3  -4  -5   55.29    1.25 
  -5  -4  -5   11.10    0.58 
  -5  -4  -5   10.12    0.59 
   5   4   5    9.63    0.72 
  -6  -4  -5    6.87    0.58 
  -6  -4  -5    7.66    0.59 
  -6  -4  -5    8.32    0.62 
  -6  -4  -5    7.50    0.60 
   6   4   5    7.38    0.78 
  -7  -4  -5    0.09    0.31 
  -7  -4  -5    0.12    0.34 
  -7  -4  -5   -0.02    0.33 
  -7  -4  -5    0.04    0.36 
   7   4   5    0.44    0.44 
  -8  -4  -5    0.08    0.48 
  -8  -4  -5    0.44    0.47 
  -8  -4  -5   -0.15    0.42 
  -8  -4  -5    0.38    0.46 
   8   4   5    0.95    0.57 
   4  -5  -5    2.76    0.61 
   4  -5  -5    3.23    0.58 
   3  -5  -5   -0.25    0.36 
   3  -5  -5    0.24    0.36 
   2  -5  -5   -0.03    0.28 
   1  -5  -5    0.48    0.27 
   0  -5  -5    1.33    0.33 
   0   5   5    1.92    0.37 
  -1  -5  -5    0.17    0.21 
   1   5   5    0.22    0.34 
   1   5   5    0.55    0.26 
  -2  -5  -5    1.44    0.30 
   2   5   5    1.25    0.44 
  -3  -5  -5    0.14    0.19 
  -6  -5  -5    5.21    0.54 
  -6  -5  -5    6.70    0.62 
  -6  -5  -5    6.52    0.66 
   6   5   5    5.51    0.71 
  -7  -5  -5    0.08    0.40 
  -7  -5  -5    0.14    0.33 
  -7  -5  -5   -0.10    0.36 
   7   5   5    0.04    0.48 
  -8  -5  -5    2.14    0.56 
  -8  -5  -5    3.28    0.66 
  -8  -5  -5    2.39    0.58 
   8   5   5    3.13    0.79 
   3  -6  -5    2.81    0.57 
   3  -6  -5    2.48    0.55 
   2  -6  -5    0.45    0.37 
   1  -6  -5    0.98    0.32 
   0  -6  -5    5.13    0.54 
   0   6   5    4.26    0.50 
  -1  -6  -5   13.93    0.73 
   1   6   5   13.88    0.72 
  -2  -6  -5   11.64    0.64 
   2   6   5   10.79    0.84 
  -3  -6  -5    0.23    0.23 
  -4  -6  -5    8.15    0.50 
   6   6   5    0.50    0.44 
  -7  -6  -5   -0.07    0.40 
  -7  -6  -5   -0.43    0.37 
   7   6   5    0.93    0.52 
   3  -7  -5    1.54    0.54 
   3  -7  -5    1.18    0.54 
   2  -7  -5    3.05    0.56 
   1  -7  -5    1.15    0.38 
  -1   7   5    1.08    0.38 
   0  -7  -5    0.10    0.30 
   0   7   5   -0.29    0.26 
  -1  -7  -5    0.68    0.31 
   1   7   5    0.77    0.33 
  -2  -7  -5    7.69    0.60 
  -3  -7  -5    7.03    0.61 
  -4  -7  -5    7.51    0.61 
   7   7   5    0.32    0.53 
   2  -8  -5   -0.08    0.49 
  -2   8   5    0.33    0.48 
   1  -8  -5    2.95    0.58 
  -1   8   5    2.68    0.54 
   0  -8  -5   -0.02    0.34 
   0   8   5    0.06    0.33 
  -1  -8  -5    0.77    0.35 
   1   8   5   -0.06    0.27 
  -2  -8  -5    0.27    0.32 
  -3  -8  -5    1.31    0.38 
  -4  -8  -5    1.12    0.36 
   1  -9  -5    0.25    0.54 
  -1   9   5    0.28    0.39 
   0  -9  -5    0.83    0.50 
   0   9   5    1.02    0.39 
  -1  -9  -5    0.80    0.42 
   1   9   5    0.23    0.36 
  -2  -9  -5    1.32    0.45 
  -3  -9  -5    0.75    0.39 
  -4  -9  -5   -0.20    0.31 
  -1 -10  -5    2.93    0.63 
  -2 -10  -5   -0.11    0.43 
  -3 -10  -5   -0.36    0.34 
   2  10  -6    0.51    0.52 
   1  10  -6   -0.42    0.48 
   3   9  -6    5.56    0.77 
  -3  -9   6    5.06    0.67 
   2   9  -6   -0.38    0.40 
  -2  -9   6    0.04    0.40 
   1   9  -6    0.27    0.39 
  -1  -9   6   -0.40    0.38 
   0   9  -6    1.09    0.45 
  -1   9  -6    7.99    0.84 
  -2   9  -6    1.08    0.47 
  -2   9  -6    1.40    0.50 
   4   8  -6   -0.14    0.42 
   4   8  -6    0.43    0.34 
  -4  -8   6   -0.35    0.44 
   3   8  -6    2.44    0.46 
   3   8  -6    1.34    0.49 
  -3  -8   6    2.42    0.48 
   2   8  -6    0.48    0.42 
  -2  -8   6    0.88    0.41 
   1   8  -6    1.09    0.41 
  -1  -8   6    0.73    0.38 
   0   8  -6    0.04    0.28 
  -1   8  -6    1.90    0.45 
  -1   8  -6    2.00    0.46 
  -2   8  -6    1.02    0.41 
  -2   8  -6    1.39    0.44 
  -3   8  -6    0.54    0.39 
  -3   8  -6    0.27    0.39 
   5   7  -6   -0.18    0.38 
  -5  -7   6    0.25    0.50 
  -5  -7   6   -0.68    0.44 
   4   7  -6    0.03    0.38 
   4   7  -6   -0.38    0.39 
  -4  -7   6    0.30    0.44 
   3   7  -6    0.48    0.40 
   3   7  -6    0.32    0.34 
  -3  -7   6    0.43    0.36 
   2   7  -6   10.40    0.83 
  -2  -7   6    6.54    0.69 
   1   7  -6    0.41    0.33 
  -1  -7   6    0.47    0.35 
   0   7  -6    0.84    0.36 
  -1   7  -6   -0.02    0.26 
  -1   7  -6   -0.06    0.30 
  -2   7  -6    3.41    0.54 
  -2   7  -6    3.28    0.51 
  -3   7  -6    0.27    0.32 
  -3   7  -6    0.43    0.38 
  -4   7  -6    2.76    0.57 
  -4   7  -6    3.28    0.58 
   4  -7   6    3.40    0.63 
   5   6  -6    4.24    0.67 
  -5  -6   6    3.65    0.62 
  -5  -6   6    5.24    0.74 
  -5  -6   6    4.99    0.71 
   4   6  -6    1.12    0.42 
  -4  -6   6    1.16    0.45 
  -4  -6   6    0.98    0.43 
   3   6  -6    7.18    0.65 
   3   6  -6    7.04    0.66 
  -3  -6   6    9.14    0.72 
  -3  -6   6    6.68    0.64 
   2   6  -6   17.26    0.86 
  -2  -6   6   17.22    0.91 
   1   6  -6    2.36    0.41 
  -1  -6   6    2.10    0.43 
   0   6  -6    1.94    0.37 
  -1   6  -6   -0.07    0.26 
  -1   6  -6   -0.05    0.23 
  -2   6  -6    7.35    0.60 
  -2   6  -6    6.77    0.63 
  -3   6  -6    1.24    0.37 
  -3   6  -6    2.18    0.45 
   3  -6   6    1.31    0.43 
  -4   6  -6    0.21    0.31 
   4  -6   6   -0.34    0.39 
   4  -6   6    0.64    0.41 
  -5   6  -6   -0.27    0.40 
   5  -6   6    0.25    0.50 
   5   5  -6    2.71    0.54 
  -5  -5   6    1.25    0.52 
  -5  -5   6    1.49    0.45 
  -5  -5   6    2.01    0.53 
   4   5  -6    2.67    0.54 
  -4  -5   6    2.69    0.48 
  -4  -5   6    2.65    0.51 
  -4  -5   6    3.39    0.54 
   3   5  -6    2.09    0.39 
   3   5  -6    2.01    0.39 
  -3  -5   6    2.09    0.38 
  -3  -5   6    2.02    0.43 
  -3  -5   6    1.47    0.39 
   2   5  -6    2.77    0.41 
  -2  -5   6    2.87    0.40 
  -2  -5   6    2.36    0.44 
   1   5  -6   19.52    0.81 
  -1  -5   6   19.72    0.87 
  -1  -5   6   18.99    0.77 
   0   5  -6   28.45    0.98 
  -1   5  -6    3.70    0.45 
  -1   5  -6    2.21    0.37 
  -2   5  -6    7.19    0.64 
   2  -5   6    6.63    0.54 
  -3   5  -6   -0.05    0.24 
   3  -5   6    0.11    0.28 
   3  -5   6    0.45    0.29 
  -4   5  -6    3.82    0.55 
   4  -5   6    3.05    0.54 
   4  -5   6    3.20    0.52 
  -5   5  -6    8.45    0.81 
   5  -5   6    6.90    0.82 
   5  -5   6    5.89    0.71 
   6   4  -6    4.55    0.71 
  -6  -4   6    3.60    0.70 
  -6  -4   6    4.65    0.72 
   5   4  -6    0.99    0.43 
  -5  -4   6    0.29    0.36 
  -5  -4   6    0.44    0.42 
  -5  -4   6    0.63    0.37 
   4   4  -6    0.38    0.31 
  -4  -4   6    0.32    0.31 
  -4  -4   6    0.25    0.35 
  -4  -4   6    0.02    0.33 
   3   4  -6   12.65    0.63 
  -3  -4   6   12.81    0.79 
  -3  -4   6   12.97    0.71 
  -3  -4   6   13.36    0.74 
   2   4  -6    4.88    0.46 
  -2  -4   6    4.94    0.54 
  -2  -4   6    6.03    0.48 
  -2  -4   6    4.95    0.49 
   1   4  -6    0.19    0.21 
  -1  -4   6   -0.04    0.22 
  -1  -4   6    0.01    0.20 
   0   4  -6   25.36    0.86 
   0  -4   6   26.01    0.83 
  -1   4  -6    0.14    0.22 
  -1   4  -6    0.35    0.21 
   1  -4   6    0.19    0.21 
  -2   4  -6    0.15    0.22 
   2  -4   6    0.46    0.24 
  -3   4  -6    0.85    0.30 
   3  -4   6    1.23    0.32 
   3  -4   6    1.14    0.34 
  -4   4  -6   13.08    0.73 
   4  -4   6   12.84    0.75 
   4  -4   6   12.76    0.78 
  -5   4  -6    3.43    0.56 
   5  -4   6    3.69    0.59 
   5  -4   6    4.65    0.65 
  -6   4  -6    0.68    0.42 
   6  -4   6    0.56    0.48 
   6   3  -6    0.36    0.41 
  -6  -3   6    1.14    0.48 
  -6  -3   6   -0.46    0.47 
   5   3  -6    0.06    0.36 
  -5  -3   6    0.44    0.41 
  -5  -3   6    0.40    0.32 
  -5  -3   6    0.19    0.36 
   4   3  -6    0.14    0.27 
  -4  -3   6    0.27    0.28 
  -4  -3   6    0.29    0.30 
  -4  -3   6    0.05    0.31 
   3   3  -6    3.28    0.51 
  -3  -3   6    3.70    0.48 
  -3  -3   6    3.80    0.46 
  -3  -3   6    4.10    0.48 
  -2  -3   6   39.05    1.11 
  -2  -3   6   41.08    1.16 
  -2  -3   6   39.73    1.23 
   1   3  -6   14.62    0.59 
  -1  -3   6   13.31    0.69 
  -1  -3   6   14.44    0.64 
  -1  -3   6   15.07    0.64 
   0   3  -6    1.72    0.28 
   0  -3   6    1.65    0.27 
   0  -3   6    1.71    0.28 
  -1   3  -6    1.54    0.27 
  -1   3  -6    1.13    0.23 
   1  -3   6    1.90    0.30 
   1  -3   6    1.27    0.25 
  -2   3  -6   15.40    0.62 
  -2   3  -6   15.41    0.65 
   2  -3   6   15.94    0.67 
   2  -3   6   15.60    0.66 
  -3   3  -6    3.18    0.39 
   3  -3   6    3.44    0.44 
   3  -3   6    2.97    0.44 
  -4   3  -6   16.43    0.92 
  -4   3  -6   14.96    0.74 
   4  -3   6   17.10    0.83 
   4  -3   6   17.24    0.79 
  -5   3  -6    4.86    0.57 
   5  -3   6    4.53    0.65 
   5  -3   6    5.08    0.58 
  -6   3  -6   -0.24    0.33 
   6  -3   6    0.20    0.42 
   6   2  -6    1.60    0.47 
  -6  -2   6    1.67    0.52 
  -6  -2   6    3.09    0.64 
   5   2  -6    0.11    0.36 
  -5  -2   6    0.42    0.36 
  -5  -2   6    1.29    0.43 
   4   2  -6    5.08    0.55 
   4   2  -6    4.62    0.58 
  -4  -2   6    5.01    0.56 
  -4  -2   6    5.88    0.62 
  -4  -2   6    5.38    0.61 
   3   2  -6   30.56    1.01 
  -3  -2   6   29.54    1.05 
  -3  -2   6   30.59    1.12 
  -3  -2   6   29.74    1.02 
  -2  -2   6    3.75    0.41 
  -2  -2   6    3.18    0.38 
  -2  -2   6    4.34    0.47 
  -1  -2   6    3.14    0.35 
  -1  -2   6    2.71    0.37 
  -1  -2   6    3.06    0.37 
   0   2  -6    3.92    0.33 
   0  -2   6    3.70    0.37 
   0  -2   6    3.72    0.38 
  -1   2  -6    0.31    0.17 
  -1   2  -6    0.38    0.18 
   1  -2   6    0.46    0.19 
   1  -2   6    0.30    0.18 
  -2   2  -6   37.27    0.99 
  -2   2  -6   37.88    1.02 
   2  -2   6   36.29    1.03 
   2  -2   6   37.60    1.02 
  -3   2  -6    2.33    0.34 
  -3   2  -6    2.49    0.35 
   3  -2   6    2.59    0.40 
   3  -2   6    2.14    0.34 
  -4   2  -6    2.91    0.38 
  -4   2  -6    4.39    0.47 
   4  -2   6    3.82    0.48 
   4  -2   6    2.47    0.44 
  -5   2  -6    2.36    0.42 
  -5   2  -6    1.81    0.38 
   5  -2   6    2.50    0.43 
   5  -2   6    2.68    0.48 
  -6   2  -6    0.04    0.29 
   6  -2   6    0.84    0.45 
  -7   2  -6    0.34    0.41 
   7  -2   6    0.48    0.50 
  -6  -1   6    4.15    0.65 
   5   1  -6    3.87    0.61 
   5   1  -6    4.47    0.82 
  -5  -1   6    4.22    0.56 
  -5  -1   6    3.60    0.62 
   4   1  -6    8.94    0.66 
   4   1  -6    8.19    0.67 
  -4  -1   6    8.24    0.64 
  -4  -1   6    8.14    0.69 
   3   1  -6    0.01    0.25 
  -3  -1   6    0.02    0.20 
  -3  -1   6    0.14    0.22 
  -3  -1   6    0.17    0.26 
  -2  -1   6    0.58    0.23 
  -2  -1   6    0.24    0.23 
  -2  -1   6    0.43    0.31 
  -2  -1   6    0.33    0.20 
  -1  -1   6    3.97    0.34 
  -1  -1   6    4.87    0.38 
  -1  -1   6    4.40    0.43 
  -1  -1   6    4.62    0.50 
   0   1  -6    0.18    0.17 
   0  -1   6    0.51    0.19 
   0  -1   6    0.19    0.19 
  -1   1  -6    1.29    0.25 
  -1   1  -6    1.15    0.20 
   1  -1   6    0.68    0.20 
   1  -1   6    0.88    0.22 
  -2   1  -6   10.63    0.45 
  -2   1  -6   10.71    0.52 
   2  -1   6   10.96    0.52 
   2  -1   6   11.49    0.54 
  -3   1  -6   24.69    0.78 
  -3   1  -6   24.57    0.82 
   3  -1   6   23.79    0.85 
   3  -1   6   24.34    0.81 
  -4   1  -6    0.94    0.23 
  -4   1  -6    1.10    0.30 
   4  -1   6    1.17    0.30 
   4  -1   6    1.31    0.33 
  -5   1  -6    3.23    0.44 
  -5   1  -6    4.37    0.52 
   5  -1   6    2.70    0.43 
   5  -1   6    3.12    0.50 
  -6   1  -6    3.31    0.51 
  -6   1  -6    2.55    0.47 
   6  -1   6    2.41    0.50 
  -7   1  -6    0.25    0.34 
   7  -1   6    0.79    0.45 
   5   0  -6    4.98    0.68 
   5   0  -6    3.93    0.62 
  -5   0   6    4.33    0.65 
  -5   0   6    4.86    0.62 
   4   0  -6    3.34    0.53 
   4   0  -6    3.60    0.53 
  -4   0   6    4.39    0.59 
  -4   0   6    2.67    0.43 
   3   0  -6   32.17    1.11 
  -3   0   6   30.61    1.07 
  -3   0   6   30.78    1.11 
  -3   0   6   29.60    1.30 
  -2   0   6    1.27    0.37 
  -2   0   6    1.72    0.33 
  -2   0   6    1.10    0.24 
  -2   0   6    1.52    0.30 
  -1   0   6    1.87    0.40 
  -1   0   6    1.53    0.27 
  -1   0   6    1.70    0.27 
  -1   0   6    1.88    0.29 
   0   0  -6    1.42    0.26 
   0   0   6    1.23    0.21 
   0   0   6    1.28    0.25 
   0   0   6    1.00    0.23 
   0   0   6    1.50    0.26 
   0   0   6    1.39    0.33 
  -1   0  -6   29.66    0.84 
   1   0   6   29.05    0.85 
   1   0   6   29.38    0.80 
   1   0   6   30.44    0.84 
  -2   0  -6   19.49    0.68 
  -2   0  -6   19.77    0.57 
   2   0   6   18.86    0.66 
   2   0   6   20.76    0.70 
  -3   0  -6    0.82    0.23 
  -3   0  -6    0.57    0.17 
   3   0   6    0.60    0.21 
   3   0   6    0.46    0.21 
  -4   0  -6    0.23    0.17 
  -4   0  -6    0.07    0.18 
  -4   0  -6    0.11    0.22 
   4   0   6   -0.23    0.22 
   4   0   6    0.31    0.19 
  -5   0  -6    2.04    0.35 
  -5   0  -6    2.01    0.37 
  -5   0  -6    1.81    0.37 
   5   0   6    2.23    0.43 
  -6   0  -6    0.88    0.33 
  -6   0  -6    0.60    0.36 
   6   0   6    0.06    0.36 
  -7   0  -6    1.02    0.39 
  -7   0  -6    0.23    0.41 
  -7   0  -6    0.76    0.46 
   7   0   6    0.42    0.54 
   5  -1  -6   -0.36    0.42 
   5  -1  -6   -0.33    0.35 
  -5   1   6    0.55    0.65 
  -5   1   6    0.25    0.43 
   4  -1  -6    1.47    0.40 
   4  -1  -6    2.37    0.49 
  -4   1   6    1.24    0.44 
  -4   1   6    2.32    0.40 
  -4   1   6    1.28    0.36 
  -4   1   6    1.65    0.57 
   3  -1  -6   16.41    0.74 
   3  -1  -6   17.65    0.86 
  -3   1   6   17.28    0.78 
  -3   1   6   17.40    1.03 
  -3   1   6   16.48    0.81 
   2  -1  -6    1.99    0.33 
  -2   1   6    1.73    0.47 
  -2   1   6    2.14    0.33 
  -2   1   6    2.08    0.34 
   1  -1  -6    3.14    0.36 
  -1   1   6    3.31    0.36 
  -1   1   6    2.92    0.48 
  -1   1   6    2.82    0.32 
   0  -1  -6   -0.03    0.16 
   0   1   6    0.13    0.15 
   0   1   6    0.27    0.17 
   0   1   6    0.16    0.28 
   0   1   6   -0.05    0.18 
  -1  -1  -6    0.36    0.17 
   1   1   6    0.10    0.15 
   1   1   6    0.16    0.19 
   1   1   6    0.28    0.14 
   1   1   6    0.03    0.26 
  -2  -1  -6    1.69    0.26 
   2   1   6    1.59    0.34 
   2   1   6    1.50    0.24 
  -3  -1  -6    0.33    0.14 
  -3  -1  -6    0.46    0.18 
   3   1   6    0.46    0.21 
  -4  -1  -6    3.70    0.42 
  -4  -1  -6    4.22    0.40 
  -4  -1  -6    4.26    0.45 
   4   1   6    5.49    0.49 
  -5  -1  -6   10.07    0.59 
  -5  -1  -6    9.84    0.61 
  -5  -1  -6    9.73    0.58 
   5   1   6    8.70    0.62 
  -6  -1  -6    0.85    0.34 
  -6  -1  -6    1.50    0.41 
  -6  -1  -6    1.66    0.37 
  -6  -1  -6    1.15    0.39 
   6   1   6    1.55    0.38 
  -7  -1  -6    0.89    0.40 
  -7  -1  -6    0.38    0.37 
  -7  -1  -6   -0.59    0.34 
  -8  -1  -6    1.12    0.50 
   5  -2  -6    2.97    0.56 
   5  -2  -6    4.96    0.77 
  -5   2   6    6.26    0.99 
  -5   2   6    4.65    0.72 
   4  -2  -6    0.20    0.32 
   4  -2  -6    1.35    0.48 
   4  -2  -6    0.11    0.36 
  -4   2   6    1.00    0.39 
  -4   2   6    0.38    0.53 
   3  -2  -6    5.55    0.63 
   3  -2  -6    5.03    0.53 
  -3   2   6    7.04    0.83 
  -3   2   6    7.33    0.66 
   2  -2  -6   45.05    1.27 
  -2   2   6   42.46    1.55 
  -2   2   6   46.30    1.26 
  -2   2   6   43.51    1.24 
   1  -2  -6    0.28    0.25 
  -1   2   6    0.54    0.20 
  -1   2   6    0.71    0.22 
  -1   2   6    0.20    0.34 
   0  -2  -6    0.51    0.21 
   0  -2  -6    0.50    0.24 
   0   2   6    0.64    0.26 
   0   2   6    0.31    0.30 
   0   2   6    0.70    0.18 
  -1  -2  -6    5.73    0.37 
  -1  -2  -6    5.69    0.43 
  -1  -2  -6    5.31    0.44 
   1   2   6    6.12    0.43 
   1   2   6    5.94    0.55 
   1   2   6    6.31    0.35 
  -2  -2  -6    1.92    0.28 
  -2  -2  -6    1.12    0.29 
   2   2   6    2.45    0.42 
  -3  -2  -6   28.42    0.72 
  -3  -2  -6   27.80    0.84 
  -3  -2  -6   28.97    0.86 
  -4  -2  -6    1.15    0.24 
  -4  -2  -6    0.73    0.23 
  -4  -2  -6    0.95    0.28 
   4   2   6    0.40    0.23 
  -5  -2  -6    3.37    0.43 
  -5  -2  -6    3.48    0.43 
  -5  -2  -6    3.22    0.43 
   5   2   6    2.96    0.41 
  -6  -2  -6    1.50    0.42 
  -6  -2  -6    2.33    0.45 
  -6  -2  -6    2.32    0.43 
  -6  -2  -6    2.73    0.45 
  -7  -2  -6    0.33    0.41 
  -7  -2  -6    0.02    0.33 
  -7  -2  -6    0.88    0.40 
  -7  -2  -6   -0.17    0.34 
  -8  -2  -6    0.39    0.49 
  -8  -2  -6    0.82    0.52 
  -8  -2  -6    0.15    0.45 
   4  -3  -6    0.45    0.43 
   4  -3  -6    1.27    0.44 
   4  -3  -6    0.08    0.37 
  -4   3   6    0.94    0.44 
  -4   3   6    0.30    0.64 
   3  -3  -6    1.09    0.40 
   3  -3  -6    1.47    0.40 
  -3   3   6    1.99    0.39 
  -3   3   6    1.15    0.57 
   2  -3  -6    0.43    0.31 
  -2   3   6    0.57    0.25 
  -2   3   6    0.05    0.44 
   1  -3  -6   15.49    0.74 
  -1   3   6   14.99    0.61 
  -1   3   6   15.41    0.91 
   0  -3  -6    3.61    0.39 
   0   3   6    5.23    0.49 
   0   3   6    4.56    0.57 
  -1  -3  -6   22.74    0.81 
  -1  -3  -6   22.34    0.71 
   1   3   6   21.90    0.95 
   1   3   6   21.78    0.80 
  -2  -3  -6   31.92    0.93 
  -2  -3  -6   32.72    0.89 
   2   3   6   33.26    1.17 
  -3  -3  -6    6.21    0.40 
   3   3   6    7.02    0.68 
  -4  -3  -6    0.29    0.16 
  -4  -3  -6    0.08    0.21 
  -4  -3  -6    0.25    0.21 
  -5  -3  -6    0.98    0.28 
  -5  -3  -6    0.20    0.23 
  -5  -3  -6    0.54    0.25 
  -6  -3  -6    0.83    0.34 
  -6  -3  -6    0.92    0.35 
  -6  -3  -6    0.67    0.32 
  -6  -3  -6    0.95    0.35 
  -7  -3  -6   39.66    1.40 
  -7  -3  -6   38.46    1.42 
  -7  -3  -6   41.94    1.40 
  -7  -3  -6   37.79    1.37 
  -8  -3  -6    8.00    0.90 
  -8  -3  -6    7.74    0.85 
  -8  -3  -6    7.67    0.90 
   4  -4  -6    0.17    0.43 
   4  -4  -6    0.07    0.42 
  -4   4   6   -0.47    0.41 
   3  -4  -6    3.56    0.56 
   3  -4  -6    4.20    0.57 
  -3   4   6    4.23    0.50 
  -3   4   6    3.92    0.79 
   2  -4  -6    9.21    0.70 
  -2   4   6    8.87    0.54 
  -2   4   6    9.50    0.90 
   1  -4  -6    8.06    0.65 
  -1   4   6    7.72    0.77 
   0  -4  -6    4.83    0.48 
   0   4   6    5.45    0.68 
   0   4   6    5.46    0.53 
  -1  -4  -6   28.57    0.96 
   1   4   6   27.30    1.11 
   1   4   6   28.53    0.96 
  -2  -4  -6    1.35    0.30 
   2   4   6    1.06    0.37 
  -3  -4  -6    0.49    0.21 
   3   4   6    0.13    0.35 
  -4  -4  -6    0.69    0.26 
  -4  -4  -6    0.84    0.21 
  -5  -4  -6    4.18    0.46 
  -5  -4  -6    3.54    0.41 
  -5  -4  -6    3.92    0.48 
  -6  -4  -6    4.20    0.54 
  -6  -4  -6    4.80    0.56 
  -6  -4  -6    4.66    0.58 
  -6  -4  -6    5.39    0.58 
  -7  -4  -6    0.96    0.41 
  -7  -4  -6    0.10    0.35 
  -7  -4  -6   -0.01    0.33 
  -7  -4  -6   -0.01    0.36 
  -8  -4  -6    0.14    0.44 
  -8  -4  -6    0.67    0.48 
  -8  -4  -6    0.47    0.45 
  -8  -4  -6   -0.28    0.51 
   8   4   6   -0.16    0.60 
   3  -5  -6    0.01    0.44 
   3  -5  -6    0.51    0.41 
   2  -5  -6   16.07    0.91 
   1  -5  -6    1.25    0.39 
  -1   5   6    1.96    0.55 
   0  -5  -6   23.05    0.96 
   0   5   6   24.10    0.97 
   0   5   6   22.85    1.13 
  -1  -5  -6   10.44    0.64 
   1   5   6    8.24    0.59 
   1   5   6    8.39    0.74 
  -2  -5  -6    4.44    0.45 
   2   5   6    4.28    0.61 
  -3  -5  -6   14.95    0.67 
  -6  -5  -6    5.15    0.60 
  -6  -5  -6    5.46    0.56 
  -7  -5  -6    7.69    0.80 
  -7  -5  -6    6.82    0.74 
  -7  -5  -6    6.23    0.69 
  -7  -5  -6    5.85    0.63 
   3  -6  -6    1.22    0.52 
   3  -6  -6    0.45    0.53 
   2  -6  -6   -0.43    0.38 
   1  -6  -6    7.68    0.69 
  -1   6   6    7.15    0.73 
   0  -6  -6    0.14    0.29 
   0   6   6    0.09    0.32 
   0   6   6    0.57    0.37 
  -1  -6  -6    3.43    0.50 
   1   6   6    2.29    0.43 
   1   6   6    3.21    0.57 
  -2  -6  -6   13.34    0.73 
   2   6   6   11.73    0.94 
  -3  -6  -6    4.99    0.50 
  -4  -6  -6   18.36    0.75 
  -7  -6  -6    1.38    0.43 
  -7  -6  -6    1.07    0.45 
   2  -7  -6   -0.14    0.46 
   1  -7  -6    3.20    0.59 
  -1   7   6    3.02    0.56 
   0  -7  -6    5.28    0.62 
   0   7   6    4.09    0.58 
  -1  -7  -6   -0.24    0.30 
   1   7   6    0.33    0.32 
  -2  -7  -6   -0.41    0.27 
   2   7   6   -0.59    0.47 
  -3  -7  -6    7.55    0.60 
  -4  -7  -6    0.26    0.25 
   1  -8  -6    0.70    0.53 
  -1   8   6    0.80    0.41 
   0  -8  -6    0.15    0.41 
   0   8   6    0.06    0.38 
  -1  -8  -6    8.00    0.80 
   1   8   6    6.43    0.66 
  -2  -8  -6    0.31    0.37 
  -3  -8  -6    0.81    0.37 
  -4  -8  -6    1.78    0.39 
   0  -9  -6    2.64    0.65 
   0   9   6    2.26    0.51 
  -1  -9  -6   -0.02    0.47 
   1   9   6    0.49    0.38 
  -2  -9  -6   -0.31    0.40 
  -3  -9  -6    1.04    0.46 
  -4  -9  -6    3.19    0.53 
  -2 -10  -6    3.36    0.67 
  -3 -10  -6    4.26    0.65 
  -4 -10  -6   -0.21    0.38 
   3   9  -7    1.74    0.66 
   2   9  -7    2.13    0.59 
  -2  -9   7    2.77    0.61 
   1   9  -7    2.58    0.57 
  -1  -9   7    1.94    0.54 
   0   9  -7   -0.41    0.40 
  -1   9  -7    0.66    0.46 
   4   8  -7   -0.41    0.47 
   4   8  -7   -0.68    0.39 
  -4  -8   7   -0.14    0.49 
   3   8  -7    0.88    0.43 
   3   8  -7    1.89    0.58 
  -3  -8   7    1.51    0.47 
   2   8  -7    1.63    0.49 
  -2  -8   7    0.98    0.47 
   1   8  -7    4.87    0.64 
  -1  -8   7    4.72    0.67 
   0   8  -7    2.04    0.50 
  -1   8  -7    0.32    0.39 
  -2   8  -7    1.07    0.46 
  -2   8  -7    1.10    0.46 
  -3   8  -7   -0.17    0.37 
  -3   8  -7    0.66    0.45 
   4   7  -7   -0.06    0.44 
   4   7  -7    0.59    0.46 
  -4  -7   7    0.22    0.46 
  -4  -7   7    0.23    0.49 
   3   7  -7    2.51    0.54 
   3   7  -7    2.25    0.50 
  -3  -7   7    1.72    0.49 
  -3  -7   7    2.49    0.49 
   2   7  -7    5.78    0.66 
  -2  -7   7    5.51    0.69 
   1   7  -7    6.67    0.68 
  -1  -7   7    4.96    0.59 
   0   7  -7    3.93    0.57 
  -1   7  -7    0.33    0.33 
  -1   7  -7    0.07    0.33 
  -2   7  -7    0.45    0.33 
  -2   7  -7   -0.21    0.32 
  -3   7  -7    0.09    0.35 
  -3   7  -7    0.30    0.37 
   3  -7   7    0.55    0.47 
  -4   7  -7    1.11    0.45 
  -4   7  -7    0.48    0.43 
   4  -7   7   -0.09    0.52 
   5   6  -7    2.30    0.60 
  -5  -6   7    1.88    0.62 
  -5  -6   7    2.24    0.61 
   4   6  -7    1.93    0.52 
  -4  -6   7    1.86    0.56 
  -4  -6   7    2.73    0.59 
  -4  -6   7    1.49    0.50 
   3   6  -7    3.57    0.54 
   3   6  -7    3.57    0.54 
  -3  -6   7    3.22    0.53 
  -3  -6   7    2.75    0.52 
   2   6  -7    6.26    0.63 
  -2  -6   7    4.70    0.64 
   1   6  -7   16.99    0.85 
  -1  -6   7   18.74    0.95 
   0   6  -7   11.33    0.73 
  -1   6  -7    0.06    0.30 
  -1   6  -7    0.12    0.26 
  -2   6  -7    8.50    0.67 
  -2   6  -7   11.10    0.74 
   2  -6   7    8.96    0.77 
  -3   6  -7    0.28    0.34 
  -3   6  -7    0.29    0.30 
   3  -6   7    0.17    0.35 
   3  -6   7    0.11    0.39 
  -4   6  -7    4.82    0.66 
   4  -6   7    5.60    0.72 
   4  -6   7    3.85    0.62 
  -5   6  -7    2.22    0.57 
   5  -6   7    3.05    0.70 
   5   5  -7    7.96    0.88 
  -5  -5   7    5.68    0.69 
  -5  -5   7    7.07    0.88 
  -5  -5   7    7.90    0.88 
   4   5  -7   -0.26    0.35 
  -4  -5   7    0.29    0.39 
  -4  -5   7    0.15    0.43 
  -4  -5   7    0.01    0.38 
   3   5  -7   -0.20    0.29 
  -3  -5   7   -0.18    0.31 
  -3  -5   7    0.26    0.36 
  -3  -5   7   -0.20    0.35 
   2   5  -7   11.59    0.69 
  -2  -5   7   11.66    0.79 
  -2  -5   7   11.28    0.69 
   1   5  -7    1.73    0.33 
  -1  -5   7    1.96    0.42 
  -1  -5   7    1.36    0.37 
   0   5  -7    4.77    0.51 
   0  -5   7    5.36    0.51 
  -1   5  -7    1.84    0.38 
  -1   5  -7    1.80    0.37 
   1  -5   7    2.14    0.39 
  -2   5  -7    6.65    0.61 
   2  -5   7    7.47    0.67 
   2  -5   7    6.55    0.57 
  -3   5  -7    1.32    0.39 
   3  -5   7    1.03    0.36 
   3  -5   7    0.70    0.39 
  -4   5  -7    0.43    0.35 
   4  -5   7   -0.12    0.35 
   4  -5   7    0.45    0.36 
  -5   5  -7    4.30    0.64 
   5  -5   7    3.76    0.69 
   5  -5   7    2.93    0.59 
   5   4  -7    0.84    0.45 
  -5  -4   7    0.07    0.43 
  -5  -4   7    0.43    0.45 
  -5  -4   7    0.00    0.41 
   4   4  -7    4.13    0.60 
  -4  -4   7    3.88    0.58 
  -4  -4   7    2.75    0.49 
  -4  -4   7    2.70    0.50 
  -3  -4   7    0.98    0.41 
  -3  -4   7    1.78    0.41 
  -3  -4   7    1.77    0.41 
   2   4  -7    0.15    0.26 
  -2  -4   7    0.12    0.26 
  -2  -4   7    0.19    0.25 
  -2  -4   7    0.47    0.35 
   1   4  -7   28.58    0.94 
  -1  -4   7   27.28    0.97 
  -1  -4   7   26.60    0.95 
  -1  -4   7   26.61    1.06 
   0   4  -7   27.67    0.93 
   0  -4   7   27.33    0.93 
   0  -4   7   26.84    0.93 
  -1   4  -7   15.32    0.72 
  -1   4  -7   16.30    0.72 
   1  -4   7   15.94    0.72 
   1  -4   7   14.70    0.71 
  -2   4  -7    9.37    0.60 
   2  -4   7   10.02    0.61 
   2  -4   7   10.54    0.61 
  -3   4  -7    0.76    0.31 
   3  -4   7    1.30    0.35 
   3  -4   7    0.72    0.34 
  -4   4  -7   -0.39    0.26 
   4  -4   7   -0.06    0.33 
   4  -4   7   -0.03    0.30 
  -5   4  -7    0.02    0.33 
   5  -4   7   -0.09    0.42 
   5  -4   7    0.00    0.38 
  -6   4  -7    3.03    0.59 
   6  -4   7    2.80    0.72 
   5   3  -7   -0.11    0.39 
  -5  -3   7    1.12    0.52 
  -5  -3   7    1.91    0.50 
   4   3  -7    0.06    0.29 
  -4  -3   7    0.81    0.37 
  -4  -3   7    0.06    0.28 
  -4  -3   7    0.11    0.38 
  -3  -3   7   15.42    0.87 
  -3  -3   7   15.56    0.83 
  -3  -3   7   15.34    0.80 
  -2  -3   7    5.33    0.54 
  -2  -3   7    7.02    0.63 
  -2  -3   7    6.69    0.52 
   1   3  -7    1.95    0.31 
  -1  -3   7    1.59    0.36 
  -1  -3   7    3.05    0.40 
  -1  -3   7    2.34    0.38 
   0   3  -7    8.67    0.51 
   0  -3   7    9.41    0.54 
   0  -3   7    9.25    0.55 
  -1   3  -7    2.24    0.34 
   1  -3   7    3.03    0.38 
   1  -3   7    2.56    0.35 
  -2   3  -7    1.98    0.34 
  -2   3  -7    1.98    0.32 
   2  -3   7    1.84    0.35 
   2  -3   7    2.35    0.37 
  -3   3  -7   11.99    0.66 
  -3   3  -7   13.93    0.69 
   3  -3   7   11.26    0.69 
   3  -3   7   13.29    0.70 
  -4   3  -7    6.78    0.62 
   4  -3   7    7.20    0.71 
   4  -3   7    6.44    0.64 
  -5   3  -7    1.33    0.39 
   5  -3   7    1.49    0.49 
   5  -3   7    1.15    0.40 
  -6   3  -7    1.37    0.45 
   6  -3   7    1.08    0.53 
   5   2  -7    0.71    0.46 
  -5  -2   7    1.17    0.48 
  -5  -2   7    0.42    0.40 
   4   2  -7   -0.47    0.26 
  -4  -2   7    0.24    0.35 
  -4  -2   7    0.26    0.40 
   3   2  -7   -0.06    0.26 
  -3  -2   7   -0.38    0.27 
  -3  -2   7    0.31    0.33 
  -3  -2   7    0.17    0.25 
  -2  -2   7   10.98    0.64 
  -2  -2   7   10.90    0.65 
  -2  -2   7   10.62    0.67 
  -2  -2   7   11.43    0.80 
  -1  -2   7  109.87    2.37 
  -1  -2   7  110.00    2.25 
  -1  -2   7  108.59    2.28 
   0   2  -7    0.76    0.22 
   0  -2   7    1.07    0.30 
   0  -2   7    0.36    0.25 
  -1   2  -7   23.05    0.74 
  -1   2  -7   24.15    0.80 
   1  -2   7   23.22    0.82 
   1  -2   7   23.08    0.81 
  -2   2  -7    0.16    0.19 
  -2   2  -7    0.11    0.23 
   2  -2   7    0.10    0.21 
   2  -2   7    0.10    0.21 
  -3   2  -7  107.34    2.22 
  -3   2  -7  111.91    2.28 
   3  -2   7  106.08    2.27 
   3  -2   7  108.46    2.33 
  -4   2  -7    9.27    0.59 
  -4   2  -7    9.47    0.62 
   4  -2   7    9.22    0.64 
   4  -2   7    9.14    0.68 
  -5   2  -7    5.29    0.59 
  -5   2  -7    5.06    0.56 
   5  -2   7    3.67    0.54 
   5  -2   7    5.60    0.67 
  -6   2  -7    1.99    0.46 
   6  -2   7    1.64    0.57 
  -7   2  -7    2.20    0.56 
   7  -2   7    2.02    0.68 
   5   1  -7   -0.57    0.36 
  -5  -1   7   -0.15    0.50 
  -5  -1   7    0.10    0.35 
   4   1  -7   -0.03    0.31 
   4   1  -7    0.06    0.31 
  -4  -1   7    0.18    0.36 
  -4  -1   7    0.38    0.35 
  -3  -1   7   20.92    0.92 
  -3  -1   7   22.56    1.00 
  -3  -1   7   18.47    0.88 
  -3  -1   7   21.94    1.14 
  -2  -1   7    8.82    0.75 
  -2  -1   7    8.47    0.54 
  -2  -1   7    7.95    0.59 
  -2  -1   7    8.21    0.57 
  -1  -1   7   10.83    0.55 
  -1  -1   7   10.63    0.76 
  -1  -1   7   10.13    0.61 
  -1  -1   7    9.55    0.56 
   0   1  -7    7.26    0.48 
   0  -1   7    8.23    0.44 
   0  -1   7    7.94    0.50 
   0  -1   7    7.79    0.48 
  -1   1  -7    3.50    0.38 
  -1   1  -7    2.82    0.29 
   1  -1   7    3.55    0.39 
   1  -1   7    3.26    0.38 
  -2   1  -7   11.94    0.50 
  -2   1  -7   11.89    0.58 
   2  -1   7   12.15    0.59 
   2  -1   7   12.06    0.58 
  -3   1  -7   11.75    0.55 
  -3   1  -7   10.73    0.60 
   3  -1   7   11.10    0.60 
   3  -1   7   12.34    0.63 
  -4   1  -7    7.76    0.53 
  -4   1  -7    7.64    0.55 
   4  -1   7    7.85    0.55 
   4  -1   7    8.04    0.62 
  -5   1  -7    2.83    0.45 
  -5   1  -7    2.64    0.43 
   5  -1   7    2.79    0.51 
  -6   1  -7    0.16    0.36 
  -6   1  -7   -0.28    0.30 
   6  -1   7    0.28    0.37 
  -7   1  -7    1.75    0.50 
   7  -1   7    2.93    0.65 
   5   0  -7    5.49    0.72 
   5   0  -7    5.11    0.74 
  -5   0   7    6.77    0.81 
  -5   0   7    8.52    1.11 
   4   0  -7    0.30    0.35 
   4   0  -7    0.61    0.35 
  -4   0   7    0.78    0.42 
  -4   0   7   -0.05    0.31 
  -4   0   7    0.28    0.52 
  -3   0   7   10.31    0.70 
  -3   0   7   11.46    0.91 
  -3   0   7   11.00    0.75 
  -2   0   7    1.75    0.30 
  -2   0   7    1.97    0.38 
  -2   0   7    2.40    0.40 
  -2   0   7    1.64    0.49 
  -1   0   7    4.53    0.38 
  -1   0   7    5.30    0.49 
  -1   0   7    4.48    0.59 
  -1   0   7    5.24    0.49 
   0   0  -7   10.52    0.54 
   0   0   7    8.86    0.52 
   0   0   7    9.58    0.70 
   0   0   7   10.44    0.49 
   0   0   7    9.78    0.53 
   0   0   7    9.78    0.52 
  -1   0  -7   34.91    1.01 
   1   0   7   36.38    1.04 
   1   0   7   36.39    1.00 
   1   0   7   36.94    1.22 
   1   0   7   36.47    0.96 
  -2   0  -7    3.97    0.41 
  -2   0  -7    3.35    0.29 
   2   0   7    3.19    0.35 
   2   0   7    3.32    0.38 
  -3   0  -7    0.44    0.25 
  -3   0  -7    0.77    0.20 
   3   0   7    0.54    0.22 
   3   0   7    0.93    0.27 
  -4   0  -7    0.24    0.25 
  -4   0  -7    0.47    0.21 
   4   0   7    0.39    0.28 
   4   0   7    0.29    0.23 
  -5   0  -7   11.94    0.72 
  -5   0  -7   12.26    0.66 
   5   0   7   13.41    0.78 
  -6   0  -7    2.08    0.47 
  -6   0  -7    1.65    0.39 
   6   0   7    2.75    0.53 
  -7   0  -7    0.47    0.46 
  -7   0  -7    0.31    0.36 
   5  -1  -7    3.09    0.69 
   5  -1  -7    2.69    0.63 
  -5   1   7    4.05    0.71 
  -5   1   7    5.54    0.98 
   4  -1  -7   -0.05    0.35 
   4  -1  -7    0.02    0.37 
  -4   1   7    0.68    0.54 
  -4   1   7   -0.49    0.39 
   3  -1  -7    1.68    0.39 
  -3   1   7    0.74    0.29 
  -3   1   7    1.34    0.39 
  -3   1   7    0.54    0.48 
   2  -1  -7    0.68    0.32 
  -2   1   7    0.29    0.29 
  -2   1   7    0.62    0.45 
  -2   1   7    0.62    0.25 
  -1   1   7    1.26    0.27 
  -1   1   7    0.80    0.26 
  -1   1   7    0.89    0.26 
  -1   1   7    0.83    0.42 
   0  -1  -7    2.10    0.32 
   0   1   7    1.54    0.32 
   0   1   7    1.41    0.41 
   0   1   7    1.63    0.28 
   0   1   7    1.61    0.29 
  -1  -1  -7    2.27    0.32 
   1   1   7    2.64    0.33 
   1   1   7    2.73    0.35 
   1   1   7    1.90    0.41 
  -2  -1  -7   18.27    0.70 
   2   1   7   17.08    0.67 
  -3  -1  -7   15.68    0.69 
  -3  -1  -7   16.25    0.56 
   3   1   7   15.81    0.68 
   3   1   7   16.67    0.88 
  -4  -1  -7   21.82    0.74 
  -4  -1  -7   22.74    0.86 
   4   1   7   21.59    0.84 
  -5  -1  -7    0.20    0.30 
  -5  -1  -7    0.19    0.25 
  -5  -1  -7   -0.17    0.22 
   5   1   7   -0.16    0.26 
  -6  -1  -7    0.29    0.33 
  -6  -1  -7    0.12    0.29 
  -6  -1  -7   -0.31    0.27 
   6   1   7   -0.06    0.41 
  -7  -1  -7    1.26    0.46 
  -7  -1  -7    0.09    0.38 
   4  -2  -7    0.43    0.39 
   4  -2  -7    0.09    0.37 
  -4   2   7    0.43    0.39 
  -4   2   7   -0.18    0.64 
   3  -2  -7   10.41    0.79 
   3  -2  -7   10.25    0.73 
  -3   2   7   11.11    1.04 
  -3   2   7   11.83    0.76 
   2  -2  -7   26.75    1.01 
  -2   2   7   27.21    1.32 
  -2   2   7   27.27    1.00 
  -2   2   7   26.67    1.06 
   1  -2  -7    8.12    0.59 
  -1   2   7    8.22    0.52 
  -1   2   7    8.54    0.77 
  -1   2   7    8.42    0.53 
   0  -2  -7    0.19    0.25 
   0   2   7    0.26    0.18 
   0   2   7   -0.06    0.24 
   0   2   7    0.36    0.20 
   0   2   7   -0.33    0.34 
  -1  -2  -7    6.16    0.43 
   1   2   7    7.21    0.66 
   1   2   7    7.25    0.42 
   1   2   7    6.37    0.49 
  -2  -2  -7   41.28    1.11 
   2   2   7   43.90    1.39 
   2   2   7   41.42    1.10 
  -3  -2  -7    6.54    0.47 
   3   2   7    7.09    0.73 
   3   2   7    6.21    0.42 
  -4  -2  -7    0.12    0.24 
  -4  -2  -7    0.26    0.19 
  -4  -2  -7    0.38    0.23 
   4   2   7    0.29    0.23 
  -5  -2  -7    6.00    0.59 
  -5  -2  -7    5.25    0.49 
  -5  -2  -7    4.68    0.51 
  -6  -2  -7    0.71    0.34 
  -6  -2  -7    0.45    0.33 
  -6  -2  -7    0.61    0.37 
  -7  -2  -7   25.52    1.13 
  -7  -2  -7   25.94    1.15 
   4  -3  -7    2.73    0.62 
   4  -3  -7    2.56    0.50 
   4  -3  -7    3.44    0.84 
  -4   3   7    4.05    0.93 
  -4   3   7    4.20    0.62 
   3  -3  -7    0.49    0.40 
   3  -3  -7    0.02    0.41 
  -3   3   7    0.48    0.65 
  -3   3   7    0.95    0.37 
   2  -3  -7    1.20    0.40 
  -2   3   7    1.28    0.53 
  -2   3   7    0.92    0.29 
   1  -3  -7    9.05    0.67 
  -1   3   7    8.07    0.52 
  -1   3   7    8.65    0.83 
   0  -3  -7    5.53    0.52 
   0   3   7    5.99    0.72 
   0   3   7    6.09    0.56 
  -1  -3  -7    0.60    0.26 
  -1  -3  -7    0.89    0.25 
   1   3   7    1.08    0.31 
   1   3   7    0.80    0.34 
  -2  -3  -7   44.73    1.15 
   2   3   7   43.74    1.46 
  -3  -3  -7   36.57    1.06 
   3   3   7   37.21    1.41 
  -4  -3  -7   15.83    0.58 
  -4  -3  -7   16.01    0.71 
  -4  -3  -7   15.13    0.70 
  -5  -3  -7    2.47    0.37 
  -5  -3  -7    2.77    0.43 
  -5  -3  -7    3.69    0.50 
  -6  -3  -7   -0.02    0.30 
  -6  -3  -7   -0.10    0.27 
  -6  -3  -7    0.04    0.33 
  -7  -3  -7    3.08    0.55 
  -7  -3  -7    2.74    0.52 
  -7  -3  -7    3.13    0.57 
  -8  -3  -7    5.52    0.76 
   4  -4  -7    0.85    0.54 
   4  -4  -7    0.31    0.50 
  -4   4   7   -0.03    0.75 
   3  -4  -7    1.15    0.48 
   3  -4  -7    1.10    0.44 
  -3   4   7    1.07    0.67 
   2  -4  -7    7.90    0.70 
  -2   4   7    8.63    0.98 
   1  -4  -7    1.42    0.39 
  -1   4   7    0.32    0.47 
   0  -4  -7    4.96    0.55 
   0   4   7    4.86    0.72 
   0   4   7    5.35    0.57 
  -1  -4  -7    0.73    0.31 
   1   4   7    1.24    0.36 
   1   4   7    1.81    0.42 
  -2  -4  -7   26.62    0.92 
   2   4   7   27.13    1.19 
  -3  -4  -7   10.04    0.56 
   3   4   7    9.06    0.89 
  -4  -4  -7    5.20    0.50 
  -5  -4  -7   -0.18    0.21 
  -5  -4  -7    0.07    0.28 
  -5  -4  -7    0.07    0.26 
  -6  -4  -7    0.50    0.29 
  -6  -4  -7    0.56    0.35 
  -6  -4  -7   -0.02    0.30 
  -7  -4  -7    1.86    0.47 
  -7  -4  -7    0.44    0.42 
  -7  -4  -7    1.84    0.46 
   3  -5  -7   -0.28    0.41 
   3  -5  -7    0.68    0.49 
   2  -5  -7    0.49    0.39 
  -2   5   7   -0.22    0.58 
   1  -5  -7    9.70    0.75 
  -1   5   7    9.50    1.03 
  -1   5   7   10.04    0.77 
   0  -5  -7    5.37    0.59 
   0   5   7    4.73    0.59 
   0   5   7    5.24    0.73 
  -1  -5  -7    0.47    0.30 
   1   5   7    0.37    0.32 
   1   5   7    0.82    0.41 
  -2  -5  -7    6.14    0.59 
   2   5   7    4.24    0.62 
  -3  -5  -7   10.18    0.61 
   3   5   7    9.88    0.89 
  -5  -5  -7    4.40    0.51 
  -6  -5  -7   19.35    0.91 
  -6  -5  -7   17.16    0.83 
  -6  -5  -7   20.75    0.93 
  -7  -5  -7    0.75    0.39 
  -7  -5  -7    0.11    0.43 
  -7  -5  -7    0.35    0.38 
   2  -6  -7   -0.40    0.44 
   1  -6  -7    4.38    0.64 
  -1   6   7    4.45    0.64 
  -1   6   7    4.33    0.86 
   0  -6  -7    8.63    0.76 
   0   6   7    9.34    0.81 
   0   6   7    9.09    0.88 
  -1  -6  -7   25.73    1.08 
   1   6   7   25.27    1.28 
   1   6   7   24.86    1.07 
  -2  -6  -7    8.76    0.74 
   2   6   7    8.66    0.91 
  -3  -6  -7    9.78    0.66 
   3   6   7    9.85    0.98 
  -4  -6  -7    0.20    0.26 
  -7  -6  -7    0.31    0.40 
   2  -7  -7    0.41    0.57 
  -2   7   7    0.14    0.51 
   1  -7  -7    3.09    0.62 
  -1   7   7    3.02    0.59 
   0  -7  -7   -0.14    0.40 
   0   7   7    0.03    0.37 
  -1  -7  -7    0.28    0.38 
   1   7   7    0.14    0.35 
  -2  -7  -7    6.99    0.72 
   2   7   7    6.80    0.91 
  -3  -7  -7   12.49    0.80 
  -4  -7  -7    0.93    0.32 
  -7  -7  -7    1.86    0.52 
   1  -8  -7    0.59    0.59 
  -1   8   7    0.21    0.43 
   0  -8  -7   -0.25    0.43 
   0   8   7    0.32    0.36 
  -1  -8  -7    2.44    0.56 
   1   8   7    1.64    0.46 
  -2  -8  -7    1.27    0.44 
   2   8   7    0.89    0.71 
  -3  -8  -7    0.63    0.40 
  -4  -8  -7    2.86    0.48 
  -1  -9  -7    0.19    0.51 
   1   9   7   -0.35    0.41 
  -2  -9  -7    1.58    0.55 
  -3  -9  -7    0.72    0.41 
  -4  -9  -7    0.51    0.40 
   1   9  -8    2.87    0.64 
  -1  -9   8    1.93    0.59 
   0   9  -8    2.71    0.68 
   3   8  -8   -0.32    0.50 
   3   8  -8   -0.40    0.41 
  -3  -8   8    0.63    0.49 
   2   8  -8    1.84    0.56 
  -2  -8   8    1.45    0.52 
   1   8  -8   -0.02    0.43 
  -1  -8   8    0.14    0.43 
   0   8  -8    0.21    0.40 
  -1   8  -8   -0.13    0.41 
  -2   8  -8   -0.07    0.40 
  -2   8  -8    0.02    0.46 
   3   7  -8    1.16    0.45 
   3   7  -8    1.16    0.50 
  -3  -7   8    2.45    0.56 
  -3  -7   8    0.98    0.52 
   2   7  -8   -0.23    0.38 
  -2  -7   8   -0.14    0.40 
   1   7  -8    0.65    0.41 
  -1  -7   8    0.18    0.44 
   0   7  -8   -0.06    0.38 
  -1   7  -8    3.13    0.56 
  -2   7  -8    1.01    0.42 
  -2   7  -8    0.73    0.44 
  -3   7  -8    0.37    0.45 
  -3   7  -8    0.33    0.39 
   3  -7   8    0.73    0.49 
   4   6  -8    8.25    0.87 
  -4  -6   8    7.71    0.87 
  -4  -6   8    7.08    0.85 
   3   6  -8    0.02    0.52 
   3   6  -8    0.51    0.38 
  -3  -6   8    0.86    0.42 
  -3  -6   8    0.21    0.43 
  -3  -6   8    0.62    0.42 
   2   6  -8    1.04    0.42 
  -2  -6   8    0.92    0.40 
  -2  -6   8    0.33    0.40 
  -2  -6   8    1.10    0.44 
   1   6  -8    2.87    0.50 
  -1  -6   8    2.30    0.53 
  -1  -6   8    2.82    0.50 
   0   6  -8    1.36    0.38 
   0  -6   8    0.80    0.37 
  -1   6  -8    0.22    0.33 
  -1   6  -8    0.16    0.30 
   1  -6   8    0.02    0.32 
  -2   6  -8   -0.20    0.31 
  -2   6  -8   -0.19    0.30 
   2  -6   8    0.01    0.37 
   2  -6   8    0.63    0.35 
  -3   6  -8    0.76    0.40 
  -3   6  -8   -0.27    0.31 
   3  -6   8    0.80    0.44 
   3  -6   8    0.23    0.45 
  -4   6  -8    5.53    0.72 
   4  -6   8    4.84    0.78 
   4  -6   8    3.19    0.66 
   4   5  -8    0.92    0.43 
  -4  -5   8    0.75    0.48 
  -4  -5   8    1.32    0.45 
  -4  -5   8    0.70    0.51 
  -3  -5   8    6.46    0.69 
  -3  -5   8    8.04    0.79 
  -3  -5   8    5.81    0.66 
   2   5  -8    9.53    0.66 
  -2  -5   8    8.68    0.69 
  -2  -5   8   10.37    0.81 
  -2  -5   8   10.42    0.71 
   1   5  -8    0.20    0.29 
  -1  -5   8    0.17    0.35 
  -1  -5   8   -0.31    0.31 
  -1  -5   8   -0.03    0.31 
   0   5  -8   15.67    0.79 
   0  -5   8   15.96    0.80 
   0  -5   8   14.57    0.76 
  -1   5  -8    9.14    0.65 
  -1   5  -8    9.08    0.67 
   1  -5   8    8.78    0.64 
   1  -5   8    7.93    0.64 
  -2   5  -8    4.38    0.57 
   2  -5   8    4.87    0.57 
   2  -5   8    5.45    0.63 
  -3   5  -8    0.77    0.37 
   3  -5   8    1.64    0.42 
   3  -5   8    1.66    0.45 
  -4   5  -8   -0.35    0.31 
   4  -5   8    0.11    0.44 
   4  -5   8    0.20    0.43 
  -5   5  -8    5.90    0.75 
   5  -5   8    4.60    0.76 
   5  -5   8    4.45    0.70 
  -5  -4   8    4.84    0.73 
   4   4  -8   -0.43    0.36 
  -4  -4   8   -0.43    0.38 
  -4  -4   8   -0.10    0.35 
  -4  -4   8   -0.04    0.41 
  -3  -4   8    0.08    0.34 
  -3  -4   8    0.09    0.37 
  -3  -4   8    0.37    0.37 
   2   4  -8   12.23    0.66 
  -2  -4   8   14.02    0.88 
  -2  -4   8   14.26    0.76 
  -2  -4   8   14.35    0.81 
   1   4  -8    2.61    0.38 
  -1  -4   8    2.16    0.41 
  -1  -4   8    2.43    0.46 
  -1  -4   8    3.58    0.52 
   0   4  -8    0.79    0.29 
   0  -4   8    0.39    0.30 
   0  -4   8    1.02    0.32 
  -1   4  -8   13.19    0.71 
  -1   4  -8   12.20    0.69 
   1  -4   8   12.69    0.70 
   1  -4   8   14.16    0.73 
  -2   4  -8    0.55    0.30 
   2  -4   8    0.97    0.32 
   2  -4   8   -0.13    0.27 
  -3   4  -8    0.91    0.34 
   3  -4   8    0.77    0.36 
   3  -4   8    0.97    0.35 
  -4   4  -8    2.82    0.49 
   4  -4   8    2.40    0.55 
   4  -4   8    2.34    0.50 
  -5   4  -8    1.39    0.47 
   5  -4   8    0.52    0.49 
   5  -4   8    1.13    0.48 
  -6   4  -8    0.36    0.45 
   6  -4   8   -0.28    0.56 
   5   3  -8   -0.67    0.40 
  -5  -3   8    0.24    0.50 
  -5  -3   8    0.23    0.47 
   4   3  -8    0.69    0.41 
  -4  -3   8    0.44    0.45 
  -4  -3   8    0.47    0.39 
  -3  -3   8    0.72    0.35 
  -3  -3   8    0.84    0.39 
  -3  -3   8    0.33    0.36 
  -3  -3   8    0.74    0.51 
  -2  -3   8    0.20    0.29 
  -2  -3   8   -0.21    0.26 
  -2  -3   8    0.04    0.29 
   1   3  -8    8.03    0.52 
  -1  -3   8    7.85    0.61 
  -1  -3   8    8.45    0.59 
  -1  -3   8    8.16    0.66 
   0   3  -8    0.08    0.25 
   0  -3   8    0.28    0.28 
   0  -3   8    0.09    0.27 
  -1   3  -8    0.64    0.27 
  -1   3  -8    0.41    0.26 
   1  -3   8    0.46    0.26 
   1  -3   8    0.09    0.27 
  -2   3  -8    0.69    0.29 
  -2   3  -8    0.89    0.29 
   2  -3   8    1.54    0.37 
   2  -3   8    0.90    0.33 
  -3   3  -8    1.94    0.37 
  -3   3  -8    3.66    0.58 
   3  -3   8    2.31    0.41 
   3  -3   8    2.15    0.41 
  -4   3  -8   -0.17    0.29 
   4  -3   8    0.27    0.33 
   4  -3   8    0.34    0.38 
  -5   3  -8   -0.01    0.33 
   5  -3   8    0.20    0.37 
   5  -3   8   -0.53    0.41 
  -6   3  -8    0.43    0.42 
   6  -3   8    0.60    0.61 
   5   2  -8   -0.04    0.37 
  -5  -2   8    0.39    0.45 
  -5  -2   8    0.38    0.54 
  -5  -2   8    1.41    0.73 
   4   2  -8    1.44    0.45 
  -4  -2   8    1.64    0.54 
  -4  -2   8    1.50    0.49 
  -4  -2   8    2.64    0.68 
   3   2  -8    0.02    0.34 
  -3  -2   8    0.85    0.49 
  -3  -2   8   -0.16    0.29 
  -3  -2   8    0.07    0.36 
  -3  -2   8   -0.19    0.27 
  -2  -2   8   14.34    0.99 
  -2  -2   8   15.55    0.83 
  -2  -2   8   15.27    0.81 
  -2  -2   8   14.36    0.76 
  -1  -2   8   -0.15    0.20 
  -1  -2   8    0.22    0.26 
  -1  -2   8   -0.32    0.25 
   0   2  -8    2.30    0.33 
   0  -2   8    2.00    0.38 
   0  -2   8    2.15    0.35 
  -1   2  -8    0.28    0.25 
  -1   2  -8    0.01    0.20 
   1  -2   8   -0.13    0.22 
   1  -2   8    0.10    0.23 
  -2   2  -8   -0.01    0.20 
  -2   2  -8    0.13    0.26 
   2  -2   8   -0.09    0.24 
   2  -2   8    0.11    0.26 
  -3   2  -8   12.38    0.69 
  -3   2  -8   12.46    0.65 
   3  -2   8   12.72    0.70 
   3  -2   8   12.23    0.72 
  -4   2  -8    0.14    0.28 
  -4   2  -8    0.22    0.28 
   4  -2   8    0.46    0.28 
   4  -2   8   -0.35    0.31 
  -5   2  -8    1.01    0.35 
  -5   2  -8    0.96    0.42 
   5  -2   8   -0.06    0.40 
  -6   2  -8    1.90    0.48 
   6  -2   8    1.78    0.61 
  -5  -1   8    5.64    0.95 
   4   1  -8    0.90    0.48 
  -4  -1   8    0.34    0.38 
  -4  -1   8   -0.24    0.47 
  -4  -1   8    0.88    0.57 
  -3  -1   8    7.17    0.83 
  -3  -1   8    7.31    0.74 
  -3  -1   8    7.98    0.67 
  -2  -1   8    3.92    0.53 
  -2  -1   8    3.78    0.49 
  -2  -1   8    3.89    0.67 
  -2  -1   8    2.44    0.39 
  -1  -1   8    1.82    0.40 
  -1  -1   8    1.54    0.52 
  -1  -1   8    0.46    0.27 
  -1  -1   8    1.28    0.34 
   0  -1   8    0.15    0.25 
   0  -1   8    0.37    0.23 
   0  -1   8    0.42    0.24 
   0  -1   8   -0.08    0.25 
  -1   1  -8    1.39    0.34 
   1  -1   8    1.46    0.31 
   1  -1   8    1.57    0.33 
  -2   1  -8   19.77    0.79 
  -2   1  -8   19.75    0.68 
   2  -1   8   19.81    0.78 
   2  -1   8   20.04    0.81 
  -3   1  -8    0.71    0.31 
  -3   1  -8    0.56    0.25 
   3  -1   8    1.00    0.29 
   3  -1   8    1.14    0.33 
  -4   1  -8   18.92    0.86 
  -4   1  -8   18.20    0.78 
   4  -1   8   18.88    0.89 
   4  -1   8   18.17    0.84 
  -5   1  -8    0.70    0.36 
  -5   1  -8    0.41    0.32 
   5  -1   8    1.03    0.43 
  -6   1  -8   -0.25    0.31 
  -6   1  -8    0.19    0.38 
   6  -1   8    0.33    0.47 
  -7   1  -8    0.27    0.42 
   7  -1   8   -0.30    0.54 
   4   0  -8    0.66    0.44 
   4   0  -8    0.19    0.36 
  -4   0   8    0.62    0.45 
  -4   0   8    0.94    0.61 
  -4   0   8    0.42    0.33 
  -3   0   8    0.28    0.52 
  -3   0   8    0.34    0.31 
  -3   0   8   -0.38    0.33 
  -2   0   8    1.34    0.38 
  -2   0   8    1.61    0.39 
  -2   0   8    2.17    0.57 
  -1   0   8   11.04    0.85 
  -1   0   8   11.65    0.66 
  -1   0   8    8.74    0.56 
  -1   0   8    9.95    0.64 
   0   0   8    0.28    0.25 
   0   0   8    0.48    0.25 
   0   0   8    0.18    0.37 
   0   0   8    0.15    0.20 
   0   0   8    0.30    0.26 
  -1   0  -8    0.09    0.23 
   1   0   8   -0.03    0.19 
   1   0   8    0.19    0.23 
   1   0   8    0.32    0.22 
  -2   0  -8    9.02    0.57 
   2   0   8    8.40    0.51 
   2   0   8    8.83    0.55 
  -3   0  -8    0.96    0.24 
  -3   0  -8    1.04    0.33 
   3   0   8    0.77    0.26 
   3   0   8    0.80    0.30 
  -4   0  -8    1.06    0.30 
  -4   0  -8    0.63    0.32 
   4   0   8    1.70    0.38 
  -5   0  -8    0.25    0.30 
  -5   0  -8    0.46    0.29 
   5   0   8    0.46    0.34 
  -6   0  -8    0.06    0.31 
  -6   0  -8    0.22    0.40 
   6   0   8   -0.19    0.39 
  -7   0  -8    0.63    0.44 
  -7   0  -8    0.16    0.47 
   4  -1  -8   -0.06    0.39 
   4  -1  -8    0.49    0.42 
  -4   1   8   -0.38    0.47 
  -4   1   8    0.55    0.66 
  -3   1   8    0.63    0.59 
  -3   1   8   -0.44    0.36 
  -2   1   8   16.44    0.86 
  -2   1   8   17.46    0.80 
  -2   1   8   15.95    1.12 
  -1   1   8    5.64    0.72 
  -1   1   8    5.26    0.52 
  -1   1   8    5.48    0.52 
   0   1   8    0.20    0.39 
   0   1   8   -0.01    0.22 
   0   1   8    0.48    0.29 
   0   1   8    0.35    0.24 
  -1  -1  -8    0.90    0.27 
   1   1   8    0.44    0.21 
   1   1   8    1.08    0.30 
   1   1   8    1.36    0.44 
   1   1   8    0.79    0.28 
  -2  -1  -8    0.38    0.26 
   2   1   8    0.58    0.25 
   2   1   8    0.78    0.39 
   2   1   8    0.56    0.26 
  -3  -1  -8    8.22    0.57 
   3   1   8    8.66    0.55 
  -4  -1  -8   -0.40    0.26 
  -4  -1  -8    0.36    0.21 
   4   1   8    0.30    0.26 
  -5  -1  -8    2.99    0.41 
  -5  -1  -8    3.43    0.51 
   5   1   8    3.47    0.51 
  -6  -1  -8    7.21    0.75 
  -6  -1  -8    7.01    0.63 
  -7  -1  -8    0.40    0.37 
  -7  -1  -8    0.68    0.46 
   4  -2  -8    1.40    0.54 
   4  -2  -8    0.40    0.44 
  -4   2   8    1.12    0.54 
  -4   2   8    1.11    0.77 
   3  -2  -8   10.50    0.79 
  -3   2   8   12.49    1.18 
  -3   2   8   10.69    0.78 
   2  -2  -8    7.71    0.66 
  -2   2   8    7.62    0.65 
  -2   2   8    7.62    0.89 
   1  -2  -8   11.98    0.73 
  -1   2   8   12.48    0.68 
  -1   2   8   11.53    0.92 
  -1   2   8   12.72    0.73 
   0   2   8    1.44    0.48 
   0   2   8    1.00    0.27 
   0   2   8    0.78    0.26 
   0   2   8    1.10    0.35 
  -1  -2  -8    2.78    0.37 
   1   2   8    3.00    0.36 
   1   2   8    3.15    0.39 
   1   2   8    3.72    0.46 
   1   2   8    2.73    0.55 
  -2  -2  -8    1.48    0.30 
   2   2   8    1.63    0.31 
   2   2   8    1.82    0.45 
  -3  -2  -8    5.24    0.50 
   3   2   8    5.43    0.69 
  -4  -2  -8   28.29    1.01 
  -4  -2  -8   28.38    0.82 
   4   2   8   27.15    0.96 
  -5  -2  -8    3.25    0.51 
  -5  -2  -8    2.26    0.42 
  -5  -2  -8    2.91    0.40 
  -6  -2  -8    2.30    0.48 
  -6  -2  -8    1.85    0.43 
  -6  -2  -8    3.20    0.57 
  -7  -2  -8    5.05    0.69 
  -7  -2  -8    5.95    0.76 
   3  -3  -8    0.63    0.48 
   3  -3  -8    2.05    0.50 
  -3   3   8    1.97    0.72 
  -3   3   8    0.88    0.44 
   2  -3  -8   18.01    0.95 
  -2   3   8   18.42    0.86 
  -2   3   8   17.32    1.21 
   1  -3  -8    1.58    0.42 
  -1   3   8    1.41    0.35 
  -1   3   8    1.54    0.54 
   0  -3  -8   12.36    0.72 
   0   3   8   11.50    0.74 
   0   3   8   11.93    0.98 
   0   3   8   11.08    0.58 
  -1  -3  -8    0.28    0.28 
  -1  -3  -8    0.05    0.23 
   1   3   8    0.73    0.40 
   1   3   8    0.44    0.33 
   1   3   8    0.21    0.21 
  -2  -3  -8   33.45    1.04 
   2   3   8   33.52    1.34 
  -3  -3  -8    5.32    0.52 
   3   3   8    5.33    0.73 
  -4  -3  -8   20.36    0.85 
  -5  -3  -8    1.94    0.40 
  -5  -3  -8    0.81    0.28 
  -5  -3  -8    0.43    0.32 
  -6  -3  -8    2.89    0.47 
  -6  -3  -8    2.31    0.48 
  -6  -3  -8    2.55    0.51 
  -7  -3  -8    2.39    0.58 
  -7  -3  -8    2.29    0.52 
  -7  -3  -8    1.56    0.49 
   3  -4  -8    4.23    0.65 
   3  -4  -8    3.35    0.65 
  -3   4   8    4.64    0.95 
   2  -4  -8    1.27    0.46 
  -2   4   8    2.24    0.74 
   1  -4  -8    4.34    0.58 
  -1   4   8    4.25    0.76 
  -1   4   8    5.13    0.65 
   0  -4  -8    5.69    0.61 
   0   4   8    4.18    0.72 
   0   4   8    4.85    0.61 
  -1  -4  -8    3.79    0.48 
  -1  -4  -8    3.36    0.43 
   1   4   8    3.15    0.49 
   1   4   8    3.56    0.59 
  -2  -4  -8   14.89    0.69 
  -2  -4  -8   13.63    0.74 
   2   4   8   13.27    0.95 
  -3  -4  -8    2.92    0.43 
   3   4   8    2.09    0.57 
  -4  -4  -8    0.93    0.34 
  -5  -4  -8    0.34    0.30 
  -5  -4  -8    0.08    0.29 
  -6  -4  -8    0.96    0.43 
  -6  -4  -8    0.63    0.36 
  -7  -4  -8    1.49    0.49 
  -7  -4  -8    0.84    0.47 
  -7  -4  -8    0.95    0.48 
   2  -5  -8    7.15    0.79 
  -2   5   8    7.55    1.09 
   1  -5  -8    7.59    0.77 
  -1   5   8    8.17    1.03 
  -1   5   8    5.56    0.69 
   0  -5  -8    2.00    0.46 
   0   5   8    1.76    0.48 
   0   5   8    2.54    0.64 
  -1  -5  -8   24.94    1.08 
   1   5   8   24.90    1.29 
   1   5   8   25.30    1.08 
  -2  -5  -8    1.37    0.37 
   2   5   8    1.05    0.46 
  -3  -5  -8    0.54    0.32 
   3   5   8    0.19    0.53 
  -5  -5  -8    2.06    0.42 
  -6  -5  -8    0.05    0.35 
  -6  -5  -8    1.02    0.44 
  -7  -5  -8   -0.20    0.54 
  -7  -5  -8    0.07    0.48 
   2  -6  -8    1.08    0.56 
  -2   6   8    0.62    0.93 
  -2   6   8    0.00    0.50 
   1  -6  -8    0.02    0.43 
  -1   6   8    0.05    0.65 
  -1   6   8    0.54    0.43 
   0  -6  -8    4.61    0.64 
   0   6   8    5.50    0.77 
   0   6   8    3.61    0.59 
  -1  -6  -8    0.36    0.37 
   1   6   8    0.39    0.41 
   1   6   8    0.11    0.52 
  -2  -6  -8    1.88    0.44 
   2   6   8    1.15    0.58 
  -3  -6  -8    9.38    0.68 
   3   6   8   10.51    1.08 
  -6  -6  -8    0.91    0.44 
  -7  -6  -8    0.59    0.51 
   1  -7  -8    2.98    0.69 
  -1   7   8    2.72    0.64 
   0  -7  -8    0.06    0.46 
   0   7   8    0.06    0.44 
   0   7   8    0.74    0.68 
  -1  -7  -8    0.21    0.41 
   1   7   8    0.80    0.44 
   1   7   8    1.37    0.59 
  -2  -7  -8   -0.02    0.37 
   2   7   8    0.56    0.56 
  -3  -7  -8    1.74    0.44 
   3   7   8    0.47    0.69 
  -4  -7  -8    2.76    0.47 
   0  -8  -8    0.11    0.52 
   0   8   8   -0.21    0.42 
  -1  -8  -8   -0.68    0.43 
   1   8   8   -0.18    0.42 
   1   8   8    0.03    0.66 
  -2  -8  -8    1.48    0.51 
  -3  -8  -8    0.28    0.36 
  -4  -8  -8    0.67    0.39 
  -2  -9  -8    3.83    0.69 
  -3  -9  -8    0.68    0.48 
  -4  -9  -8    1.22    0.50 
   1   8  -9    5.41    0.75 
  -1  -8   9    4.14    0.70 
   0   8  -9    0.56    0.51 
   0  -8   9   -0.15    0.48 
  -1   8  -9    2.64    0.58 
   3   7  -9    0.06    0.43 
  -3  -7   9   -0.81    0.52 
  -3  -7   9    1.80    0.57 
   2   7  -9    0.70    0.48 
  -2  -7   9    1.09    0.52 
  -2  -7   9    0.93    0.47 
   1   7  -9    4.18    0.62 
  -1  -7   9    5.10    0.66 
  -1  -7   9    3.84    0.65 
   0   7  -9    2.54    0.53 
   0  -7   9    4.22    0.64 
  -1   7  -9    1.04    0.44 
   1  -7   9    2.08    0.53 
  -2   7  -9   -0.01    0.43 
  -2   7  -9    0.17    0.43 
   2  -7   9    0.24    0.48 
  -3   7  -9   -0.06    0.41 
  -3   7  -9    0.34    0.50 
   3  -7   9   -0.40    0.48 
   3   6  -9    1.34    0.48 
  -3  -6   9    0.74    0.53 
  -3  -6   9    0.13    0.56 
  -3  -6   9    0.29    0.49 
   2   6  -9    0.61    0.41 
  -2  -6   9    0.91    0.43 
  -2  -6   9    0.59    0.45 
  -2  -6   9    0.77    0.45 
   1   6  -9    0.70    0.38 
  -1  -6   9   -0.54    0.37 
  -1  -6   9    1.54    0.47 
   0   6  -9    4.41    0.60 
   0  -6   9    3.45    0.54 
   0  -6   9    4.34    0.61 
  -1   6  -9    0.83    0.38 
   1  -6   9    1.23    0.43 
   1  -6   9    0.82    0.38 
  -2   6  -9    0.16    0.37 
  -2   6  -9    0.68    0.43 
   2  -6   9    0.39    0.42 
   2  -6   9    0.60    0.43 
  -3   6  -9    0.32    0.43 
  -3   6  -9    0.31    0.41 
   3  -6   9    1.93    0.49 
   3  -6   9    0.42    0.49 
  -4   6  -9    0.00    0.46 
   4  -6   9    1.15    0.58 
   4   5  -9    7.24    0.87 
  -4  -5   9    7.39    0.88 
  -4  -5   9    6.81    0.90 
  -4  -5   9   12.22    1.19 
  -3  -5   9   -0.44    0.41 
  -3  -5   9    0.31    0.45 
  -3  -5   9    0.69    0.44 
  -2  -5   9    0.51    0.43 
  -2  -5   9    0.67    0.37 
  -2  -5   9    0.22    0.36 
   1   5  -9    3.95    0.51 
  -1  -5   9    2.84    0.54 
  -1  -5   9    3.69    0.58 
  -1  -5   9    3.72    0.55 
   0   5  -9    2.00    0.45 
   0  -5   9    1.65    0.44 
   0  -5   9    1.19    0.41 
  -1   5  -9    1.01    0.37 
   1  -5   9    1.72    0.45 
   1  -5   9    1.19    0.38 
  -2   5  -9   -0.24    0.33 
  -2   5  -9    0.09    0.34 
   2  -5   9   -0.26    0.35 
   2  -5   9   -0.30    0.34 
  -3   5  -9    0.32    0.39 
   3  -5   9    0.35    0.42 
   3  -5   9    0.36    0.40 
  -4   5  -9    0.06    0.41 
   4  -5   9   -0.09    0.44 
   4  -5   9    0.40    0.49 
  -5   5  -9    1.67    0.53 
   5  -5   9    1.83    0.64 
   5  -5   9    1.33    0.59 
   4   4  -9    0.12    0.42 
  -4  -4   9    0.32    0.53 
  -4  -4   9   -0.22    0.49 
  -4  -4   9    1.14    0.67 
  -3  -4   9   10.00    0.80 
  -3  -4   9   11.57    0.93 
  -3  -4   9   10.44    0.85 
  -2  -4   9    3.99    0.53 
  -2  -4   9    4.13    0.60 
  -2  -4   9    4.50    0.61 
   1   4  -9    3.14    0.43 
  -1  -4   9    3.69    0.58 
  -1  -4   9    4.62    0.56 
  -1  -4   9    3.73    0.57 
   0   4  -9    3.21    0.44 
   0  -4   9    1.69    0.42 
   0  -4   9    3.14    0.49 
  -1   4  -9    7.77    0.61 
   1  -4   9    8.39    0.64 
   1  -4   9    8.26    0.64 
  -2   4  -9    1.55    0.40 
   2  -4   9    2.19    0.44 
   2  -4   9    1.63    0.43 
  -3   4  -9   14.25    0.83 
   3  -4   9   13.09    0.85 
   3  -4   9   12.87    0.82 
  -4   4  -9    0.14    0.39 
   4  -4   9   -0.02    0.32 
   4  -4   9    0.20    0.40 
  -5   4  -9    1.48    0.54 
   5  -4   9    2.35    0.64 
   4   3  -9    0.95    0.42 
  -4  -3   9    0.94    0.49 
  -4  -3   9    2.33    0.70 
  -4  -3   9    1.56    0.60 
  -3  -3   9    1.30    0.46 
  -3  -3   9    1.38    0.48 
  -3  -3   9    1.30    0.49 
  -2  -3   9    1.66    0.45 
  -2  -3   9    0.58    0.43 
  -2  -3   9    0.44    0.36 
  -1  -3   9    0.56    0.32 
  -1  -3   9    0.17    0.31 
  -1  -3   9    0.00    0.31 
   0   3  -9    3.59    0.43 
   0  -3   9    2.29    0.44 
   0  -3   9    2.85    0.46 
  -1   3  -9    1.22    0.42 
   1  -3   9    1.26    0.34 
   1  -3   9    0.43    0.33 
  -2   3  -9   -0.45    0.27 
   2  -3   9    0.43    0.33 
   2  -3   9    0.11    0.29 
  -3   3  -9    1.85    0.40 
   3  -3   9    2.01    0.46 
   3  -3   9    1.45    0.43 
  -4   3  -9    0.90    0.35 
   4  -3   9    1.13    0.45 
   4  -3   9    0.93    0.42 
  -5   3  -9    2.18    0.50 
   5  -3   9    2.63    0.61 
  -6   3  -9    0.19    0.47 
   6  -3   9    0.83    0.61 
  -4  -2   9    0.03    0.53 
  -4  -2   9    0.82    0.67 
  -4  -2   9   -0.21    0.44 
  -3  -2   9    2.96    0.61 
  -3  -2   9    1.80    0.49 
  -3  -2   9    2.46    0.70 
  -2  -2   9    1.80    0.42 
  -2  -2   9    1.17    0.36 
  -2  -2   9    1.79    0.44 
  -1  -2   9    9.53    0.62 
  -1  -2   9    9.85    0.75 
  -1  -2   9   10.38    0.68 
   0   2  -9   14.64    0.65 
   0  -2   9   13.44    0.78 
   0  -2   9   11.86    0.70 
   0  -2   9   12.39    0.79 
  -1   2  -9   13.18    0.70 
   1  -2   9   12.39    0.70 
   1  -2   9   12.60    0.73 
  -2   2  -9   12.15    0.68 
  -2   2  -9   10.84    0.60 
   2  -2   9   10.47    0.68 
   2  -2   9   10.45    0.66 
  -3   2  -9    0.64    0.35 
  -3   2  -9    0.91    0.33 
   3  -2   9    0.70    0.32 
   3  -2   9    0.88    0.35 
  -4   2  -9   11.81    0.80 
  -4   2  -9   13.60    0.76 
   4  -2   9   12.47    0.80 
   4  -2   9   13.08    0.85 
  -5   2  -9    1.41    0.42 
   5  -2   9    1.56    0.51 
  -6   2  -9    0.55    0.44 
   6  -2   9    0.61    0.52 
  -4  -1   9    0.95    0.71 
  -4  -1   9   -0.03    0.52 
  -4  -1   9    0.22    0.40 
  -3  -1   9    2.30    0.58 
  -3  -1   9    3.91    0.81 
  -3  -1   9    1.74    0.46 
  -2  -1   9    1.82    0.60 
  -2  -1   9    1.09    0.39 
  -2  -1   9    1.65    0.47 
  -1  -1   9    1.78    0.42 
  -1  -1   9    1.27    0.38 
  -1  -1   9    1.46    0.53 
  -1  -1   9    1.15    0.34 
  -1  -1   9    0.69    0.34 
   0  -1   9    7.33    0.62 
   0  -1   9    6.32    0.51 
   0  -1   9    6.34    0.50 
   0  -1   9    6.37    0.60 
  -1   1  -9    4.36    0.48 
   1  -1   9    4.96    0.54 
   1  -1   9    3.33    0.44 
  -2   1  -9    0.47    0.31 
  -2   1  -9    0.48    0.25 
   2  -1   9    0.29    0.29 
   2  -1   9    0.61    0.28 
  -3   1  -9   -0.04    0.30 
  -3   1  -9    0.44    0.25 
   3  -1   9    0.12    0.29 
   3  -1   9    0.06    0.26 
  -4   1  -9    0.32    0.28 
  -4   1  -9   -0.20    0.32 
   4  -1   9    0.05    0.31 
  -5   1  -9    6.63    0.71 
  -5   1  -9    8.70    0.66 
   5  -1   9    8.43    0.79 
  -6   1  -9    0.20    0.41 
  -6   1  -9    0.66    0.42 
   6  -1   9    0.52    0.49 
   4   0  -9    3.36    0.65 
  -4   0   9    4.47    0.72 
  -4   0   9    4.06    0.91 
  -3   0   9    2.40    0.55 
  -3   0   9    3.88    0.78 
  -3   0   9    1.61    0.45 
  -2   0   9    3.86    0.53 
  -2   0   9    4.93    0.59 
  -2   0   9    3.90    0.76 
  -1   0   9   42.72    1.36 
  -1   0   9   45.32    1.40 
  -1   0   9   44.32    1.34 
  -1   0   9   42.66    1.64 
   0   0   9   19.48    0.85 
   0   0   9   18.72    1.09 
   0   0   9   19.29    0.81 
   0   0   9   20.26    0.90 
  -1   0  -9    0.15    0.29 
   1   0   9   -0.09    0.26 
   1   0   9    0.14    0.30 
   1   0   9    0.26    0.41 
   1   0   9   -0.01    0.27 
  -2   0  -9   10.58    0.66 
   2   0   9   10.33    0.66 
  -3   0  -9   10.38    0.68 
  -3   0  -9   10.26    0.53 
   3   0   9   10.32    0.66 
  -4   0  -9    0.56    0.36 
  -4   0  -9    0.19    0.25 
   4   0   9    0.00    0.32 
  -5   0  -9    4.07    0.60 
  -5   0  -9    4.41    0.52 
   5   0   9    3.39    0.54 
  -6   0  -9    3.10    0.51 
  -6   0  -9    2.92    0.56 
   6   0   9    3.09    0.60 
  -7   0  -9    0.38    0.41 
  -7   0  -9    0.66    0.50 
   4  -1  -9    1.04    0.54 
  -4   1   9    2.11    0.86 
  -3   1   9    0.40    0.63 
  -3   1   9    1.27    0.52 
  -2   1   9    0.45    0.51 
  -2   1   9    0.11    0.39 
  -1   1   9    1.11    0.42 
  -1   1   9    1.95    0.38 
  -1   1   9    1.55    0.38 
  -1   1   9    1.17    0.51 
   0   1   9    0.25    0.33 
   0   1   9    0.21    0.45 
   0   1   9   -0.25    0.23 
   0   1   9   -0.03    0.27 
  -1  -1  -9    0.28    0.29 
   1   1   9    0.52    0.26 
   1   1   9   -0.13    0.37 
   1   1   9    0.08    0.31 
  -2  -1  -9    0.54    0.31 
   2   1   9    0.66    0.29 
  -3  -1  -9   14.65    0.78 
   3   1   9   14.12    0.99 
   3   1   9   13.04    0.71 
  -4  -1  -9   13.01    0.60 
  -4  -1  -9   11.66    0.74 
   4   1   9   11.39    0.71 
  -5  -1  -9   12.33    0.67 
  -5  -1  -9   10.93    0.77 
   5   1   9   11.11    0.92 
  -6  -1  -9    0.47    0.31 
  -6  -1  -9    0.59    0.41 
  -7  -1  -9    0.55    0.53 
  -7  -1  -9    1.10    0.45 
  -3   2   9    0.53    0.64 
  -3   2   9    0.48    0.40 
  -2   2   9   11.11    0.78 
  -2   2   9   10.39    1.09 
  -1   2   9   35.80    1.21 
  -1   2   9   34.52    1.28 
  -1   2   9   36.15    1.59 
   0   2   9   -0.12    0.32 
   0   2   9    0.04    0.26 
   0   2   9    0.60    0.49 
  -1  -2  -9    2.87    0.43 
   1   2   9    2.18    0.38 
   1   2   9    3.48    0.47 
   1   2   9    2.19    0.37 
   1   2   9    1.52    0.52 
  -2  -2  -9    1.27    0.35 
   2   2   9    0.20    0.27 
   2   2   9    1.01    0.47 
  -3  -2  -9    2.71    0.45 
   3   2   9    3.36    0.66 
   3   2   9    2.30    0.48 
  -4  -2  -9    0.78    0.38 
  -5  -2  -9    1.91    0.34 
  -5  -2  -9    3.37    0.54 
  -6  -2  -9    2.41    0.51 
  -6  -2  -9    2.52    0.42 
  -7  -2  -9    0.40    0.38 
  -7  -2  -9    0.37    0.52 
   3  -3  -9   12.37    0.96 
   3  -3  -9   10.43    0.98 
  -3   3   9   12.57    1.35 
   2  -3  -9    0.17    0.45 
  -2   3   9    0.37    0.63 
  -2   3   9   -0.13    0.32 
   1  -3  -9   -0.34    0.37 
  -1   3   9    0.11    0.39 
  -1   3   9    0.08    0.30 
  -1   3   9    0.44    0.53 
   0  -3  -9    5.65    0.59 
   0   3   9    6.96    0.68 
   0   3   9    4.96    0.78 
   0   3   9    5.90    0.52 
  -1  -3  -9   10.66    0.67 
   1   3   9    8.96    0.57 
   1   3   9   10.09    0.87 
   1   3   9    9.78    0.69 
  -2  -3  -9    0.26    0.27 
   2   3   9    0.60    0.44 
  -3  -3  -9   17.20    0.82 
   3   3   9   17.82    1.15 
  -4  -3  -9    5.48    0.60 
  -5  -3  -9    1.04    0.41 
  -6  -3  -9    1.17    0.41 
  -6  -3  -9    1.35    0.45 
  -7  -3  -9    0.11    0.44 
  -7  -3  -9    0.36    0.51 
   2  -4  -9    0.39    0.47 
  -2   4   9    1.10    0.76 
   1  -4  -9   13.84    0.92 
  -1   4   9   14.70    1.27 
  -1   4   9   14.22    0.92 
   0  -4  -9    1.22    0.41 
   0   4   9   -0.28    0.34 
   0   4   9   -0.32    0.53 
  -1  -4  -9    0.16    0.31 
  -1  -4  -9   -0.01    0.35 
   1   4   9    0.63    0.42 
   1   4   9    0.96    0.40 
  -2  -4  -9    0.47    0.30 
   2   4   9    0.49    0.47 
  -3  -4  -9   33.84    1.14 
   3   4   9   32.68    1.53 
  -4  -4  -9    3.86    0.53 
  -5  -4  -9    1.52    0.43 
  -6  -4  -9    0.31    0.39 
  -6  -4  -9    0.46    0.40 
  -7  -4  -9    2.38    0.64 
  -7  -4  -9    1.97    0.55 
   2  -5  -9    1.37    0.60 
  -2   5   9    0.75    0.58 
  -2   5   9    0.34    0.85 
   1  -5  -9    1.76    0.52 
  -1   5   9    0.91    0.82 
  -1   5   9    1.96    0.56 
   0  -5  -9    5.19    0.65 
   0   5   9    5.39    0.84 
   0   5   9    4.86    0.64 
  -1  -5  -9   -0.51    0.32 
  -1  -5  -9    0.34    0.36 
   1   5   9    1.22    0.56 
   1   5   9   -0.01    0.38 
  -2  -5  -9    0.17    0.35 
   2   5   9   -0.24    0.45 
  -3  -5  -9    2.50    0.47 
   3   5   9    2.80    0.70 
  -4  -5  -9   24.99    1.01 
  -5  -5  -9    0.79    0.42 
  -6  -5  -9   -0.14    0.39 
  -6  -5  -9    0.60    0.43 
  -7  -5  -9    0.78    0.53 
   1  -6  -9    3.99    0.72 
  -1   6   9    4.27    0.96 
  -1   6   9    2.99    0.64 
   0  -6  -9    7.17    0.79 
   0   6   9    6.94    0.95 
   0   6   9    6.16    0.76 
  -1  -6  -9    2.00    0.52 
   1   6   9    1.78    0.53 
   1   6   9    1.48    0.67 
  -2  -6  -9    1.67    0.46 
   2   6   9    1.69    0.63 
  -3  -6  -9    0.89    0.41 
   3   6   9   -0.91    0.56 
  -6  -6  -9    0.40    0.46 
   0  -7  -9   -0.32    0.49 
   0   7   9    0.90    0.48 
   0   7   9    0.73    0.76 
  -1  -7  -9    2.29    0.64 
   1   7   9    2.48    0.75 
   1   7   9    2.15    0.54 
  -2  -7  -9    2.07    0.52 
   2   7   9    0.34    0.69 
  -3  -7  -9    6.67    0.68 
   3   7   9    5.36    1.03 
  -1  -8  -9   22.52    1.33 
   1   8   9   17.26    1.17 
   1   8   9   20.04    1.56 
  -2  -8  -9   14.03    1.13 
   2   8   9   11.99    1.38 
  -3  -8  -9    1.78    0.55 
   3   8   9    0.82    0.82 
  -4  -8  -9    0.59    0.43 
   1   7 -10    0.56    0.50 
  -1  -7  10    0.17    0.49 
  -1  -7  10    0.11    0.54 
   0   7 -10    3.78    0.63 
   0  -7  10    3.57    0.70 
   0  -7  10    2.11    0.61 
  -1   7 -10    0.92    0.51 
   1  -7  10    1.88    0.56 
  -2   7 -10    1.62    0.56 
  -2   7 -10    2.08    0.58 
   2  -7  10    2.35    0.60 
  -2  -6  10    0.05    0.47 
  -2  -6  10    0.23    0.44 
   1   6 -10   -0.35    0.41 
  -1  -6  10    0.41    0.47 
  -1  -6  10    0.52    0.51 
  -1  -6  10   -0.64    0.45 
   0   6 -10    1.34    0.49 
   0  -6  10    3.59    0.62 
   0  -6  10    2.54    0.58 
   0  -6  10    1.70    0.56 
  -1   6 -10   -0.02    0.37 
   1  -6  10   -0.35    0.44 
   1  -6  10    0.61    0.45 
  -2   6 -10   -0.71    0.40 
  -2   6 -10   -0.17    0.41 
   2  -6  10    0.19    0.45 
   2  -6  10   -0.04    0.42 
  -3   6 -10    0.30    0.47 
  -3   6 -10    1.28    0.55 
   3  -6  10    1.08    0.56 
  -3  -5  10    0.53    0.53 
  -3  -5  10    1.24    0.55 
  -3  -5  10    0.58    0.53 
  -2  -5  10    2.12    0.49 
  -2  -5  10    1.05    0.47 
  -2  -5  10    1.36    0.51 
   1   5 -10    3.95    0.54 
  -1  -5  10    4.40    0.65 
  -1  -5  10    3.04    0.57 
  -1  -5  10    4.55    0.67 
   0   5 -10    3.91    0.53 
   0  -5  10    3.04    0.56 
   0  -5  10    3.82    0.60 
   0  -5  10    1.57    0.50 
  -1   5 -10    1.83    0.47 
   1  -5  10    1.39    0.46 
   1  -5  10    1.83    0.46 
  -2   5 -10   -0.22    0.35 
  -2   5 -10    0.77    0.41 
   2  -5  10    1.33    0.48 
   2  -5  10    1.45    0.48 
  -3   5 -10    0.76    0.44 
   3  -5  10    0.34    0.46 
   3  -5  10   -0.09    0.45 
  -4   5 -10   -0.49    0.42 
   4  -5  10   -0.71    0.49 
   4  -5  10    0.21    0.49 
  -3  -4  10    1.74    0.56 
  -3  -4  10    0.58    0.52 
  -2  -4  10    0.78    0.43 
  -2  -4  10    1.30    0.49 
  -2  -4  10    1.83    0.52 
  -1  -4  10   -0.15    0.42 
  -1  -4  10    0.54    0.41 
  -1  -4  10    0.53    0.37 
   0   4 -10    3.03    0.47 
   0  -4  10    1.14    0.47 
   0  -4  10    2.11    0.50 
   0  -4  10    1.56    0.44 
  -1   4 -10    0.52    0.37 
   1  -4  10    1.09    0.42 
   1  -4  10    0.99    0.42 
  -2   4 -10   -0.24    0.36 
   2  -4  10    0.47    0.40 
   2  -4  10    0.25    0.37 
  -3   4 -10    3.99    0.59 
   3  -4  10    5.41    0.69 
   3  -4  10    4.62    0.63 
  -4   4 -10    0.59    0.42 
   4  -4  10    0.58    0.43 
   4  -4  10    0.31    0.46 
  -5   4 -10    1.15    0.53 
   5  -4  10    1.36    0.62 
  -3  -3  10   -0.67    0.45 
  -3  -3  10    0.19    0.50 
  -2  -3  10    5.97    0.94 
  -2  -3  10    5.56    0.70 
  -2  -3  10    5.53    0.67 
  -1  -3  10    0.14    0.40 
  -1  -3  10   -0.07    0.28 
  -1  -3  10    0.15    0.34 
   0   3 -10    2.78    0.41 
   0  -3  10    2.98    0.54 
   0  -3  10    2.72    0.50 
   0  -3  10    3.28    0.51 
  -1   3 -10    1.30    0.37 
   1  -3  10    1.68    0.41 
   1  -3  10    1.77    0.43 
  -2   3 -10    0.44    0.34 
   2  -3  10    0.78    0.35 
   2  -3  10    0.21    0.33 
  -3   3 -10    2.67    0.48 
   3  -3  10    2.81    0.54 
   3  -3  10    3.47    0.59 
  -4   3 -10   20.37    1.02 
   4  -3  10   19.45    1.08 
  -5   3 -10    0.49    0.45 
   5  -3  10    0.28    0.51 
  -3  -2  10    2.42    0.78 
  -3  -2  10    0.61    0.53 
  -3  -2  10    0.96    0.48 
  -2  -2  10    3.08    0.56 
  -2  -2  10    2.44    0.52 
  -2  -2  10    3.60    0.79 
  -1  -2  10    1.69    0.49 
  -1  -2  10    0.63    0.36 
   0  -2  10    2.72    0.44 
   0  -2  10    2.77    0.51 
   0  -2  10    3.80    0.56 
  -1   2 -10    5.82    0.58 
   1  -2  10    5.72    0.58 
   1  -2  10    6.77    0.67 
  -2   2 -10    0.30    0.30 
  -2   2 -10    0.75    0.35 
   2  -2  10    0.93    0.37 
   2  -2  10    0.79    0.34 
  -3   2 -10    0.71    0.33 
  -3   2 -10    0.24    0.37 
   3  -2  10    0.54    0.38 
   3  -2  10    1.13    0.40 
  -4   2 -10   11.19    0.74 
  -4   2 -10    9.92    1.10 
   4  -2  10   10.97    0.83 
  -5   2 -10    0.38    0.39 
   5  -2  10    0.65    0.51 
  -6   2 -10    1.34    0.50 
   6  -2  10    1.20    0.57 
  -3  -1  10   -0.26    0.37 
  -3  -1  10    0.00    0.63 
  -3  -1  10    0.27    0.48 
  -2  -1  10    0.76    0.63 
  -2  -1  10    2.08    0.51 
  -2  -1  10    1.80    0.52 
  -1  -1  10    1.75    0.44 
  -1  -1  10    2.32    0.50 
  -1  -1  10    2.15    0.65 
  -1  -1  10    2.84    0.52 
   0  -1  10    0.17    0.38 
   0  -1  10    0.77    0.36 
   0  -1  10    0.76    0.33 
  -1   1 -10    1.07    0.37 
   1  -1  10    0.82    0.33 
  -2   1 -10    0.60    0.30 
  -2   1 -10    1.00    0.39 
   2  -1  10    0.25    0.32 
  -3   1 -10    4.36    0.46 
  -3   1 -10    5.23    0.60 
   3  -1  10    3.58    0.52 
  -4   1 -10    0.12    0.31 
  -4   1 -10    0.54    0.41 
   4  -1  10   -0.02    0.36 
  -5   1 -10    3.90    0.51 
  -5   1 -10    3.15    0.58 
   5  -1  10    3.11    0.58 
  -6   1 -10    0.07    0.40 
   6  -1  10   -0.26    0.50 
  -3   0  10   -0.49    0.64 
  -3   0  10    0.09    0.49 
  -2   0  10    0.05    0.38 
  -2   0  10    0.52    0.61 
  -2   0  10    0.51    0.47 
  -1   0  10    0.70    0.38 
  -1   0  10    0.45    0.32 
  -1   0  10    0.15    0.51 
  -1   0  10   -0.45    0.38 
   0   0  10    6.53    0.66 
   0   0  10    6.87    0.84 
   0   0  10    9.06    0.71 
   0   0  10    8.71    0.64 
  -1   0 -10    0.16    0.33 
   1   0  10   -0.03    0.33 
  -2   0 -10    0.38    0.36 
   2   0  10   -0.58    0.29 
  -3   0 -10    4.37    0.57 
   3   0  10    4.51    0.54 
  -4   0 -10    0.12    0.35 
  -4   0 -10    0.57    0.28 
   4   0  10    0.09    0.35 
  -5   0 -10    0.26    0.43 
  -5   0 -10    0.95    0.36 
   5   0  10    0.69    0.42 
  -6   0 -10    0.26    0.38 
  -6   0 -10   -0.49    0.47 
  -3   1  10    0.13    0.65 
  -3   1  10    0.02    0.49 
  -2   1  10    1.27    0.65 
  -2   1  10    1.39    0.47 
  -1   1  10    4.91    0.78 
  -1   1  10    5.35    0.62 
  -1   1  10    5.83    0.65 
   0   1  10   16.55    0.88 
   0   1  10   17.09    0.87 
   0   1  10   17.08    1.20 
   0   1  10   16.55    0.86 
  -1  -1 -10    0.45    0.36 
   1   1  10   -0.10    0.31 
   1   1  10    0.35    0.36 
   1   1  10    0.33    0.29 
   1   1  10    0.51    0.42 
  -2  -1 -10    8.43    0.67 
   2   1  10    7.99    0.62 
   2   1  10    6.81    0.80 
  -3  -1 -10    2.52    0.48 
   3   1  10    2.84    0.66 
   3   1  10    2.31    0.44 
  -4  -1 -10    0.96    0.42 
   4   1  10    1.45    0.39 
  -5  -1 -10    3.21    0.57 
  -6  -1 -10    2.12    0.59 
  -6  -1 -10    1.78    0.50 
  -7  -1 -10    0.35    0.57 
  -3   2  10    0.18    0.74 
  -2   2  10    5.12    0.91 
  -2   2  10    7.77    0.79 
  -1   2  10    0.54    0.45 
  -1   2  10    1.05    0.62 
  -1   2  10    0.82    0.40 
   0   2  10    0.61    0.40 
   0   2  10    1.91    0.38 
   0   2  10    0.59    0.59 
  -1  -2 -10    2.95    0.50 
   1   2  10    1.28    0.50 
   1   2  10    2.19    0.42 
   1   2  10    2.31    0.47 
  -2  -2 -10    1.45    0.40 
   2   2  10    1.37    0.56 
  -3  -2 -10    0.38    0.35 
   3   2  10    0.04    0.47 
  -4  -2 -10    0.01    0.38 
  -5  -2 -10    9.29    0.86 
  -6  -2 -10    2.68    0.60 
  -7  -2 -10    3.09    0.71 
  -2   3  10   -0.33    0.54 
  -2   3  10   -0.17    0.67 
  -1   3  10    4.52    0.64 
  -1   3  10    5.56    0.94 
   0   3  10    0.06    0.58 
   0   3  10    1.04    0.45 
  -1  -3 -10    2.23    0.51 
   1   3  10    2.86    0.52 
   1   3  10    2.02    0.62 
   1   3  10    2.99    0.62 
  -2  -3 -10    0.20    0.34 
   2   3  10    0.17    0.46 
   2   3  10   -0.46    0.30 
  -3  -3 -10    0.22    0.33 
   3   3  10   -0.18    0.49 
  -4  -3 -10    1.04    0.43 
  -5  -3 -10    4.29    0.62 
  -6  -3 -10    1.94    0.58 
  -7  -3 -10    0.93    0.56 
   2  -4 -10    3.20    0.68 
  -2   4  10    3.50    0.70 
  -2   4  10    1.49    0.93 
   1  -4 -10    1.52    0.55 
  -1   4  10    1.99    0.83 
  -1   4  10    1.61    0.56 
   0  -4 -10    0.72    0.47 
   0   4  10   -0.11    0.39 
   0   4  10    0.69    0.62 
  -1  -4 -10   -0.18    0.37 
   1   4  10    0.01    0.39 
   1   4  10    0.43    0.52 
  -2  -4 -10   -0.34    0.33 
   2   4  10    0.33    0.47 
  -3  -4 -10    3.22    0.50 
   3   4  10    1.17    0.61 
  -4  -4 -10    0.16    0.40 
  -5  -4 -10    1.50    0.49 
  -6  -4 -10   -0.04    0.47 
   1  -5 -10   10.21    0.92 
  -1   5  10    9.73    1.32 
  -1   5  10    7.95    0.89 
   0  -5 -10    0.49    0.46 
   0   5  10    1.05    0.65 
   0   5  10    0.61    0.49 
  -1  -5 -10    1.11    0.51 
   1   5  10    0.65    0.62 
   1   5  10    0.33    0.43 
  -2  -5 -10    0.16    0.37 
   2   5  10   -0.21    0.51 
  -3  -5 -10    0.49    0.41 
   3   5  10   -0.16    0.59 
  -4  -5 -10    3.86    0.60 
  -5  -5 -10    0.04    0.42 
  -6  -5 -10    0.01    0.52 
   0  -6 -10    0.01    0.54 
   0   6  10   -0.03    0.44 
   0   6  10    2.28    0.74 
  -1  -6 -10    6.73    0.74 
   1   6  10    5.09    0.73 
   1   6  10    6.25    1.08 
  -2  -6 -10    0.25    0.44 
  -2  -6 -10    0.76    0.41 
   2   6  10    0.38    0.64 
   3   6  10    0.36    0.68 
  -5  -6 -10    0.54    0.50 
  -6  -6 -10   -0.26    0.48 
  -1  -7 -10    3.90    0.75 
   1   7  10    6.00    1.03 
   1   7  10    2.83    0.67 
  -2  -7 -10    5.90    0.75 
   2   7  10    5.23    1.01 
  -3  -7 -10    0.48    0.48 
   3   7  10   -1.53    0.73 
  -1  -6  11    0.22    0.51 
  -1  -6  11   -0.40    0.49 
   0   6 -11   -0.22    0.43 
   0  -6  11    0.99    0.54 
   0  -6  11   -0.10    0.50 
  -1   6 -11    1.05    0.49 
   1  -6  11    0.81    0.55 
  -2   6 -11    2.32    0.63 
   2  -6  11    2.70    0.64 
  -2  -5  11    0.10    0.46 
  -2  -5  11    0.16    0.48 
  -2  -5  11    0.46    0.49 
  -1  -5  11    0.13    0.43 
  -1  -5  11    0.89    0.49 
  -1  -5  11   -1.01    0.41 
   0   5 -11    4.16    0.58 
   0  -5  11    4.16    0.69 
   0  -5  11    5.06    0.73 
   0  -5  11    4.11    0.67 
  -1   5 -11    2.48    0.50 
   1  -5  11    3.11    0.66 
   1  -5  11    2.42    0.58 
  -2   5 -11    0.30    0.42 
   2  -5  11    0.89    0.49 
   2  -5  11    1.00    0.49 
  -3   5 -11    2.82    0.61 
   3  -5  11    2.39    0.63 
   3  -5  11    1.54    0.58 
  -2  -4  11    3.69    0.67 
  -2  -4  11    1.92    0.63 
  -1  -4  11    2.49    0.55 
  -1  -4  11    2.71    0.63 
  -1  -4  11    2.79    0.51 
   0  -4  11    2.28    0.54 
   0  -4  11    2.48    0.58 
   0  -4  11    2.31    0.58 
  -1   4 -11   -0.11    0.38 
   1  -4  11    0.61    0.43 
   1  -4  11   -0.12    0.40 
  -2   4 -11    0.03    0.38 
   2  -4  11    0.10    0.42 
   2  -4  11    0.29    0.40 
  -3   4 -11   -0.92    0.39 
   3  -4  11    0.17    0.43 
   3  -4  11    1.29    0.50 
  -4   4 -11    2.56    0.58 
   4  -4  11    2.91    0.68 
  -2  -3  11    2.83    0.63 
  -2  -3  11    2.32    0.60 
  -1  -3  11    3.10    0.59 
  -1  -3  11    3.29    0.64 
   0  -3  11    0.66    0.44 
   0  -3  11    1.43    0.49 
   0  -3  11    0.48    0.45 
  -1   3 -11    3.06    0.47 
   1  -3  11    3.00    0.53 
   1  -3  11    2.94    0.55 
   2  -3  11    3.46    0.55 
   2  -3  11    3.12    0.55 
  -3   3 -11   -0.34    0.38 
   3  -3  11   -0.15    0.38 
  -4   3 -11   -0.18    0.42 
   4  -3  11   -0.07    0.47 
  -5   3 -11    0.53    0.48 
   5  -3  11   -0.04    0.57 
  -2  -2  11    2.81    0.64 
  -2  -2  11    1.77    0.52 
  -1  -2  11    7.26    0.76 
  -1  -2  11    6.41    0.76 
   0  -2  11    0.64    0.45 
   0  -2  11    1.46    0.45 
  -1   2 -11    0.01    0.32 
   1  -2  11    0.48    0.37 
  -2   2 -11    2.92    0.57 
   2  -2  11    3.21    0.54 
  -3   2 -11   -0.05    0.32 
   3  -2  11    0.46    0.35 
  -4   2 -11    2.17    0.48 
   4  -2  11    0.56    0.46 
  -5   2 -11    0.23    0.39 
   5  -2  11   -0.23    0.46 
  -2  -1  11    2.34    0.54 
  -2  -1  11    2.02    0.59 
  -2  -1  11    1.30    0.51 
  -2  -1  11    1.49    0.72 
  -1  -1  11    1.90    0.54 
  -1  -1  11    0.76    0.46 
  -1  -1  11    0.96    0.45 
  -1  -1  11    0.77    0.67 
   0  -1  11    0.18    0.41 
   0  -1  11    0.66    0.35 
   0  -1  11    0.18    0.37 
  -1   1 -11    0.15    0.34 
   1  -1  11   -0.11    0.34 
  -2   1 -11    0.76    0.39 
   2  -1  11    0.21    0.36 
  -3   1 -11    0.85    0.44 
   3  -1  11    0.82    0.39 
  -4   1 -11   -0.27    0.43 
   4  -1  11    0.49    0.39 
  -5   1 -11   -0.12    0.45 
  -5   1 -11   -0.11    0.35 
   5  -1  11    0.75    0.51 
  -6   1 -11    1.00    0.47 
  -2   0  11    2.81    0.77 
  -2   0  11    2.59    0.61 
  -2   0  11    2.00    0.60 
  -1   0  11    0.45    0.37 
  -1   0  11    0.33    0.41 
  -1   0  11    0.54    0.61 
  -1   0  11    0.49    0.46 
   0   0  11   31.09    1.17 
   0   0  11   32.67    1.30 
   0   0  11   30.10    1.60 
  -1   0 -11    2.29    0.53 
   1   0  11    2.90    0.54 
   1   0  11    2.62    0.48 
   1   0  11    3.28    0.66 
  -2   0 -11    1.52    0.49 
   2   0  11    2.13    0.46 
  -3   0 -11    4.30    0.65 
   3   0  11    2.98    0.51 
  -4   0 -11    0.14    0.46 
   4   0  11    1.04    0.38 
  -5   0 -11    1.18    0.52 
  -6   0 -11    0.46    0.51 
  -2   1  11    1.03    0.69 
  -2   1  11    0.01    0.49 
  -2   1  11   -0.45    0.50 
  -1   1  11    0.07    0.44 
  -1   1  11    0.17    0.63 
  -1   1  11    0.31    0.47 
   0   1  11   -0.05    0.41 
   0   1  11   -0.37    0.36 
   0   1  11   -0.13    0.56 
  -1  -1 -11    0.11    0.41 
   1   1  11    0.80    0.43 
   1   1  11   -0.19    0.37 
   1   1  11    0.76    0.52 
  -2  -1 -11   -0.11    0.38 
   2   1  11   -0.07    0.52 
  -3  -1 -11    0.40    0.43 
  -4  -1 -11    2.15    0.53 
  -5  -1 -11   -0.14    0.47 
  -6  -1 -11    0.50    0.57 
  -2   2  11    1.09    0.76 
  -2   2  11    1.50    0.58 
  -2   2  11    0.50    0.53 
  -1   2  11   -0.13    0.66 
  -1   2  11   -0.78    0.40 
  -1   2  11   -0.14    0.49 
   0   2  11    8.01    0.78 
   0   2  11    6.53    0.96 
   0   2  11    8.29    0.68 
  -1  -2 -11    5.46    0.69 
   1   2  11    6.58    0.71 
   1   2  11    5.28    0.61 
   1   2  11    6.16    0.80 
  -2  -2 -11    1.19    0.46 
   2   2  11    0.80    0.57 
  -3  -2 -11   10.69    0.84 
   3   2  11   11.05    1.10 
  -4  -2 -11    4.40    0.67 
  -5  -2 -11   -0.23    0.45 
  -6  -2 -11    1.44    0.62 
  -1   3  11    0.34    0.53 
  -1   3  11    0.33    0.75 
   0   3  11    0.46    0.60 
   0   3  11    0.39    0.42 
  -1  -3 -11    3.64    0.62 
   1   3  11    5.19    0.77 
   1   3  11    3.31    0.61 
  -2  -3 -11   -0.13    0.37 
   2   3  11   -0.08    0.48 
  -3  -3 -11    0.08    0.40 
   3   3  11    0.28    0.57 
  -4  -3 -11   -0.22    0.40 
   4   3  11   -0.53    0.63 
  -5  -3 -11    3.40    0.66 
  -6  -3 -11    0.00    0.53 
  -1   4  11    0.33    0.52 
  -1   4  11   -0.23    0.82 
   0   4  11    3.31    0.61 
   0   4  11    2.23    0.75 
   1   4  11    2.24    0.57 
   1   4  11    2.72    0.71 
  -2  -4 -11    8.00    0.79 
   2   4  11    5.73    0.87 
  -3  -4 -11    1.47    0.49 
   3   4  11    0.05    0.63 
  -4  -4 -11    8.74    0.85 
   4   4  11    7.72    1.02 
  -5  -4 -11    0.06    0.50 
  -6  -4 -11    2.13    0.62 
   0  -5 -11    0.67    0.59 
   0   5  11    2.50    0.81 
   0   5  11    0.92    0.50 
   1   5  11   -0.18    0.63 
   1   5  11    0.43    0.53 
  -2  -5 -11    4.16    0.65 
   2   5  11    3.28    0.82 
  -3  -5 -11    0.32    0.45 
   3   5  11   -0.07    0.70 
  -4  -5 -11    4.25    0.69 
   4   5  11    4.26    0.93 
  -5  -5 -11   12.37    1.06 
  -6  -5 -11    0.57    0.60 
  -1  -6 -11    1.97    0.64 
   1   6  11    2.18    0.91 
   1   6  11    1.62    0.63 
  -2  -6 -11    0.33    0.57 
   2   6  11    0.22    0.68 
  -3  -6 -11    1.33    0.59 
   3   6  11    1.29    0.85 
  -4  -6 -11    0.30    0.57 
  -5  -6 -11   -0.49    0.50 
   3   7  11   -0.56    0.85 
   0  -5  12   -0.77    0.49 
   0  -5  12   -0.76    0.52 
   0  -5  12   -0.43    0.50 
  -1   5 -12    3.78    0.61 
   1  -5  12    4.17    0.75 
   1  -5  12    2.44    0.64 
  -2   5 -12    7.47    0.81 
   2  -5  12    8.47    1.10 
   2  -5  12    8.81    0.89 
  -1  -4  12    0.79    0.59 
  -1  -4  12   -0.03    0.50 
   0  -4  12    0.27    0.56 
   0  -4  12   -0.87    0.53 
  -1   4 -12    8.25    0.84 
   1  -4  12    8.85    0.92 
  -2   4 -12    0.05    0.42 
   2  -4  12    0.64    0.56 
  -3   4 -12    1.21    0.59 
   3  -4  12    1.91    0.57 
  -1  -3  12    2.73    0.60 
  -1  -3  12    4.34    0.75 
   0  -3  12    0.36    0.54 
   0  -3  12    0.09    0.45 
   1  -3  12    0.84    0.44 
   2  -3  12    1.10    0.52 
   3  -3  12    1.86    0.56 
  -4   3 -12    1.85    0.56 
   4  -3  12    4.57    0.76 
  -1  -2  12    2.69    0.62 
  -1  -2  12    4.77    0.78 
   0  -2  12    2.53    0.52 
   0  -2  12    2.12    0.61 
   1  -2  12   -0.18    0.49 
   1  -2  12   -0.17    0.46 
   2  -2  12    2.17    0.57 
   3  -2  12    0.74    0.47 
   4  -2  12    1.83    0.61 
  -1  -1  12    0.23    0.71 
  -1  -1  12    0.29    0.47 
  -1  -1  12    0.69    0.45 
   0  -1  12   -0.25    0.44 
   0  -1  12    0.59    0.43 
   1  -1  12    1.75    0.51 
   1  -1  12    2.22    0.55 
  -2   1 -12    1.25    0.48 
   2  -1  12    1.78    0.51 
  -3   1 -12    0.27    0.47 
   3  -1  12    0.63    0.44 
  -4   1 -12    0.46    0.50 
   4  -1  12    1.08    0.48 
   5  -1  12    0.45    0.72 
  -1   0  12    2.21    0.83 
  -1   0  12    1.40    0.59 
  -1   0  12    1.34    0.53 
   0   0  12    8.41    0.78 
   0   0  12    6.12    0.98 
   0   0  12    7.02    0.77 
   1   0  12    1.84    0.54 
   1   0  12    1.21    0.43 
  -2   0 -12    1.64    0.49 
   2   0  12    0.92    0.46 
  -3   0 -12    0.25    0.45 
   3   0  12    0.13    0.50 
  -4   0 -12    1.40    0.56 
  -5   0 -12    3.82    0.71 
  -1   1  12    1.69    0.88 
  -1   1  12    2.45    0.62 
  -1   1  12    2.09    0.58 
   0   1  12   -0.41    0.63 
   0   1  12    0.42    0.44 
   0   1  12    0.09    0.47 
   1   1  12    2.23    0.63 
   1   1  12    2.06    0.53 
  -2  -1 -12   -0.21    0.43 
   2   1  12    0.09    0.59 
  -3  -1 -12    5.24    0.72 
   3   1  12    4.95    0.90 
  -4  -1 -12    8.23    0.88 
  -5  -1 -12    2.81    0.71 
  -1   2  12   -0.08    0.53 
  -1   2  12   -0.54    0.71 
   0   2  12    2.77    0.55 
   0   2  12    2.83    0.77 
   0   2  12    0.85    0.58 
   1   2  12    0.48    0.44 
   1   2  12    1.39    0.57 
   1   2  12    0.74    0.47 
  -2  -2 -12    5.18    0.71 
   2   2  12    3.55    0.78 
   2   2  12    3.04    0.54 
  -3  -2 -12    0.62    0.48 
   3   2  12    0.47    0.62 
  -4  -2 -12    0.76    0.52 
   4   2  12    0.34    0.68 
  -5  -2 -12    1.01    0.62 
   0   3  12   -0.57    0.48 
   0   3  12    0.65    0.65 
   1   3  12    0.52    0.47 
   1   3  12    1.31    0.65 
  -2  -3 -12    0.40    0.49 
   2   3  12    0.41    0.56 
  -3  -3 -12    1.59    0.58 
   3   3  12    0.62    0.64 
  -4  -3 -12    8.99    0.94 
   4   3  12    8.18    1.11 
  -5  -3 -12    0.13    0.55 
   1   4  12    0.18    0.63 
   1   4  12    0.86    0.55 
  -2  -4 -12    0.25    0.56 
   2   4  12    0.87    0.64 
  -3  -4 -12    2.95    0.68 
   3   4  12    1.76    0.77 
  -4  -4 -12    3.57    0.71 
   4   4  12    1.29    0.79 
  -5  -4 -12    1.32    0.58 
  -2  -5 -12    0.03    0.55 
   2   5  12    0.48    0.72 
  -3  -5 -12    0.69    0.59 
   3   5  12    0.82    0.76 
  -4  -5 -12    0.86    0.62 
   4   5  12   -0.55    0.75 
   1  -3  13   -0.68    0.53 
   1  -3  13    0.43    0.56 
   2  -3  13   -0.24    0.54 
   0  -2  13    3.27    0.75 
   0  -2  13    3.06    0.64 
   1  -2  13    0.69    0.53 
   1  -2  13    0.07    0.53 
   2  -2  13    0.61    0.50 
   3  -2  13   -0.41    0.47 
   0  -1  13    5.40    0.83 
   1  -1  13    1.80    0.51 
   1  -1  13    2.77    0.70 
   2  -1  13   -0.68    0.44 
   3  -1  13   -0.02    0.49 
   0   0  13    0.85    0.54 
   0   0  13   -0.35    0.66 
   1   0  13    1.41    0.62 
   1   0  13    0.79    0.55 
  -2   0 -13    0.55    0.55 
  -3   0 -13    0.35    0.57 
  -4   0 -13    3.17    0.70 
   0   1  13    7.78    1.09 
   0   1  13    9.48    0.93 
   1   1  13    3.68    0.80 
   1   1  13    2.73    0.63 
  -2  -1 -13    2.19    0.65 
   2   1  13    1.00    0.51 
   2   1  13    1.25    0.70 
  -3  -1 -13    0.82    0.63 
  -4  -1 -13    0.82    0.61 
   1   2  13    1.16    0.67 
  -2  -2 -13    2.54    0.70 
   2   2  13    3.30    0.81 
  -3  -2 -13    0.47    0.61 
   3   2  13   -0.06    0.69 
  -4  -2 -13    8.13    0.93 
   4   2  13    7.30    1.12 
  -2  -3 -13    0.07    0.59 
   2   3  13    0.92    0.73 
  -3  -3 -13    2.46    0.72 
   3   3  13    2.43    0.89 
  -4  -3 -13    0.61    0.61 
   4   3  13   -0.94    0.72 
   0   0   0    0.00    0.00 
;
_shelx_hkl_checksum              84076
loop_
_space_group_symop_operation_xyz
'x, y, z'
'-x, -y, -z'
loop_
_atom_site_label
_atom_site_type_symbol
_atom_site_fract_x
_atom_site_fract_y
_atom_site_fract_z
_atom_site_U_iso_or_equiv
_atom_site_adp_type
_atom_site_occupancy
_atom_site_site_symmetry_order
_atom_site_calc_flag
_atom_site_refinement_flags_posn
_atom_site_refinement_flags_adp
O1 O 0.9618(2) 0.23697(18) 0.50387(14) 0.0252(4) Uani 1 1 d . .
O2 O 0.7528(2) -0.00021(18) 0.68073(14) 0.0260(4) Uani 1 1 d . .
H2 H 0.8606 -0.0712 0.6302 0.039 Uiso 1 1 calc R U
N1 N 0.6417(2) 0.3748(2) 0.66545(16) 0.0168(4) Uani 1 1 d . .
C1 C 0.7718(3) 0.2468(3) 0.58274(19) 0.0204(5) Uani 1 1 d . .
C2 C 0.6487(3) 0.1165(3) 0.6049(2) 0.0217(5) Uani 1 1 d . .
H2A H 0.6554 0.0667 0.5190 0.026 Uiso 1 1 calc R U
C3 C 0.4016(3) 0.2116(3) 0.6791(2) 0.0208(5) Uani 1 1 d . .
H3 H 0.3270 0.2592 0.6104 0.025 Uiso 1 1 calc R U
C4 C 0.2458(3) 0.1193(3) 0.7647(2) 0.0256(5) Uani 1 1 d . .
H4A H 0.0844 0.1821 0.7776 0.031 Uiso 1 1 calc R U
H4B H 0.2715 0.0162 0.7165 0.031 Uiso 1 1 calc R U
C5 C 0.2845(4) 0.0853(3) 0.8988(2) 0.0285(5) Uani 1 1 d . .
H5A H 0.4365 0.0071 0.8876 0.034 Uiso 1 1 calc R U
H5B H 0.1671 0.0378 0.9521 0.034 Uiso 1 1 calc R U
C6 C 0.2714(4) 0.2393(3) 0.9703(2) 0.0278(5) Uani 1 1 d . .
H6A H 0.2933 0.2162 1.0584 0.033 Uiso 1 1 calc R U
H6B H 0.1187 0.3170 0.9828 0.033 Uiso 1 1 calc R U
C7 C 0.4560(3) 0.3116(3) 0.8903(2) 0.0230(5) Uani 1 1 d . .
H7A H 0.6084 0.2343 0.8801 0.028 Uiso 1 1 calc R U
H7B H 0.4486 0.4098 0.9390 0.028 Uiso 1 1 calc R U
C8 C 0.4281(3) 0.3534(2) 0.75354(19) 0.0167(4) Uani 1 1 d . .
C9 C 0.2333(3) 0.5097(3) 0.7600(2) 0.0224(5) Uani 1 1 d . .
H9A H 0.1975 0.5185 0.6746 0.027 Uiso 1 1 calc R U
H9B H 0.0944 0.5038 0.8289 0.027 Uiso 1 1 calc R U
C10 C 0.2940(3) 0.6601(3) 0.7903(2) 0.0244(5) Uani 1 1 d . .
H10A H 0.1678 0.7567 0.7884 0.029 Uiso 1 1 calc R U
H10B H 0.3146 0.6579 0.8796 0.029 Uiso 1 1 calc R U
C11 C 0.5140(3) 0.6677(3) 0.6886(2) 0.0261(5) Uani 1 1 d . .
H11A H 0.4878 0.6806 0.6007 0.031 Uiso 1 1 calc R U
H11B H 0.5563 0.7623 0.7115 0.031 Uiso 1 1 calc R U
C12 C 0.7086(3) 0.5177(3) 0.6830(2) 0.0253(5) Uani 1 1 d . .
H12A H 0.8428 0.5199 0.6089 0.030 Uiso 1 1 calc R U
H12B H 0.7530 0.5144 0.7656 0.030 Uiso 1 1 calc R U
loop_
_atom_site_aniso_label
_atom_site_aniso_U_11
_atom_site_aniso_U_22
_atom_site_aniso_U_33
_atom_site_aniso_U_23
_atom_site_aniso_U_13
_atom_site_aniso_U_12
O1 0.0169(7) 0.0214(8) 0.0305(8) -0.0011(6) 0.0036(6) -0.0053(6)
O2 0.0238(7) 0.0207(8) 0.0281(8) -0.0010(6) -0.0030(6) -0.0025(6)
N1 0.0136(7) 0.0155(9) 0.0216(8) -0.0020(6) -0.0034(6) -0.0062(6)
C1 0.0177(9) 0.0192(11) 0.0221(10) 0.0000(8) -0.0038(8) -0.0037(8)
C2 0.0200(9) 0.0223(11) 0.0211(10) -0.0010(8) -0.0036(8) -0.0058(8)
C3 0.0186(9) 0.0218(11) 0.0225(10) -0.0024(8) -0.0048(8) -0.0074(8)
C4 0.0210(9) 0.0232(11) 0.0334(12) -0.0031(9) -0.0059(9) -0.0091(9)
C5 0.0326(11) 0.0211(11) 0.0284(11) 0.0001(9) -0.0013(9) -0.0100(9)
C6 0.0313(11) 0.0251(12) 0.0228(11) 0.0014(9) -0.0021(9) -0.0071(9)
C7 0.0244(10) 0.0206(11) 0.0244(11) -0.0019(8) -0.0073(8) -0.0066(8)
C8 0.0131(8) 0.0164(10) 0.0200(9) -0.0010(7) -0.0021(7) -0.0060(7)
C9 0.0165(9) 0.0232(11) 0.0264(11) -0.0007(8) -0.0044(8) -0.0054(8)
C10 0.0226(10) 0.0154(10) 0.0310(11) -0.0020(8) -0.0023(8) -0.0040(8)
C11 0.0265(10) 0.0165(11) 0.0338(12) -0.0010(9) -0.0025(9) -0.0097(9)
C12 0.0200(9) 0.0218(11) 0.0334(12) -0.0024(9) -0.0028(8) -0.0094(8)
loop_
_atom_type_symbol
_atom_type_description
_atom_type_scat_dispersion_real
_atom_type_scat_dispersion_imag
_atom_type_scat_source
C C 0.0033 0.0016 'International Tables Vol C Tables 4.2.6.8 and 6.1.1.4'
H H 0.0000 0.0000 'International Tables Vol C Tables 4.2.6.8 and 6.1.1.4'
N N 0.0061 0.0033 'International Tables Vol C Tables 4.2.6.8 and 6.1.1.4'
O O 0.0106 0.0060 'International Tables Vol C Tables 4.2.6.8 and 6.1.1.4'
loop_
_geom_angle_atom_site_label_1
_geom_angle_atom_site_label_2
_geom_angle_atom_site_label_3
_geom_angle
C2 O2 H2 109.5
C1 N1 C12 125.14(16)
C1 N1 C8 114.27(17)
C12 N1 C8 120.18(15)
O1 C1 N1 124.9(2)
O1 C1 C2 126.65(19)
N1 C1 C2 108.46(16)
O2 C2 C1 108.42(16)
O2 C2 C3 113.11(16)
C1 C2 C3 102.48(17)
O2 C2 H2A 110.8
C1 C2 H2A 110.8
C3 C2 H2A 110.8
C2 C3 C4 118.02(18)
C2 C3 C8 104.18(15)
C4 C3 C8 114.78(16)
C2 C3 H3 106.4
C4 C3 H3 106.4
C8 C3 H3 106.4
C5 C4 C3 114.04(18)
C5 C4 H4A 108.7
C3 C4 H4A 108.7
C5 C4 H4B 108.7
C3 C4 H4B 108.7
H4A C4 H4B 107.6
C4 C5 C6 110.37(19)
C4 C5 H5A 109.6
C6 C5 H5A 109.6
C4 C5 H5B 109.6
C6 C5 H5B 109.6
H5A C5 H5B 108.1
C5 C6 C7 109.99(17)
C5 C6 H6A 109.7
C7 C6 H6A 109.7
C5 C6 H6B 109.7
C7 C6 H6B 109.7
H6A C6 H6B 108.2
C6 C7 C8 112.12(17)
C6 C7 H7A 109.2
C8 C7 H7A 109.2
C6 C7 H7B 109.2
C8 C7 H7B 109.2
H7A C7 H7B 107.9
N1 C8 C7 110.53(15)
N1 C8 C9 107.99(15)
C7 C8 C9 111.95(16)
N1 C8 C3 101.30(14)
C7 C8 C3 112.22(17)
C9 C8 C3 112.26(16)
C10 C9 C8 112.94(16)
C10 C9 H9A 109.0
C8 C9 H9A 109.0
C10 C9 H9B 109.0
C8 C9 H9B 109.0
H9A C9 H9B 107.8
C11 C10 C9 109.88(17)
C11 C10 H10A 109.7
C9 C10 H10A 109.7
C11 C10 H10B 109.7
C9 C10 H10B 109.7
H10A C10 H10B 108.2
C12 C11 C10 111.38(18)
C12 C11 H11A 109.4
C10 C11 H11A 109.4
C12 C11 H11B 109.4
C10 C11 H11B 109.4
H11A C11 H11B 108.0
N1 C12 C11 110.78(16)
N1 C12 H12A 109.5
C11 C12 H12A 109.5
N1 C12 H12B 109.5
C11 C12 H12B 109.5
H12A C12 H12B 108.1
loop_
_geom_bond_atom_site_label_1
_geom_bond_atom_site_label_2
_geom_bond_distance
O1 C1 1.243(2)
O2 C2 1.417(3)
O2 H2 0.8400
N1 C1 1.342(3)
N1 C12 1.456(3)
N1 C8 1.477(2)
C1 C2 1.534(3)
C2 C3 1.540(3)
C2 H2A 1.0000
C3 C4 1.542(3)
C3 C8 1.550(3)
C3 H3 1.0000
C4 C5 1.519(3)
C4 H4A 0.9900
C4 H4B 0.9900
C5 C6 1.523(3)
C5 H5A 0.9900
C5 H5B 0.9900
C6 C7 1.530(3)
C6 H6A 0.9900
C6 H6B 0.9900
C7 C8 1.534(3)
C7 H7A 0.9900
C7 H7B 0.9900
C8 C9 1.549(3)
C9 C10 1.531(3)
C9 H9A 0.9900
C9 H9B 0.9900
C10 C11 1.528(3)
C10 H10A 0.9900
C10 H10B 0.9900
C11 C12 1.514(3)
C11 H11A 0.9900
C11 H11B 0.9900
C12 H12A 0.9900
C12 H12B 0.9900
loop_
_geom_hbond_atom_site_label_D
_geom_hbond_atom_site_label_H
_geom_hbond_atom_site_label_A
_geom_hbond_distance_DH
_geom_hbond_distance_HA
_geom_hbond_distance_DA
_geom_hbond_angle_DHA
_geom_hbond_site_symmetry_A
O2 H2 O1 0.84 1.91 2.722(2) 163.9 2_756
loop_
_geom_torsion_atom_site_label_1
_geom_torsion_atom_site_label_2
_geom_torsion_atom_site_label_3
_geom_torsion_atom_site_label_4
_geom_torsion
C12 N1 C1 O1 -4.7(3)
C8 N1 C1 O1 -177.24(18)
C12 N1 C1 C2 174.10(17)
C8 N1 C1 C2 1.5(2)
O1 C1 C2 O2 76.4(2)
N1 C1 C2 O2 -102.36(18)
O1 C1 C2 C3 -163.78(19)
N1 C1 C2 C3 17.5(2)
O2 C2 C3 C4 -40.6(3)
C1 C2 C3 C4 -157.13(18)
O2 C2 C3 C8 88.0(2)
C1 C2 C3 C8 -28.5(2)
C2 C3 C4 C5 79.9(2)
C8 C3 C4 C5 -43.5(2)
C3 C4 C5 C6 52.5(2)
C4 C5 C6 C7 -60.6(2)
C5 C6 C7 C8 60.5(2)
C1 N1 C8 C7 99.5(2)
C12 N1 C8 C7 -73.5(2)
C1 N1 C8 C9 -137.74(18)
C12 N1 C8 C9 49.3(2)
C1 N1 C8 C3 -19.6(2)
C12 N1 C8 C3 167.40(17)
C6 C7 C8 N1 -162.60(16)
C6 C7 C8 C9 77.0(2)
C6 C7 C8 C3 -50.3(2)
C2 C3 C8 N1 29.02(19)
C4 C3 C8 N1 159.58(16)
C2 C3 C8 C7 -88.89(18)
C4 C3 C8 C7 41.7(2)
C2 C3 C8 C9 143.98(16)
C4 C3 C8 C9 -85.5(2)
N1 C8 C9 C10 -50.1(2)
C7 C8 C9 C10 71.8(2)
C3 C8 C9 C10 -160.95(17)
C8 C9 C10 C11 56.2(2)
C9 C10 C11 C12 -56.2(2)
C1 N1 C12 C11 136.5(2)
C8 N1 C12 C11 -51.3(2)
C10 C11 C12 N1 52.0(2)
