#------------------------------------------------------------------------------
#$Date: 2017-11-07 02:40:30 +0200 (Tue, 07 Nov 2017) $
#$Revision: 202675 $
#$URL: file:///home/coder/svn-repositories/cod/cif/4/03/29/4032902.cif $
#------------------------------------------------------------------------------
#
# This file is available in the Crystallography Open Database (COD),
# http://www.crystallography.net/
#
# All data on this site have been placed in the public domain by the
# contributors.
#
data_4032902
loop_
_publ_author_name
'Chang, Meng-Yang'
'Chen, Han-Yu'
'Wang, Heui-Sin'
_publ_section_title
;
 Regiocontrolled Synthesis of \a-Sulfonylmethyl o-Nitrostyrenes via
 ZnI2-Mediated Sulfonylation and AgNO2/Pd(PPh3)4-Promoted o-Nitration.
;
_journal_issue                   19
_journal_name_full               'The Journal of organic chemistry'
_journal_page_first              10601
_journal_page_last               10610
_journal_paper_doi               10.1021/acs.joc.7b02311
_journal_volume                  82
_journal_year                    2017
_chemical_formula_sum            'C10 H11 N O4 S'
_chemical_formula_weight         241.26
_space_group_crystal_system      triclinic
_space_group_IT_number           2
_space_group_name_Hall           '-P 1'
_space_group_name_H-M_alt        'P -1'
_symmetry_space_group_name_Hall  '-P 1'
_symmetry_space_group_name_H-M   'P -1'
_atom_sites_solution_hydrogens   geom
_audit_creation_method           SHELXL-2014/6
_cell_angle_alpha                80.149(2)
_cell_angle_beta                 78.645(2)
_cell_angle_gamma                89.534(2)
_cell_formula_units_Z            2
_cell_length_a                   7.1934(7)
_cell_length_b                   7.9479(7)
_cell_length_c                   9.7888(9)
_cell_measurement_reflns_used    5973
_cell_measurement_temperature    100(2)
_cell_measurement_theta_max      26.4424
_cell_measurement_theta_min      2.8893
_cell_volume                     540.42(9)
_computing_cell_refinement       'SAINT V8.34A (Bruker AXS Inc., 2013)'
_computing_data_collection       'Bruker APEX2'
_computing_data_reduction        'SAINT V8.34A (Bruker AXS Inc., 2013)'
_computing_molecular_graphics    'Bruker SHELXTL'
_computing_publication_material  'Bruker SHELXTL'
_computing_structure_refinement  'SHELXL-2014/6 (Sheldrick, 2014)'
_diffrn_ambient_temperature      100(2)
_diffrn_detector_area_resol_mean 8.3333
_diffrn_measured_fraction_theta_full 0.990
_diffrn_measured_fraction_theta_max 0.991
_diffrn_measurement_device_type  'Bruker APEX-II CCD'
_diffrn_measurement_method       '\f and \w scans'
_diffrn_radiation_type           MoK\a
_diffrn_radiation_wavelength     0.71073
_diffrn_reflns_av_R_equivalents  0.0149
_diffrn_reflns_av_unetI/netI     0.0135
_diffrn_reflns_Laue_measured_fraction_full 0.990
_diffrn_reflns_Laue_measured_fraction_max 0.991
_diffrn_reflns_limit_h_max       9
_diffrn_reflns_limit_h_min       -8
_diffrn_reflns_limit_k_max       9
_diffrn_reflns_limit_k_min       -9
_diffrn_reflns_limit_l_max       12
_diffrn_reflns_limit_l_min       -7
_diffrn_reflns_number            8634
_diffrn_reflns_point_group_measured_fraction_full 0.990
_diffrn_reflns_point_group_measured_fraction_max 0.991
_diffrn_reflns_theta_full        25.242
_diffrn_reflns_theta_max         26.442
_diffrn_reflns_theta_min         2.889
_exptl_absorpt_coefficient_mu    0.297
_exptl_absorpt_correction_T_max  0.9485
_exptl_absorpt_correction_T_min  0.9251
_exptl_absorpt_correction_type   multi-scan
_exptl_absorpt_process_details   'SADABS V2014/4 (Bruker AXS Inc.)'
_exptl_crystal_colour            Colorless
_exptl_crystal_density_diffrn    1.483
_exptl_crystal_density_meas      ?
_exptl_crystal_density_method    'not measured'
_exptl_crystal_description       Lump
_exptl_crystal_F_000             252
_exptl_crystal_size_max          0.22
_exptl_crystal_size_mid          0.20
_exptl_crystal_size_min          0.20
_refine_diff_density_max         0.415
_refine_diff_density_min         -0.386
_refine_diff_density_rms         0.045
_refine_ls_extinction_method     none
_refine_ls_goodness_of_fit_ref   1.043
_refine_ls_hydrogen_treatment    constr
_refine_ls_matrix_type           full
_refine_ls_number_parameters     146
_refine_ls_number_reflns         2206
_refine_ls_number_restraints     0
_refine_ls_restrained_S_all      1.043
_refine_ls_R_factor_all          0.0287
_refine_ls_R_factor_gt           0.0273
_refine_ls_shift/su_max          0.000
_refine_ls_shift/su_mean         0.000
_refine_ls_structure_factor_coef Fsqd
_refine_ls_weighting_details
'w=1/[\s^2^(Fo^2^)+(0.0288P)^2^+0.3611P] where P=(Fo^2^+2Fc^2^)/3'
_refine_ls_weighting_scheme      calc
_refine_ls_wR_factor_gt          0.0665
_refine_ls_wR_factor_ref         0.0674
_reflns_Friedel_coverage         0.000
_reflns_number_gt                2093
_reflns_number_total             2206
_reflns_threshold_expression     'I > 2\s(I)'
_cod_data_source_file            jo7b02311_si_001.cif
_cod_data_source_block           mo_161239LT_0m_a_4c
_cod_depositor_comments
;
The following automatic conversions were performed:

'_exptl_crystal_density_meas' value 'not measured' was changed to '?'
- the value is perceived as not measured.

Automatic conversion script
Id: cif_fix_values 4973 2017-02-22 13:04:09Z antanas 

 Adding full bibliography for 4032901--4032905.cif.
;
_cod_database_code               4032902
_shelx_space_group_comment
;
The symmetry employed for this shelxl refinement is uniquely defined
by the following loop, which should always be used as a source of
symmetry information in preference to the above space-group names.
They are only intended as comments.
;
_shelxl_version_number           2014/6
_shelx_res_file
;
TITL mo_161239LT_0m_a.res in P-1
CELL  0.71073   7.1934   7.9479   9.7888   80.149   78.645   89.534
ZERR    2.000   0.0007   0.0007   0.0009    0.002    0.002    0.002
LATT 1
SFAC C  S  O  H  N
UNIT 20  2  8  22  2
L.S. 4
ACTA
BOND $H
FMAP 2
PLAN 5
TEMP -173.110
WGHT    0.028800    0.361100
FVAR       1.84343
C1    1    0.242375    0.052509    0.057877    11.00000    0.01525    0.01125 =
         0.02293   -0.00655   -0.00483    0.00191
AFIX 137
H1A   4    0.318965    0.014462    0.129300    11.00000   -1.50000
H1B   4    0.326183    0.090105   -0.034093    11.00000   -1.50000
H1C   4    0.160002   -0.042230    0.051414    11.00000   -1.50000
AFIX   0
C2    1    0.267440    0.389240    0.108334    11.00000    0.01188    0.00988 =
         0.01159   -0.00193   -0.00195   -0.00123
AFIX  23
H2A   4    0.351974    0.416504    0.014126    11.00000   -1.20000
H2B   4    0.197108    0.493324    0.126519    11.00000   -1.20000
AFIX   0
C3    1    0.386590    0.340653    0.219259    11.00000    0.01198    0.00921 =
         0.01259   -0.00278   -0.00256   -0.00195
C4    1    0.550061    0.263058    0.189495    11.00000    0.01486    0.01712 =
         0.01804   -0.00683   -0.00492    0.00103
AFIX  93
H4A   4    0.619046    0.225630    0.262000    11.00000   -1.20000
H4B   4    0.598045    0.244964    0.095693    11.00000   -1.20000
AFIX   0
C5    1    0.310298    0.369514    0.366722    11.00000    0.00912    0.01428 =
         0.01230   -0.00261   -0.00346    0.00044
C6    1    0.255642    0.226444    0.471490    11.00000    0.01854    0.01564 =
         0.01753   -0.00126   -0.00475   -0.00018
AFIX  43
H6    4    0.265665    0.115970    0.446367    11.00000   -1.20000
AFIX   0
C7    1    0.186920    0.241798    0.611660    11.00000    0.02039    0.02412 =
         0.01541    0.00398   -0.00301   -0.00236
AFIX  43
H7    4    0.151643    0.142222    0.680939    11.00000   -1.20000
AFIX   0
C8    1    0.169543    0.401469    0.650981    11.00000    0.01584    0.03227 =
         0.01104   -0.00416   -0.00184    0.00206
AFIX  43
H8    4    0.122204    0.411298    0.746904    11.00000   -1.20000
AFIX   0
C9    1    0.221233    0.546406    0.550336    11.00000    0.01345    0.02226 =
         0.01559   -0.00831   -0.00483    0.00367
AFIX  43
H9    4    0.208699    0.656504    0.576072    11.00000   -1.20000
AFIX   0
C10   1    0.291788    0.528713    0.410986    11.00000    0.01061    0.01406 =
         0.01296   -0.00198   -0.00398    0.00099
N1    5    0.355521    0.687576    0.311943    11.00000    0.01569    0.01259 =
         0.01589   -0.00458   -0.00507    0.00105
O1    3    0.000582    0.283082   -0.005513    11.00000    0.01608    0.01564 =
         0.01685   -0.00219   -0.00795    0.00056
O2    3   -0.007744    0.171117    0.247119    11.00000    0.01366    0.01928 =
         0.01455   -0.00125   -0.00014   -0.00291
O3    3    0.420664    0.680204    0.187208    11.00000    0.02428    0.01518 =
         0.01370   -0.00267    0.00060   -0.00212
O4    3    0.345015    0.822280    0.357321    11.00000    0.05677    0.01273 =
         0.02448   -0.00935   -0.00466    0.00089
S1    2    0.102315    0.223379    0.106365    11.00000    0.00958    0.00996 =
         0.01146   -0.00217   -0.00256    0.00016
HKLF 4

REM  mo_161239LT_0m_a.res in P-1
REM R1 =  0.0273 for    2093 Fo > 4sig(Fo)  and  0.0287 for all    2206 data
REM    146 parameters refined using      0 restraints

END

WGHT      0.0288      0.3610

REM Highest difference peak  0.415,  deepest hole -0.386,  1-sigma level  0.045
Q1    1   0.1789  0.1363  0.0818  11.00000  0.05    0.41
Q2    1   0.1905  0.3125  0.1096  11.00000  0.05    0.37
Q3    1   0.3421  0.3591  0.2929  11.00000  0.05    0.34
Q4    1   0.2958  0.4539  0.3826  11.00000  0.05    0.29
Q5    1   0.3236  0.3577  0.1725  11.00000  0.05    0.28
;
_shelx_res_checksum              65848
_shelx_hkl_file
;
  -1   0   0  260.65    4.91
  -1   0   0  258.79    4.63
  -1   0   0  258.77    4.92
   1   0   0  253.70    4.89
   1   0   0  267.28    4.70
   1   0   0  255.89    4.61
  -2   0   0 1887.78   25.94
  -2   0   0 1900.82   25.38
   2   0   0 1824.31   25.10
   2   0   0 1917.24   26.42
   2   0   0 1968.96   26.22
   2   0   0 1906.86   26.06
   2   0   0 1870.40   25.38
  -3   0   0 2280.32   32.10
  -3   0   0 2197.84   30.91
  -3   0   0 2229.56   31.96
   3   0   0 2239.23   30.76
   3   0   0 2234.92   30.94
   3   0   0 2199.21   32.44
   3   0   0 2214.24   32.04
   3   0   0 2237.86   32.11
  -4   0   0    2.52    1.44
  -4   0   0    3.45    1.43
  -4   0   0    1.24    1.42
   4   0   0    2.75    1.65
   4   0   0    2.35    1.73
   4   0   0    3.82    1.35
   4   0   0    2.85    1.38
   4   0   0   -0.26    1.32
   4   0   0    9.77    1.80
  -5   0   0   49.99    4.99
  -5   0   0   61.54    4.42
   5   0   0   63.73    4.42
   5   0   0   54.92    5.25
   5   0   0   51.75    4.03
   5   0   0   59.65    5.54
   5   0   0   65.91    5.26
   5   0   0   63.61    4.41
  -6   0   0   60.24    6.05
  -6   0   0   67.15    5.24
   6   0   0   77.87    7.64
   6   0   0   71.41    6.79
   6   0   0   62.34    6.15
   6   0   0   62.64    4.90
   6   0   0   70.98    6.80
  -7   0   0  159.77    9.34
   7   0   0  158.62    8.08
   7   0   0  173.72    9.85
   7   0   0  166.92   10.09
   8   0   0  254.51   10.90
   8   0   0  261.89   13.49
   8   0   0  291.94   13.89
   8  -1   0    7.89    3.98
   8  -1   0    7.07    3.63
   8  -1   0    3.17    2.43
   7  -1   0 1177.28   24.63
   7  -1   0 1169.58   24.60
   7  -1   0 1216.38   28.17
   7  -1   0 1213.88   27.60
  -7   1   0 1172.20   26.93
   6  -1   0  430.08   14.48
   6  -1   0  433.68   14.28
   6  -1   0  430.53   14.19
   6  -1   0  436.33   12.63
  -6   1   0  429.14   12.94
  -6   1   0  415.00   13.65
   5  -1   0   25.27    3.23
   5  -1   0   36.13    4.46
   5  -1   0   34.52    4.74
   5  -1   0   28.67    3.68
   5  -1   0   26.13    3.96
  -5   1   0   20.28    3.44
  -5   1   0   32.37    3.99
  -5   1   0   27.29    4.01
   4  -1   0  453.21   11.95
   4  -1   0  474.09   11.29
   4  -1   0  462.12   12.08
   4  -1   0  456.09   10.90
   4  -1   0  459.25   12.32
  -4   1   0  460.03   11.93
  -4   1   0  470.01   11.16
   3  -1   0  486.09   11.08
   3  -1   0  488.41   11.07
   3  -1   0  478.87   10.32
   3  -1   0  500.37   10.25
   3  -1   0  488.77   11.26
  -3   1   0  488.91   10.33
  -3   1   0  502.40   11.07
  -3   1   0  489.25   11.02
  -1  -1   0  570.98    9.27
  -1  -1   0  548.19    8.82
  -1  -1   0  550.89    9.30
   1   1   0  568.98    8.82
   1   1   0  551.52    8.74
   1   1   0  550.51    9.22
  -2  -1   0 4371.70   54.75
  -2  -1   0 4325.73   54.73
  -2  -1   0 4311.96   54.02
   2   1   0 4472.80   53.90
   2   1   0 4367.36   53.74
   2   1   0 4421.90   54.86
   2   1   0 4393.40   54.92
  -3  -1   0  418.27   10.11
  -3  -1   0  412.23    9.98
  -3  -1   0  395.99    9.33
   3   1   0  417.17   10.19
   3   1   0  438.77    9.41
   3   1   0  421.78    9.25
   3   1   0  435.30   10.25
  -4  -1   0  323.92    9.71
  -4  -1   0  329.58    9.25
  -4  -1   0  304.94    9.49
   4   1   0  334.94   10.08
   4   1   0  312.59    9.74
   4   1   0  332.29    8.83
   4   1   0  321.61    8.81
  -5  -1   0    0.21    1.30
  -5  -1   0    3.47    1.88
  -5  -1   0   -0.09    1.53
   5   1   0    2.53    1.54
   5   1   0   -0.02    1.68
   5   1   0    1.26    1.45
   5   1   0    1.27    1.87
   5   1   0    0.97    1.64
  -6  -1   0  206.60    8.87
  -6  -1   0  201.96    9.47
   6   1   0  184.64    9.59
   6   1   0  202.51    8.36
   6   1   0  203.04    9.71
   6   1   0  208.39    8.39
   6   1   0  192.22    9.61
  -7  -1   0  447.66   15.35
   7   1   0  456.85   13.68
   7   1   0  431.80   15.69
   7   1   0  417.78   16.05
   8   1   0  286.45   14.27
   8   1   0  308.13   14.31
   8   1   0  277.41   11.28
   8  -2   0  780.70   20.58
   8  -2   0  782.80   20.66
   8  -2   0  830.86   24.59
   8  -2   0  824.11   23.93
   7  -2   0  297.47   12.84
   7  -2   0  291.07   13.30
   7  -2   0  319.70   11.67
   6  -2   0    7.70    2.60
   6  -2   0    4.72    2.64
   6  -2   0    1.07    2.13
  -6   2   0    3.13    1.99
   5  -2   0  198.93    8.64
   5  -2   0  196.72    7.85
   5  -2   0  171.21    7.23
   5  -2   0  187.50    8.46
   5  -2   0  174.14    8.50
  -5   2   0  188.99    8.39
  -5   2   0  180.53    7.54
  -5   2   0  182.36    8.54
   4  -2   0  233.59    8.44
   4  -2   0  221.61    8.49
   4  -2   0  231.82    7.78
   4  -2   0  214.58    8.20
   4  -2   0  228.81    7.54
  -4   2   0  229.53    8.29
  -4   2   0  227.30    7.71
   3  -2   0  141.89    5.42
   3  -2   0  139.16    5.86
   3  -2   0  134.37    5.98
   3  -2   0  137.17    5.80
   3  -2   0  137.82    5.20
  -3   2   0  140.98    5.87
  -3   2   0  166.45    7.38
   2  -2   0 3134.29   40.00
   2  -2   0 3028.68   40.65
  -2   2   0 2994.07   39.82
  -2   2   0 3059.73   39.65
  -2   2   0 3034.27   40.70
   1  -2   0  686.05   11.91
   1  -2   0  697.39   11.53
   1  -2   0  693.94   11.99
  -1   2   0  700.66   13.13
  -1   2   0  713.55   11.46
  -1   2   0  715.00   12.14
  -1   2   0  685.17   11.43
  -1  -2   0  162.76    4.62
  -1  -2   0  165.78    4.94
  -1  -2   0  167.82    4.97
   1   2   0  153.73    4.39
   1   2   0  156.60    4.40
   1   2   0  161.37    4.92
   1   2   0  152.56    4.85
  -2  -2   0 7222.36   87.16
  -2  -2   0 7271.10   88.05
  -2  -2   0 7190.17   87.95
   2   2   0 7148.30   88.10
   2   2   0 7228.03   86.73
  -3  -2   0  911.09   16.92
  -3  -2   0  877.70   16.64
  -3  -2   0  879.37   16.00
   3   2   0  855.46   16.81
   3   2   0  875.49   15.61
   3   2   0  884.97   15.51
   3   2   0  869.41   16.89
  -4  -2   0 1768.73   29.37
  -4  -2   0 1804.07   28.58
  -4  -2   0 1756.78   29.35
   4   2   0 1749.88   29.64
   4   2   0 1769.65   29.80
   4   2   0 1783.29   27.82
   4   2   0 1788.78   27.83
  -5  -2   0  345.09   17.31
  -5  -2   0  328.34   10.61
  -5  -2   0  348.49   11.38
   5   2   0  358.93   11.78
   5   2   0  330.37    9.94
   5   2   0  326.18   11.43
   5   2   0  341.84   10.21
  -6  -2   0   76.42    7.12
   6   2   0   62.03    6.60
   6   2   0   53.30    5.92
   6   2   0   66.68    5.06
   6   2   0   71.18    7.26
  -7  -2   0  115.26    8.23
   7   2   0  124.57    7.23
   7   2   0  109.53    8.26
   7   2   0  115.94    8.91
   8   2   0   23.40    4.12
   8   2   0   19.87    5.22
   8   2   0   15.54    4.66
   8  -3   0  191.57   11.93
   8  -3   0  166.13   11.12
   8  -3   0  189.89    9.87
   7  -3   0  574.98   16.76
   7  -3   0  563.37   18.47
   7  -3   0  565.14   18.88
   6  -3   0   32.61    4.99
   6  -3   0   27.62    4.91
   6  -3   0   24.31    3.85
  -6   3   0   26.44    4.30
   5  -3   0  353.33   12.39
   5  -3   0  374.68   11.54
   5  -3   0  363.35   12.35
   5  -3   0  375.81   12.50
  -5   3   0  366.51   12.32
  -5   3   0  377.36   11.49
   4  -3   0  386.99   10.92
   4  -3   0  391.61   11.80
   4  -3   0  395.85   10.71
   4  -3   0  387.87   11.71
  -4   3   0  394.74   10.97
  -4   3   0  427.85   12.14
  -4   3   0  375.47   10.66
   3  -3   0   19.52    2.67
   3  -3   0   16.10    2.65
  -3   3   0   14.90    2.12
  -3   3   0   15.71    2.54
  -3   3   0   28.07    2.92
   2  -3   0 2960.66   41.05
   2  -3   0 2966.98   40.11
   2  -3   0 2934.14   40.95
  -2   3   0 2967.90   41.22
  -2   3   0 2941.59   43.30
   1  -3   0 2205.01   31.37
   1  -3   0 2267.38   30.80
   1  -3   0 2220.97   31.44
  -1   3   0 2213.33   30.36
  -1   3   0 2246.36   31.68
  -1   3   0 2142.73   30.31
  -1   3   0 2210.13   33.40
   0  -3   0   11.55    1.93
   0  -3   0   10.98    1.72
   0  -3   0    9.37    1.66
   0   3   0    8.35    1.94
   0   3   0   16.95    2.00
   0   3   0    9.55    1.79
   0   3   0   10.24    1.90
   0   3   0   10.35    1.60
  -1  -3   0 3151.21   41.74
  -1  -3   0 3160.62   42.49
  -1  -3   0 3145.09   42.54
   1   3   0 3236.10   41.32
   1   3   0 3167.12   42.76
   1   3   0 3181.39   42.74
   1   3   0 3134.42   41.28
   1   3   0 3286.52   45.05
  -2  -3   0 3936.62   52.28
  -2  -3   0 3955.95   51.51
  -2  -3   0 3954.94   52.37
   2   3   0 3896.18   52.56
   2   3   0 3928.15   50.89
   2   3   0 3884.28   50.70
   2   3   0 3990.15   55.06
   2   3   0 3968.92   52.82
  -3  -3   0  137.80    6.25
  -3  -3   0  145.56    6.00
  -3  -3   0  142.77    6.58
   3   3   0  151.72    6.65
   3   3   0  144.68    6.43
   3   3   0  148.77    5.72
   3   3   0  147.27    7.49
   3   3   0  137.71    5.53
  -4  -3   0   16.75    4.19
  -4  -3   0   21.74    3.52
  -4  -3   0   14.43    2.72
   4   3   0    7.82    2.51
   4   3   0   11.76    2.25
   4   3   0   13.20    2.69
   4   3   0   16.43    2.67
  -5  -3   0  363.35   11.62
  -5  -3   0  381.95   12.57
   5   3   0  371.34   10.97
   5   3   0  376.76   12.85
   5   3   0  361.86   10.74
   5   3   0  374.70   12.74
  -6  -3   0   20.99    4.10
   6   3   0   19.72    4.00
   6   3   0   20.35    3.26
  -7  -3   0  323.53   20.60
   7   3   0  319.83   11.63
   7   3   0  338.14   14.43
   8   3   0  396.37   16.72
   8   3   0  377.63   17.24
   8   3   0  387.57   13.37
   8  -4   0  126.80   12.23
   8  -4   0  141.76   10.56
   7  -4   0   14.63    4.25
   7  -4   0   17.97    3.86
   6  -4   0    4.45    2.79
   6  -4   0    3.20    2.23
  -6   4   0    3.31    2.27
   5  -4   0   54.66    5.32
   5  -4   0   51.66    5.77
  -5   4   0   65.97    6.18
   4  -4   0   55.69    5.30
   4  -4   0   45.49    5.04
   4  -4   0   55.14    5.13
   4  -4   0   59.05    5.54
  -4   4   0   59.85    5.60
  -4   4   0   43.62    4.39
  -4   4   0   53.66    6.53
  -4   4   0   41.59    3.98
   3  -4   0 3249.86   47.65
   3  -4   0 3344.29   46.67
   3  -4   0 3281.48   47.62
  -3   4   0 3314.99   46.15
  -3   4   0 3263.62   47.74
  -3   4   0 3214.15   45.70
  -3   4   0 3229.76   50.80
   2  -4   0   90.94    5.11
   2  -4   0   82.29    4.92
   2  -4   0   84.20    4.65
  -2   4   0   84.57    5.01
  -2   4   0   78.02    5.51
   1  -4   0  653.06   13.97
   1  -4   0  653.27   13.92
   1  -4   0  656.30   13.31
  -1   4   0  624.14   15.33
  -1   4   0  636.79   14.09
  -1   4   0  638.59   12.78
  -1   4   0  624.35   14.04
  -1   4   0  628.36   12.86
   0  -4   0 1040.76   18.67
   0  -4   0 1013.26   18.52
   0  -4   0  992.91   17.66
   0   4   0 1035.93   17.42
   0   4   0  997.25   18.72
   0   4   0 1022.37   18.86
   0   4   0 1027.08   17.41
   0   4   0 1024.04   20.62
  -1  -4   0  964.06   18.15
  -1  -4   0  976.22   18.07
  -1  -4   0  942.16   17.38
   1   4   0  988.32   20.36
   1   4   0  947.20   18.32
   1   4   0  954.70   16.86
   1   4   0 1007.71   18.68
   1   4   0  971.08   16.90
  -2  -4   0 1039.84   18.98
  -2  -4   0 1060.03   19.89
  -2  -4   0 1063.86   27.30
   2   4   0 1027.91   18.28
   2   4   0 1050.89   22.16
   2   4   0 1034.70   20.07
   2   4   0 1060.18   18.43
   2   4   0 1039.61   20.18
  -3  -4   0  184.58    7.38
  -3  -4   0  198.30    7.96
   3   4   0  199.14    7.08
   3   4   0  202.69    7.08
   3   4   0  198.64    8.26
   3   4   0  204.35    8.31
   3   4   0  202.32    9.38
  -4  -4   0   46.72    4.62
  -4  -4   0   48.76    5.13
   4   4   0   55.82    5.70
   4   4   0   57.32    4.25
   4   4   0   79.28    5.81
   4   4   0   61.56    4.41
  -5  -4   0  281.54   11.09
   5   4   0  274.27    9.42
   5   4   0  285.24    9.70
   5   4   0  232.08   10.60
   5   4   0  257.47   11.19
  -6  -4   0 1056.21   24.98
   6   4   0 1048.82   22.03
   6   4   0 1055.01   25.70
   7   4   0  163.63    8.31
   7   4   0  152.39   10.28
   7  -5   0  298.94   14.11
  -7   5   0  301.41   16.41
   6  -5   0   65.89    6.55
   6  -5   0   56.79    7.00
  -6   5   0   56.08    6.20
  -6   5   0   48.49    7.66
   5  -5   0  841.94   20.02
   5  -5   0  805.46   21.22
  -5   5   0  852.70   19.80
  -5   5   0  831.50   24.42
   4  -5   0   20.18    3.65
   4  -5   0   16.83    3.66
  -4   5   0   18.88    4.64
  -4   5   0   17.37    3.09
  -4   5   0   11.55    2.96
   3  -5   0   10.38    2.79
   3  -5   0    7.76    2.27
   3  -5   0   11.00    2.72
  -3   5   0   11.99    2.71
  -3   5   0   14.47    2.65
  -3   5   0   14.99    3.75
  -3   5   0   10.14    2.56
   2  -5   0   57.52    4.71
   2  -5   0   61.25    4.82
  -2   5   0   63.95    6.79
  -2   5   0   58.44    4.07
  -2   5   0   54.40    5.35
  -2   5   0   61.87    5.72
  -2   5   0   60.64    4.22
   1  -5   0 1990.33   32.13
   1  -5   0 2025.96   31.47
   1  -5   0 1984.95   32.48
  -1   5   0 1968.79   32.90
  -1   5   0 1995.51   30.87
  -1   5   0 2022.82   30.70
  -1   5   0 2007.84   35.40
  -1   5   0 1985.10   32.80
   0  -5   0  569.90   13.22
   0  -5   0  548.90   13.59
   0  -5   0  550.69   13.62
   0   5   0  545.85   12.41
   0   5   0  540.60   13.95
   0   5   0  555.38   12.52
   0   5   0  564.06   15.70
   0   5   0  572.72   14.22
  -1  -5   0  170.40    9.55
  -1  -5   0  175.08    7.46
  -1  -5   0  186.29    7.21
   1   5   0  176.69    7.68
   1   5   0  174.93    7.63
   1   5   0  180.19    6.64
   1   5   0  174.72    8.68
   1   5   0  188.35    6.83
  -2  -5   0 1727.13   29.01
  -2  -5   0 1742.90   29.89
   2   5   0 1764.76   30.49
   2   5   0 1781.89   27.82
   2   5   0 1715.67   30.30
   2   5   0 1712.99   32.85
   2   5   0 1728.70   27.80
  -3  -5   0  597.11   15.65
  -3  -5   0  614.58   15.15
   3   5   0  581.52   17.89
   3   5   0  621.73   14.18
   3   5   0  586.99   16.07
   3   5   0  594.20   14.03
   3   5   0  596.67   16.00
  -4  -5   0  192.13    9.02
   4   5   0  185.59    9.46
   4   5   0  201.40   11.02
   4   5   0  199.90    7.99
   4   5   0  212.41    8.23
   4   5   0  197.06    9.46
  -5  -5   0  588.56   17.28
   5   5   0  568.07   14.91
   5   5   0  616.80   18.34
   6   5   0   84.56    6.01
   6   5   0   89.65    9.09
   7   5   0  147.22    7.98
   7   5   0  143.76   10.43
   7  -6   0  297.74   15.68
  -7   6   0  267.79   16.23
   6  -6   0    4.22    3.25
  -6   6   0    1.07    3.48
  -6   6   0    5.23    3.01
   5  -6   0  698.17   20.33
  -5   6   0  691.36   23.35
  -5   6   0  734.12   18.70
   4  -6   0   18.33    3.79
   4  -6   0   28.02    4.72
  -4   6   0   20.39    5.03
  -4   6   0   20.29    3.45
   3  -6   0 1330.23   27.23
   3  -6   0 1382.95   26.24
  -3   6   0 1358.18   25.15
  -3   6   0 1375.91   31.10
  -3   6   0 1235.75   27.40
   2  -6   0  309.57   11.26
   2  -6   0  292.10   10.45
  -2   6   0  287.74    9.86
  -2   6   0  296.65    9.74
  -2   6   0  302.31   11.31
  -2   6   0  296.55   11.35
  -2   6   0  318.23   13.08
   1  -6   0  794.89   18.83
   1  -6   0  829.68   18.20
  -1   6   0  831.81   19.44
  -1   6   0  795.08   17.17
  -1   6   0  825.18   17.29
  -1   6   0  804.36   19.38
  -1   6   0  809.04   21.38
   0  -6   0    1.08    1.92
   0  -6   0    3.19    2.00
   0   6   0    0.96    1.62
   0   6   0   -2.02    1.78
   0   6   0   -0.66    1.95
   0   6   0   -0.95    1.27
   0   6   0   -0.53    1.55
  -1  -6   0 5791.27   79.38
  -1  -6   0 5873.83   78.18
   1   6   0 5753.35   76.33
   1   6   0 5895.59   76.55
   1   6   0 5849.86   80.37
   1   6   0 5923.44   80.43
   1   6   0 5945.05   84.24
  -2  -6   0    5.86    2.55
  -2  -6   0    1.65    1.83
   2   6   0    3.15    1.69
   2   6   0    3.73    1.82
   2   6   0    6.23    2.44
   2   6   0    6.52    3.06
   2   6   0    4.61    2.36
  -3  -6   0  929.68   21.52
   3   6   0  905.22   18.93
   3   6   0  892.89   24.36
   3   6   0  934.77   22.12
   3   6   0  884.81   21.86
   3   6   0  895.79   18.97
  -4  -6   0  265.35   11.36
   4   6   0  239.05   10.91
   4   6   0  225.54   11.05
   4   6   0  258.76    9.56
   4   6   0  259.42   13.23
   5   6   0   43.41    6.22
   5   6   0   40.98    4.97
   6   6   0  717.87   18.26
   6   6   0  777.90   23.46
  -6   7   0  684.14   19.55
  -6   7   0  670.47   25.28
   5  -7   0 1101.97   27.66
  -5   7   0 1129.85   31.96
  -5   7   0 1119.01   25.10
   4  -7   0   47.75    6.39
  -4   7   0   41.25    5.29
  -4   7   0   49.29    7.82
  -4   7   0   47.39    6.37
   3  -7   0   67.63    6.95
  -3   7   0   66.13    5.84
  -3   7   0   64.97    8.35
  -3   7   0   66.52    7.53
   2  -7   0  279.96   11.69
  -2   7   0  288.17   12.26
  -2   7   0  283.98   13.50
  -2   7   0  275.62   10.11
   1  -7   0 2225.10   48.33
   1  -7   0 2153.19   37.88
  -1   7   0 2100.68   34.73
  -1   7   0 2094.30   38.54
  -1   7   0 2218.29   42.45
  -1   7   0 2079.13   38.71
   0  -7   0  562.38   16.22
   0   7   0  556.99   18.72
   0   7   0  555.03   14.31
   0   7   0  543.77   16.56
   0   7   0  546.76   14.43
   0   7   0  584.11   17.13
  -1  -7   0 1079.41   24.16
   1   7   0 1116.00   22.00
   1   7   0 1119.27   25.25
   1   7   0 1092.72   25.10
   1   7   0 1078.68   27.78
   1   7   0 1112.95   21.96
  -2  -7   0  206.39   10.05
   2   7   0  204.65   10.40
   2   7   0  238.94   13.93
   2   7   0  228.82    9.67
   2   7   0  230.04    8.94
   2   7   0  228.91   12.30
  -3  -7   0   61.58    6.65
   3   7   0   60.25    7.70
   3   7   0   65.96    6.06
   3   7   0   58.29    6.72
   4   7   0  806.93   22.64
   4   7   0  779.59   18.43
   4   7   0  726.04   24.33
   5   7   0  513.59   14.88
   5   7   0  535.21   19.06
   6   7   0  342.88   12.08
   6   7   0  326.19   15.87
  -5   8   0  140.67    8.69
  -5   8   0  128.88   10.11
  -5   8   0  151.55   12.46
  -4   8   0   78.13    7.46
  -4   8   0   75.87    9.82
  -4   8   0   84.31    9.01
   3  -8   0 1687.38   35.15
  -3   8   0 1705.53   31.59
  -3   8   0 1658.01   35.68
  -3   8   0 1633.84   39.10
   2  -8   0  242.30   11.62
  -2   8   0  245.11   13.72
  -2   8   0  257.88   10.24
  -2   8   0  258.30   12.26
   1  -8   0    6.87    3.01
  -1   8   0    5.94    2.55
  -1   8   0    2.68    2.72
  -1   8   0    4.70    3.82
   0  -8   0   19.68    4.31
   0   8   0   28.27    4.28
   0   8   0   20.05    4.60
   0   8   0   28.89    6.37
  -1  -8   0  260.42   11.73
   1   8   0  236.84   13.45
   1   8   0  272.69   12.50
   1   8   0  247.74    9.82
   2   8   0   42.39    6.95
   2   8   0   39.64    4.87
   2   8   0   46.92    6.37
   3   8   0  262.24   14.71
   3   8   0  221.77   12.22
   3   8   0  234.44    9.72
   4   8   0  146.99    7.81
   4   8   0  120.49   12.27
   4   8   0  144.45   10.61
  -3   9   0   94.72    7.15
  -3   9   0   76.96   10.23
  -3   9   0  114.39   10.97
  -2   9   0   52.41    8.56
  -2   9   0   68.60    8.46
  -2   9   0   69.54    6.49
  -1   9   0  163.02    8.46
  -1   9   0  166.17   10.78
  -1   9   0  165.13   12.26
   0   9   0   64.65    9.31
   0   9   0   64.80    7.85
   0   9   0   73.23    6.44
   1   9   0   42.82    5.20
   1   9   0   22.32    5.73
   1   9   0   28.17    5.67
   2   9   0   91.79    9.76
   2   9   0  123.76   12.71
   2   9   0   92.62    6.55
   3   9   0  457.80   20.79
   3   9   0  470.11   14.48
   3   9   0  497.12   19.19
   2   9  -1  239.58   10.90
   2   9  -1  224.91   13.07
   2   9  -1  251.30   15.04
   1   9  -1    4.83    4.08
   1   9  -1    2.87    3.47
   1   9  -1    3.70    2.53
   0   9  -1  201.02   13.26
   0   9  -1  228.41   12.50
   0   9  -1  212.69   10.13
  -1   9  -1  139.08   11.26
  -1   9  -1  142.39   10.17
  -1   9  -1  162.29    8.95
   1  -9   1  178.90   17.34
  -2   9  -1  103.75   10.15
  -2   9  -1   81.77   10.51
  -2   9  -1   90.21    6.89
  -3   9  -1  638.75   21.66
  -3   9  -1  628.65   18.74
  -3   9  -1  618.66   23.88
   4   8  -1  947.74   29.67
   4   8  -1  979.96   23.17
   4   8  -1  958.95   27.07
   3   8  -1  247.76   14.33
   3   8  -1  256.27   10.94
   3   8  -1  291.71   13.88
   2   8  -1 1078.91   30.09
   2   8  -1 1120.88   24.40
   2   8  -1 1113.16   27.85
  -2  -8   1 1130.33   27.36
   1   8  -1   50.15    5.42
   1   8  -1   61.08    7.43
   1   8  -1   46.43    7.30
  -1  -8   1   37.86    5.80
   0   8  -1   78.85    8.95
   0   8  -1   92.81    6.50
   0   8  -1   73.81    7.76
   0  -8   1   91.84    8.54
  -1   8  -1   39.18    5.96
  -1   8  -1   40.33    5.01
  -1   8  -1   50.78    7.81
   1  -8   1   35.50    5.50
  -2   8  -1  638.96   19.98
  -2   8  -1  661.21   17.87
  -2   8  -1  630.39   21.95
   2  -8   1  664.74   20.06
  -3   8  -1    5.29    2.76
  -3   8  -1    8.63    3.56
  -3   8  -1    5.47    3.93
   3  -8   1    8.00    3.64
  -4   8  -1    3.60    3.67
  -4   8  -1    8.96    3.93
   4  -8   1    1.54    2.75
  -5   8  -1   23.60    6.38
  -5   8  -1   21.02    5.44
   5  -8   1   35.93    6.47
   5   7  -1  761.80   23.34
   5   7  -1  778.33   19.95
   4   7  -1  709.79   18.50
   4   7  -1  681.84   21.17
   4   7  -1  724.98   23.91
  -4  -7   1  704.85   21.01
   3   7  -1  117.84    8.66
   3   7  -1  108.88    9.28
   3   7  -1  119.53    7.22
  -3  -7   1  114.00    8.16
   2   7  -1   11.95    2.93
   2   7  -1   14.58    4.59
   2   7  -1   21.43    4.40
  -2  -7   1   16.72    3.96
   1   7  -1  439.88   14.98
   1   7  -1  453.00   17.00
   1   7  -1  449.76   13.33
  -1  -7   1  438.53   14.93
  -1  -7   1  441.88   13.97
   0   7  -1  583.88   19.30
   0   7  -1  548.78   16.93
   0   7  -1  567.68   15.25
   0  -7   1  594.12   16.11
   0  -7   1  580.93   17.04
  -1   7  -1 2079.55   41.12
  -1   7  -1 2014.23   37.86
  -1   7  -1 2132.40   35.42
   1  -7   1 2054.15   35.80
   1  -7   1 2076.97   37.75
  -2   7  -1   15.37    3.29
  -2   7  -1   10.21    3.87
  -2   7  -1    9.47    3.24
   2  -7   1    6.09    2.59
   2  -7   1   17.16    3.98
  -3   7  -1    7.60    2.75
  -3   7  -1    6.89    3.59
  -3   7  -1   11.20    3.64
   3  -7   1    7.30    3.08
   3  -7   1    7.32    3.16
  -4   7  -1 1064.05   26.14
  -4   7  -1 1003.76   28.74
  -4   7  -1 1040.91   23.50
   4  -7   1 1053.81   23.95
   4  -7   1 1042.18   25.93
  -5   7  -1 1011.85   30.01
  -5   7  -1  996.91   26.22
   5  -7   1 1043.82   26.95
   5  -7   1 1013.28   24.23
  -6   7  -1  509.91   21.81
   6  -7   1  543.22   21.82
   6  -7   1  545.43   19.65
   6   6  -1   80.27    9.28
   6   6  -1   98.35    7.14
   5   6  -1   79.12    6.24
   5   6  -1   89.43    8.94
  -5  -6   1   87.39    8.78
   4   6  -1  529.19   17.26
   4   6  -1  530.17   15.10
   4   6  -1  504.58   18.72
  -4  -6   1  506.88   16.67
   3   6  -1  147.11    7.47
   3   6  -1  150.48    8.74
   3   6  -1  144.31    9.60
  -3  -6   1  141.78    8.46
   2   6  -1 2190.02   35.78
   2   6  -1 2180.92   38.78
   2   6  -1 2239.65   38.99
   2   6  -1 2269.33   41.83
  -2  -6   1 2265.81   38.79
  -2  -6   1 2255.58   37.13
   1   6  -1  235.91   11.29
   1   6  -1  241.58   10.14
   1   6  -1  231.87    8.84
   1   6  -1  253.21   10.85
   1   6  -1  248.22   10.23
  -1  -6   1  236.77    9.97
  -1  -6   1  243.25    9.32
   0   6  -1  166.64    8.47
   0   6  -1  170.15    9.41
   0   6  -1  164.53    7.35
   0   6  -1  174.78    8.47
   0   6  -1  156.27    7.36
   0  -6   1  164.95    8.22
   0  -6   1  157.27    8.13
   0  -6   1  177.52    7.81
  -1   6  -1  344.17   13.27
  -1   6  -1  339.93   10.68
  -1   6  -1  310.97   11.52
  -1   6  -1  343.62   12.08
   1  -6   1  338.67   10.88
   1  -6   1  320.23   11.68
   1  -6   1  341.65   11.86
  -2   6  -1 1253.95   28.54
  -2   6  -1 1292.07   26.70
  -2   6  -1 1287.33   24.45
   2  -6   1 1327.96   24.99
   2  -6   1 1295.58   26.41
  -3   6  -1  124.26    7.87
  -3   6  -1  154.88    9.74
  -3   6  -1  150.29    7.40
   3  -6   1  135.23    7.27
   3  -6   1  142.80    8.27
  -4   6  -1  291.14   12.21
  -4   6  -1  294.63   10.96
  -4   6  -1  295.43   13.87
   4  -6   1  286.28   12.12
   4  -6   1  288.17   10.95
  -5   6  -1  160.77   11.20
   5  -6   1  147.35    8.28
   5  -6   1  144.92    9.48
  -6   6  -1  429.61   19.09
   6  -6   1  462.19   17.25
   6  -6   1  459.69   15.28
  -7   6  -1  619.09   24.21
   7  -6   1  584.31   18.22
   7  -6   1  589.93   20.72
   7   5  -1  110.36   10.55
   7   5  -1  120.70    7.91
   6   5  -1 1258.73   30.28
   6   5  -1 1288.67   26.87
  -6  -5   1 1301.92   29.97
   5   5  -1 1224.46   25.15
   5   5  -1 1246.60   28.46
  -5  -5   1 1257.24   27.99
   4   5  -1  511.61   14.05
   4   5  -1  499.37   15.75
  -4  -5   1  489.37   15.45
  -4  -5   1  486.03   14.49
   3   5  -1  764.72   17.34
   3   5  -1  765.16   20.87
   3   5  -1  743.31   18.62
   3   5  -1  769.21   17.22
   3   5  -1  780.26   19.16
  -3  -5   1  789.40   19.19
  -3  -5   1  768.89   17.73
   2   5  -1    5.14    1.96
   2   5  -1    4.26    2.26
   2   5  -1    3.78    2.59
   2   5  -1    8.19    2.60
   2   5  -1    9.21    2.18
  -2  -5   1    3.50    1.94
  -2  -5   1    5.12    2.41
  -2  -5   1    6.29    1.98
   1   5  -1  192.30    9.17
   1   5  -1  203.04    7.45
   1   5  -1  186.97    8.07
   1   5  -1  198.02    7.53
  -1  -5   1  206.04    8.39
  -1  -5   1  195.91    8.18
  -1  -5   1  194.71    7.58
   0   5  -1   68.16    5.59
   0   5  -1   72.95    5.09
   0   5  -1   62.33    4.88
   0   5  -1   65.34    4.38
   0   5  -1   63.63    4.26
   0  -5   1   66.12    4.92
   0  -5   1   68.76    4.98
   0  -5   1   68.05    4.52
   0  -5   1   59.71    4.16
  -1   5  -1   57.65    5.47
  -1   5  -1   50.64    3.89
  -1   5  -1   58.07    4.61
  -1   5  -1   50.94    4.01
  -1   5  -1   59.33    6.05
   1  -5   1   56.26    5.39
   1  -5   1   52.86    3.97
   1  -5   1   57.93    5.32
   1  -5   1   49.90    4.39
  -2   5  -1    0.90    1.13
  -2   5  -1    0.64    1.68
  -2   5  -1    1.81    2.15
  -2   5  -1    1.24    1.45
  -2   5  -1    1.89    1.52
   2  -5   1    1.17    1.28
   2  -5   1    3.25    1.93
   2  -5   1    0.38    1.47
   2  -5   1    0.30    1.27
  -3   5  -1  318.63   12.70
  -3   5  -1  333.20   10.34
  -3   5  -1  322.79   11.28
   3  -5   1  306.96    9.88
   3  -5   1  312.14   11.14
   3  -5   1  315.21   11.19
  -4   5  -1 1060.93   26.40
  -4   5  -1 1140.84   22.56
   4  -5   1 1041.13   25.05
   4  -5   1 1105.14   22.31
   4  -5   1 1108.00   24.08
  -5   5  -1 1282.60   26.00
  -5   5  -1 1272.15   30.90
   5  -5   1 1268.65   25.51
   5  -5   1 1265.89   27.94
  -6   5  -1  747.89   24.27
   6  -5   1  695.14   18.62
   6  -5   1  741.38   21.35
  -7   5  -1  241.61   14.76
   7  -5   1  242.78   10.98
   7  -5   1  238.19   12.84
   7   4  -1  315.49   14.79
   7   4  -1  346.41   12.86
   6   4  -1   58.06    6.93
   6   4  -1   65.16    6.49
  -6  -4   1   58.56    7.03
   5   4  -1  278.54   10.34
   5   4  -1  288.18   11.94
  -5  -4   1  286.24   11.81
  -5  -4   1  283.62   10.96
   4   4  -1    5.14    2.41
   4   4  -1    0.94    1.68
   4   4  -1    0.85    2.00
   4   4  -1    0.43    1.47
  -4  -4   1    5.00    1.96
  -4  -4   1    4.33    2.26
   3   4  -1  313.59    9.70
   3   4  -1  333.70   10.98
   3   4  -1  309.67   11.86
   3   4  -1  314.04   10.76
   3   4  -1  329.97    9.88
  -3  -4   1  331.19   10.90
  -3  -4   1  309.31   10.66
  -3  -4   1  318.52    9.98
   2   4  -1 1920.07   29.74
   2   4  -1 1884.02   29.68
   2   4  -1 1944.62   33.46
   2   4  -1 1911.14   31.44
   2   4  -1 1888.47   31.18
  -2  -4   1 1907.38   31.28
  -2  -4   1 1961.96   30.29
  -2  -4   1 1952.64   31.59
   1   4  -1  201.43    7.55
   1   4  -1  218.18    8.66
   1   4  -1  207.97    7.63
   1   4  -1  198.21    6.89
   1   4  -1  208.36    6.99
  -1  -4   1  212.67    7.75
  -1  -4   1  202.96    7.93
  -1  -4   1  211.22    7.72
   0   4  -1   12.85    2.46
   0   4  -1   12.27    2.17
   0   4  -1    9.34    2.07
   0   4  -1    8.31    2.37
   0   4  -1   17.96    2.85
   0  -4   1   11.92    2.26
   0  -4   1   11.34    2.37
   0  -4   1   12.55    2.27
   0  -4   1   11.90    2.26
  -1   4  -1    0.77    1.17
  -1   4  -1   -1.30    1.18
  -1   4  -1    2.55    1.30
  -1   4  -1    3.54    1.98
   1  -4   1    2.59    1.51
   1  -4   1    5.51    1.85
   1  -4   1    0.48    1.40
   1  -4   1    5.29    1.67
  -2   4  -1 1158.96   23.36
  -2   4  -1 1204.14   20.61
  -2   4  -1 1183.39   21.77
   2  -4   1 1154.73   21.63
   2  -4   1 1134.11   20.11
   2  -4   1 1179.51   21.80
   2  -4   1 1153.92   20.36
  -3   4  -1  927.71   21.24
  -3   4  -1  916.65   19.06
  -3   4  -1  923.25   17.89
   3  -4   1  897.50   18.99
   3  -4   1  859.50   17.62
   3  -4   1  873.88   18.98
   3  -4   1  875.81   17.40
  -4   4  -1 1475.09   26.26
  -4   4  -1 1464.42   30.71
  -4   4  -1 1475.74   27.69
   4  -4   1 1546.46   28.39
   4  -4   1 1500.14   27.99
   4  -4   1 1550.45   26.55
   4  -4   1 1427.56   25.62
  -5   4  -1   36.51    5.66
  -5   4  -1   58.87    6.05
   5  -4   1   47.87    5.58
   5  -4   1   51.05    5.23
   5  -4   1   64.06    6.61
   6  -4   1  645.25   18.86
   6  -4   1  638.75   16.92
   7  -4   1  184.56   10.93
   7  -4   1  190.55    9.41
   8  -4   1   73.71    7.28
   8  -4   1   72.38    8.96
   8   3  -1   -2.07    3.06
   8   3  -1    1.83    2.55
   8   3  -1   -2.45    2.86
   7   3  -1   -1.72    2.22
   7   3  -1    1.58    2.06
  -7  -3   1   -0.17    2.39
   6   3  -1   90.26    6.29
   6   3  -1   92.60    7.35
  -6  -3   1   99.72    7.00
  -6  -3   1   81.09    7.74
   5   3  -1  146.59    8.32
   5   3  -1  145.27    8.15
   5   3  -1  134.16    6.93
  -5  -3   1  148.20    8.21
  -5  -3   1  136.63    7.22
   4   3  -1 2151.81   33.97
   4   3  -1 2175.05   33.85
   4   3  -1 2046.08   35.45
   4   3  -1 2086.03   35.76
  -4  -3   1 2136.11   35.82
  -4  -3   1 2091.64   35.57
  -4  -3   1 2190.34   34.43
  -4  -3   1 2421.72   38.68
   3   3  -1 7427.11   94.19
   3   3  -1 7443.76   92.25
   3   3  -1 7308.14   92.12
   3   3  -1 7360.32   94.20
  -3  -3   1 7320.45   92.54
  -3  -3   1 7404.71   94.30
  -3  -3   1 7321.50   94.18
   2   3  -1 2295.57   33.65
   2   3  -1 2184.94   32.09
   2   3  -1 2163.26   32.01
   2   3  -1 2275.28   33.53
   2   3  -1 2251.50   35.20
  -2  -3   1 2212.01   33.48
  -2  -3   1 2252.04   32.29
  -2  -3   1 2161.68   33.18
  -2  -3   1 2243.56   33.53
   1   3  -1 1641.45   26.37
   1   3  -1 1604.47   24.02
   1   3  -1 1597.02   24.99
   1   3  -1 1631.04   25.05
  -1  -3   1 1578.60   24.98
  -1  -3   1 1617.23   25.20
  -1  -3   1 1548.35   23.79
  -1  -3   1 1620.71   24.22
   0   3  -1  907.04   16.07
   0   3  -1  912.03   15.24
   0   3  -1  884.00   16.90
   0   3  -1  901.87   16.07
   0  -3   1  907.52   15.35
   0  -3   1  920.55   16.28
   0  -3   1  879.75   15.12
   0  -3   1  917.77   16.27
  -1   3  -1  553.49   12.68
  -1   3  -1  528.04   10.83
  -1   3  -1  533.08   11.54
  -1   3  -1  570.84   11.92
   1  -3   1  557.02   11.79
   1  -3   1  568.92   11.91
   1  -3   1  543.08   10.91
   1  -3   1  533.61   10.79
  -2   3  -1  985.44   17.28
  -2   3  -1 1017.71   19.79
  -2   3  -1 1032.97   18.36
   2  -3   1 1043.06   17.38
   2  -3   1 1002.07   18.33
   2  -3   1 1022.13   18.39
   2  -3   1 1016.49   17.20
  -3   3  -1  359.61   10.10
  -3   3  -1  388.33   11.95
   3  -3   1  354.38    9.39
   3  -3   1  369.66   10.49
   3  -3   1  333.43   10.00
  -4   3  -1 1109.44   21.62
  -4   3  -1 1114.70   20.82
   4  -3   1 1097.10   20.27
   4  -3   1 1097.90   22.05
   4  -3   1 1093.27   20.02
   4  -3   1 1116.67   22.14
  -5   3  -1 2783.69   42.69
   5  -3   1 2828.04   44.80
   5  -3   1 2803.19   44.67
   5  -3   1 2778.15   41.52
   5  -3   1 2757.93   41.89
   6  -3   1   11.48    3.05
   6  -3   1   11.69    3.51
   6  -3   1   17.15    3.99
   7  -3   1   48.35    6.55
   7  -3   1   56.92    5.77
   7  -3   1   50.65    7.23
   8  -3   1   52.94    7.82
   8  -3   1   36.95    5.09
   8  -3   1   35.42    6.33
   8  -3   1   37.80    5.04
   8   2  -1  254.99   11.45
   8   2  -1  238.73   13.55
   8   2  -1  242.41   13.23
   7   2  -1  264.22   10.85
   7   2  -1  251.78   12.59
   7   2  -1  247.34   12.30
  -7  -2   1  262.84   12.52
   6   2  -1  240.91   10.97
   6   2  -1  238.73    9.60
  -6  -2   1  227.61    9.71
  -6  -2   1  223.41   10.41
   5   2  -1 1931.34   33.61
   5   2  -1 2021.32   32.86
   5   2  -1 1976.74   34.70
   5   2  -1 1978.15   34.88
  -5  -2   1 2000.52   33.16
  -5  -2   1 2029.03   35.17
  -5  -2   1 2000.07   34.82
   4   2  -1   25.43    3.22
   4   2  -1   23.63    3.52
   4   2  -1   18.44    2.94
   4   2  -1   29.70    3.57
  -4  -2   1   23.85    3.45
  -4  -2   1   29.91    3.60
  -4  -2   1   20.23    3.09
  -4  -2   1   26.57    3.53
   3   2  -1 3786.94   51.67
   3   2  -1 3806.97   51.78
   3   2  -1 3800.95   50.23
   3   2  -1 3783.85   50.04
  -3  -2   1 3645.04   49.97
  -3  -2   1 3707.04   51.46
  -3  -2   1 3763.39   50.25
  -3  -2   1 3793.60   51.74
   2   2  -1  290.14    7.56
   2   2  -1  307.61    9.00
   2   2  -1  304.40    8.27
  -2  -2   1  290.53    8.12
  -2  -2   1  301.09    8.29
  -2  -2   1  292.83    7.58
  -2  -2   1  294.32    7.51
   1   2  -1  921.74   15.87
   1   2  -1  880.12   14.44
   1   2  -1  912.32   15.16
   1   2  -1  886.50   15.03
  -1  -2   1  924.35   15.29
  -1  -2   1  891.34   14.34
  -1  -2   1  881.52   14.24
  -1  -2   1  911.28   15.23
   0   2  -1  193.86    4.97
   0   2  -1  184.91    5.23
   0   2  -1  193.32    5.71
   0  -2   1  192.03    4.97
   0  -2   1  191.66    5.37
   0  -2   1  196.33    4.90
   0  -2   1  184.09    5.35
  -1   2  -1  465.50    9.41
  -1   2  -1  455.04    8.74
  -1   2  -1  443.72    9.20
  -1   2  -1  454.12    9.84
   1  -2   1  471.42    9.38
   1  -2   1  464.91    8.61
   1  -2   1  464.91    9.37
   1  -2   1  464.91    8.68
  -2   2  -1  354.40    8.62
   2  -2   1  359.43    7.84
   2  -2   1  367.90    8.79
   2  -2   1  356.93    8.62
   2  -2   1  348.89    7.87
  -3   2  -1 1982.03   29.85
  -3   2  -1 1925.88   28.91
   3  -2   1 1985.05   31.22
   3  -2   1 2008.13   28.70
   3  -2   1 1993.41   30.24
   3  -2   1 1991.23   30.23
   3  -2   1 1991.71   28.48
  -4   2  -1  716.54   15.03
  -4   2  -1  716.04   15.65
   4  -2   1  704.70   14.35
   4  -2   1  716.26   16.86
   4  -2   1  730.98   14.71
   4  -2   1  713.48   16.01
   4  -2   1  722.84   16.14
  -5   2  -1    1.89    1.84
  -5   2  -1    0.01    1.21
   5  -2   1    0.71    1.32
   5  -2   1   -1.83    1.60
   5  -2   1   -0.14    1.62
   5  -2   1    2.94    1.45
   5  -2   1   -0.39    1.52
  -6   2  -1   18.52    3.23
   6  -2   1   23.45    4.06
   6  -2   1   21.70    3.34
   6  -2   1   15.17    2.83
   6  -2   1   24.55    4.81
   6  -2   1   16.83    3.58
   7  -2   1  462.72   16.10
   7  -2   1  452.39   13.53
   7  -2   1  410.98   16.07
   7  -2   1  448.03   13.64
   8  -2   1  269.38   13.48
   8  -2   1  301.67   14.64
   8  -2   1  272.24   10.99
   8   1  -1  313.75   14.80
   8   1  -1  327.70   12.89
   8   1  -1  323.73   15.21
  -8  -1   1  334.03   14.88
   7   1  -1  603.27   16.89
   7   1  -1  592.62   18.89
   7   1  -1  599.72   19.33
  -7  -1   1  639.49   22.00
  -7  -1   1  584.34   18.53
   6   1  -1   64.47    6.82
   6   1  -1   67.19    6.96
   6   1  -1   73.40    5.48
  -6  -1   1   68.62    5.45
  -6  -1   1   57.91    6.32
   5   1  -1  348.50   10.68
   5   1  -1  350.26   11.71
   5   1  -1  343.00   10.53
   5   1  -1  344.39   11.71
  -5  -1   1  334.86   11.49
  -5  -1   1  336.57   10.59
  -5  -1   1  333.86   10.54
  -5  -1   1  357.26   11.79
   4   1  -1  347.74   10.64
   4   1  -1  356.50    9.85
   4   1  -1  369.12    9.84
   4   1  -1  359.32   10.72
  -4  -1   1  338.64   10.59
  -4  -1   1  373.36   10.04
  -4  -1   1  350.94   10.69
  -4  -1   1  363.82    9.94
   3   1  -1 1019.78   17.65
   3   1  -1 1054.93   18.64
   3   1  -1 1012.15   18.30
  -3  -1   1 1001.64   18.53
  -3  -1   1 1036.40   17.67
  -3  -1   1 1047.52   18.73
  -3  -1   1 1035.54   17.59
   2   1  -1  267.14    7.03
   2   1  -1  267.03    6.62
  -2  -1   1  272.09    6.62
  -2  -1   1  271.87    6.61
   1   1  -1  674.48   11.23
   1   1  -1  701.34   10.89
   1   1  -1  700.63   11.71
  -1  -1   1  700.37   11.42
  -1  -1   1  669.33   10.73
  -1  -1   1  676.77   10.71
  -1  -1   1  695.82   10.75
  -1  -1   1  687.36   11.36
   2  -1   1  935.21   15.87
   2  -1   1  912.61   13.83
   2  -1   1  907.39   13.94
   2  -1   1  936.04   14.97
   2  -1   1  921.83   14.93
  -3   1  -1  735.29   13.23
   3  -1   1  719.88   14.00
   3  -1   1  692.88   12.54
   3  -1   1  707.80   12.77
   3  -1   1  716.44   14.00
   3  -1   1  712.08   14.68
   4  -1   1 4369.80   56.53
   4  -1   1 4289.98   58.62
   4  -1   1 4366.04   60.04
   4  -1   1 4305.02   58.62
   4  -1   1 4332.68   55.99
  -5   1  -1  955.55   18.84
   5  -1   1  909.26   19.92
   5  -1   1  930.45   17.61
   5  -1   1  933.91   13.48
   5  -1   1  911.50   19.94
   5  -1   1  877.71   20.57
   5  -1   1  918.11   17.75
  -6   1  -1  698.15   17.20
   6  -1   1  714.51   18.60
   6  -1   1  710.48   16.17
   6  -1   1  700.33   16.16
   6  -1   1  737.03   19.65
   6  -1   1  699.93   15.84
   6  -1   1  693.17   18.47
   7  -1   1  365.15   14.72
   7  -1   1  359.03   13.93
   7  -1   1  371.91   11.91
   8  -1   1   -2.93    2.48
   8  -1   1    1.97    2.01
   8  -1   1   -6.12    2.02
   8   0  -1  120.31    9.35
   8   0  -1  114.07    7.95
   8   0  -1  123.52   11.25
  -8   0   1  110.83   10.22
   7   0  -1  416.35   15.52
   7   0  -1  445.38   16.02
   7   0  -1  451.11   14.21
  -7   0   1  426.21   15.45
  -7   0   1  414.99   14.05
   6   0  -1 1028.81   23.71
   6   0  -1 1080.16   22.35
   6   0  -1 1079.67   22.32
   6   0  -1 1045.66   23.96
  -6   0   1 1001.54   23.48
  -6   0   1 1054.27   22.18
   5   0  -1  300.43   10.47
   5   0  -1  285.73   10.47
   5   0  -1  275.91   10.40
   5   0  -1  286.88    9.44
   5   0  -1  291.72    9.61
   5   0  -1  280.57    9.57
  -5   0   1  289.64   10.52
  -5   0   1  282.44    9.49
  -5   0   1  290.62   10.55
  -5   0   1  269.70    9.31
   4   0  -1 1035.36   19.94
   4   0  -1  996.88   18.78
   4   0  -1 1020.88   19.87
   4   0  -1 1074.27   20.19
  -4   0   1 1049.42   18.90
  -4   0   1 1030.10   18.80
  -4   0   1 1011.50   20.11
  -4   0   1  996.20   19.68
   3   0  -1  663.88   13.63
   3   0  -1  707.25   13.31
   3   0  -1  684.70   13.63
   3   0  -1  688.44   13.72
  -3   0   1  678.15   13.86
  -3   0   1  693.55   12.96
  -3   0   1  637.21   13.49
  -3   0   1  656.40   12.77
   2   0  -1  313.13    7.37
   2   0  -1  313.33    7.33
   2   0  -1  320.19    7.08
  -2   0   1  318.18    5.03
  -2   0   1  307.72    6.82
  -2   0   1  326.00    7.62
  -2   0   1  320.58    6.87
   1   0   1 1268.02   16.16
   1   0   1 1296.37   16.27
   1   0   1 1282.89   16.20
   1   0   1 1279.32   16.15
   1   0   1 1263.55   17.28
  -3   0  -1  551.71   11.29
   3   0   1  572.04   12.61
   3   0   1  569.86   11.72
   3   0   1  560.50    9.11
   3   0   1  576.34   10.52
   3   0   1  564.88   10.35
   3   0   1  578.01   11.79
   3   0   1  570.26   10.51
  -4   0  -1 2426.01   35.38
  -4   0  -1 2393.58   34.65
   4   0   1 2392.24   33.40
   4   0   1 2385.11   33.56
   4   0   1 2335.56   35.74
   4   0   1 2404.05   37.12
   4   0   1 2434.60   36.07
  -5   0  -1    1.79    1.53
  -5   0  -1    1.52    1.64
   5   0   1    3.19    1.41
   5   0   1   -0.61    1.45
   5   0   1    2.84    2.02
   5   0   1    1.71    1.24
   5   0   1    3.15    2.20
  -6   0  -1  150.25    7.81
   6   0   1  136.88    6.36
   6   0   1  140.45    8.11
   6   0   1  158.27    6.92
   6   0   1  152.84    8.20
   6   0   1  156.75    8.87
  -7   0  -1 1438.65   29.63
   7   0   1 1439.96   30.98
   7   0   1 1457.17   32.23
   7   0   1 1447.24   26.98
   7   0   1 1509.48   27.17
   8   0   1  740.41   23.23
   8   0   1  694.06   17.58
   8   0   1  679.20   21.54
   8  -1  -1 1569.61   35.23
   8  -1  -1 1585.77   35.12
  -8   1   1 1557.98   34.89
   7  -1  -1 1103.89   26.60
   7  -1  -1 1163.20   26.92
   7  -1  -1 1107.91   24.49
   7  -1  -1 1110.67   24.65
  -7   1   1 1104.80   26.49
  -7   1   1 1056.29   24.06
   6  -1  -1   91.26    6.07
   6  -1  -1   83.43    6.53
   6  -1  -1   90.62    6.76
  -6   1   1   90.20    5.91
  -6   1   1   87.22    6.81
   5  -1  -1    0.02    1.55
   5  -1  -1   -0.64    1.44
   5  -1  -1    5.04    1.94
   5  -1  -1    0.11    1.45
   5  -1  -1    1.96    1.84
  -5   1   1   -1.11    1.45
  -5   1   1    1.36    1.37
  -5   1   1   -0.56    1.21
  -5   1   1    0.14    1.32
   4  -1  -1   97.50    5.06
   4  -1  -1   94.40    5.34
   4  -1  -1   89.50    5.25
   4  -1  -1   95.34    5.39
  -4   1   1   93.88    5.36
  -4   1   1  101.63    4.95
   3  -1  -1   18.78    2.61
   3  -1  -1   14.26    2.39
   3  -1  -1   12.99    2.33
   3  -1  -1    9.69    1.97
  -3   1   1   14.52    2.10
  -3   1   1   16.00    2.40
  -3   1   1   12.74    2.21
   2  -1  -1  299.92    7.22
   2  -1  -1  287.00    6.81
   2  -1  -1  303.66    6.95
  -2   1   1  306.13    6.66
  -2   1   1  314.27    7.49
  -2   1   1  299.71    6.65
  -2   1   1  297.68    7.33
   1  -1  -1  710.03   10.90
   1  -1  -1  724.78   10.52
  -1   1   1  721.64   10.27
  -1   1   1  716.45   11.06
  -1   1   1  714.66   11.14
  -1   1   1  708.89   10.29
  -1   1   1  703.04   11.06
   0   1   1  147.66    2.79
   0   1   1  143.97    3.65
   0   1   1  146.51    2.78
   1   1   1 1430.35   18.55
   1   1   1 1429.51   18.50
   1   1   1 1469.20   18.58
   1   1   1 1444.46   20.15
  -3  -1  -1 1438.82   22.46
   3   1   1 1474.47   21.09
   3   1   1 1494.21   22.99
   3   1   1 1443.51   22.84
   3   1   1 1472.34   21.09
  -4  -1  -1 1222.74   21.26
   4   1   1 1193.37   21.60
   4   1   1 1211.85   19.53
   4   1   1 1217.95   19.61
   4   1   1 1202.49   21.76
  -5  -1  -1  592.03   14.12
  -5  -1  -1  616.76   14.86
   5   1   1  595.25   15.25
   5   1   1  606.27   16.31
   5   1   1  574.09   12.91
   5   1   1  592.50   15.28
   5   1   1  604.13   13.00
  -6  -1  -1  332.85   11.55
   6   1   1  322.08   12.04
   6   1   1  314.67    9.78
   6   1   1  325.48   12.11
   6   1   1  315.10   12.71
   6   1   1  296.06    9.56
  -7  -1  -1  128.96    8.15
   7   1   1  121.29    6.54
   7   1   1  124.12    6.65
   7   1   1  118.51    8.28
   7   1   1  123.33    8.98
   8   1   1  119.76    7.03
   8   1   1  108.82   10.79
   8   1   1  123.02    9.43
   8  -2  -1    0.75    2.95
   8  -2  -1   -3.16    2.61
   7  -2  -1   81.62    8.27
   7  -2  -1   66.60    7.49
   7  -2  -1   81.42    7.68
  -7   2   1   79.53    7.58
   6  -2  -1    7.11    2.71
   6  -2  -1    2.17    1.89
   6  -2  -1    6.47    2.90
  -6   2   1    3.61    1.94
  -6   2   1    6.81    2.91
   5  -2  -1   48.83    5.37
   5  -2  -1   45.60    4.36
   5  -2  -1   52.41    5.22
   5  -2  -1   53.46    5.17
  -5   2   1   42.87    4.84
  -5   2   1   52.65    4.95
  -5   2   1   42.95    4.15
   4  -2  -1    6.22    2.01
   4  -2  -1    3.87    1.88
   4  -2  -1    2.37    1.58
   4  -2  -1    6.50    2.09
  -4   2   1    1.88    1.46
  -4   2   1    9.03    2.20
  -4   2   1    3.28    1.69
  -4   2   1    5.03    1.61
   3  -2  -1   31.25    3.18
   3  -2  -1   33.05    2.94
   3  -2  -1   34.05    3.40
   3  -2  -1   37.82    3.67
  -3   2   1   45.75    3.12
  -3   2   1   40.42    3.72
  -3   2   1   38.16    3.64
   2  -2  -1 6717.12   81.60
   2  -2  -1 6694.56   80.90
  -2   2   1 6601.79   81.91
  -2   2   1 6619.95   80.37
   1  -2  -1 8382.49   99.18
   0  -2  -1 3274.33   40.78
   0   2   1 3284.28   42.99
   0   2   1 3287.30   41.08
   0   2   1 3340.45   39.72
   0   2   1 3297.82   41.16
   0   2   1 3322.91   39.76
  -1  -2  -1 3320.08   41.71
   1   2   1 3397.04   40.49
   1   2   1 3401.81   42.15
   1   2   1 3299.20   42.06
   1   2   1 3355.26   40.49
   1   2   1 3446.64   44.49
   1   2   1 3335.28   42.11
  -2  -2  -1 9009.64  106.30
   2   2   1 8847.91  106.75
   2   2   1 8928.75  106.82
  -3  -2  -1  275.64    7.79
   3   2   1  284.04    6.87
   3   2   1  277.11    8.12
   3   2   1  272.65    8.07
   3   2   1  282.39    6.85
  -4  -2  -1  339.13    9.66
   4   2   1  325.49    9.96
   4   2   1  321.63    8.33
   4   2   1  324.79   10.05
   4   2   1  320.70    8.29
  -5  -2  -1   46.18    4.82
  -5  -2  -1   38.57    4.53
   5   2   1   26.89    3.86
   5   2   1   37.90    4.58
   5   2   1   37.22    3.77
   5   2   1   34.22    3.70
  -6  -2  -1  134.98    7.63
   6   2   1  141.48    6.52
   6   2   1  134.37    8.58
   6   2   1  134.01    6.28
   6   2   1  127.47    7.92
   6   2   1  137.49    8.10
   7   2   1 1338.94   25.19
   7   2   1 1363.78   31.56
   7   2   1 1362.54   25.29
   7   2   1 1375.01   30.31
   8   2   1  162.18   11.52
   8   2   1  154.33   10.43
   8   2   1  154.89    7.81
   8  -3  -1  448.05   17.52
   8  -3  -1  452.46   17.80
   7  -3  -1  242.39   12.01
   7  -3  -1  251.75   12.28
  -7   3   1  234.10   10.46
   6  -3  -1  278.24   11.77
   6  -3  -1  271.80   11.64
  -6   3   1  254.49   10.20
   5  -3  -1  753.85   18.41
   5  -3  -1  743.72   18.42
   5  -3  -1  762.53   17.67
  -5   3   1  777.35   17.21
  -5   3   1  716.55   16.87
  -5   3   1  738.80   18.63
  -5   3   1  745.70   18.76
   4  -3  -1  266.99    9.48
   4  -3  -1  256.93    9.29
  -4   3   1  248.28    8.41
  -4   3   1  252.98    8.37
  -4   3   1  241.73    9.33
  -4   3   1  254.80    9.44
   3  -3  -1 1637.94   27.02
   3  -3  -1 1675.06   27.10
  -3   3   1 1680.05   27.67
  -3   3   1 1658.98   25.65
  -3   3   1 1629.88   27.39
  -3   3   1 1636.84   25.64
   2  -3  -1 2479.35   34.76
   2  -3  -1 2455.90   35.29
  -2   3   1 2486.38   34.17
  -2   3   1 2528.96   34.21
  -2   3   1 2517.90   36.08
  -2   3   1 2540.84   38.46
   1  -3  -1 2594.89   35.05
  -1   3   1 2568.56   37.81
  -1   3   1 2604.79   33.86
  -1   3   1 2538.39   33.57
  -1   3   1 2546.66   35.48
   0  -3  -1 3082.38   40.36
   0   3   1 3141.61   39.05
   0   3   1 3092.30   39.06
   0   3   1 3131.69   41.01
   0   3   1 3017.08   43.08
   0   3   1 3096.84   40.94
  -1  -3  -1 1278.84   19.62
   1   3   1 1311.28   22.40
   1   3   1 1280.76   20.12
   1   3   1 1268.81   18.29
   1   3   1 1267.58   20.04
   1   3   1 1265.01   18.33
   1   3   1 1336.95   22.16
  -2  -3  -1 5282.59   66.39
   2   3   1 5271.18   64.58
   2   3   1 5300.19   64.52
   2   3   1 5286.03   67.26
   2   3   1 5271.41   70.13
   2   3   1 5281.17   67.13
  -3  -3  -1 1110.36   19.55
   3   3   1 1100.45   22.42
   3   3   1 1086.07   20.11
   3   3   1 1096.38   20.10
   3   3   1 1065.37   17.58
   3   3   1 1112.24   17.85
  -4  -3  -1 1729.37   28.85
   4   3   1 1754.89   29.75
   4   3   1 1768.75   26.70
   4   3   1 1742.44   30.00
   4   3   1 1744.81   26.59
  -5  -3  -1  604.15   15.43
  -5  -3  -1  605.58   15.36
   5   3   1  580.85   16.06
   5   3   1  598.94   16.05
   5   3   1  584.26   13.34
   5   3   1  601.15   13.40
  -6  -3  -1 1115.53   24.25
   6   3   1 1110.51   21.24
   6   3   1 1164.78   21.68
   6   3   1 1126.35   25.56
   6   3   1 1109.63   25.32
   7   3   1   38.45    6.22
   7   3   1   34.27    4.14
   7   3   1   31.81    5.66
   7   3   1   46.95    4.99
   8   3   1  224.81   13.37
   8   3   1  218.17   12.48
   8   3   1  239.98    9.53
  -8   4   1  117.19   11.44
   7  -4  -1    8.39    3.54
  -7   4   1    3.28    2.57
   6  -4  -1    1.81    2.44
  -6   4   1    2.42    2.04
   5  -4  -1  165.97    8.68
   5  -4  -1  167.01    8.18
  -5   4   1  176.56    7.82
  -5   4   1  165.46    8.82
   4  -4  -1  359.03   11.09
   4  -4  -1  357.84   15.83
   4  -4  -1  343.42   11.39
  -4   4   1  347.72   11.84
  -4   4   1  344.66   10.34
  -4   4   1  320.51   10.00
  -4   4   1  331.89   13.28
   3  -4  -1   11.15    2.40
   3  -4  -1    7.02    1.94
  -3   4   1    8.97    2.06
  -3   4   1    8.85    2.43
  -3   4   1   12.50    3.38
  -3   4   1   10.26    1.98
   2  -4  -1 8798.37  106.67
   2  -4  -1 8708.07  107.18
  -2   4   1 8510.52  107.80
  -2   4   1 8627.01  111.37
  -2   4   1 8644.11  105.15
  -2   4   1 8577.28  105.21
   1  -4  -1  417.32   10.27
  -1   4   1  426.57    9.29
  -1   4   1  393.61   10.47
  -1   4   1  407.96    9.28
  -1   4   1  402.90   12.08
   0  -4  -1 1786.51   27.18
   0   4   1 1830.74   25.76
   0   4   1 1792.67   27.95
   0   4   1 1788.23   28.01
   0   4   1 1812.70   25.76
   0   4   1 1806.21   30.33
  -1  -4  -1 4236.25   55.52
   1   4   1 4197.39   53.54
   1   4   1 4322.48   56.44
   1   4   1 4239.44   59.43
   1   4   1 4254.06   53.55
   1   4   1 4190.33   56.33
  -2  -4  -1  609.94   13.25
   2   4   1  579.98   13.66
   2   4   1  621.55   15.95
   2   4   1  610.07   11.85
   2   4   1  587.69   13.66
   2   4   1  613.18   11.78
  -3  -4  -1  441.83   11.66
   3   4   1  448.63   10.26
   3   4   1  440.48   12.17
   3   4   1  458.96   10.24
   3   4   1  424.71   12.11
  -4  -4  -1  392.83   11.57
  -4  -4  -1  440.01   12.33
   4   4   1  399.62   10.24
   4   4   1  406.48   10.29
   4   4   1  422.06   12.92
   4   4   1  428.31   12.84
  -5  -4  -1   26.17    4.05
   5   4   1   24.56    4.50
   5   4   1   18.57    3.63
   5   4   1   20.22    3.11
   5   4   1   25.18    3.36
   6   4   1   97.79    7.79
   6   4   1   96.10    7.57
   6   4   1   86.24    5.39
   6   4   1   89.38    5.44
   7   4   1   51.54    5.19
   7   4   1   38.60    4.43
   7   4   1   39.20    6.17
   8   4   1   54.52    7.75
   8   4   1   71.78    9.66
   8   4   1   53.59    5.40
  -7   5   1  418.78   19.54
  -7   5   1  402.95   14.44
   6  -5  -1  529.60   17.45
  -6   5   1  520.98   15.53
  -6   5   1  515.13   20.48
   5  -5  -1    0.34    1.97
  -5   5   1    4.48    2.09
  -5   5   1    2.52    3.06
   4  -5  -1  713.43   18.07
  -4   5   1  711.27   21.12
  -4   5   1  714.63   18.67
  -4   5   1  733.27   16.55
  -4   5   1  698.33   16.49
   3  -5  -1   48.38    4.94
   3  -5  -1   58.13    5.54
  -3   5   1   64.00    6.06
  -3   5   1   54.22    4.11
  -3   5   1   45.05    5.79
  -3   5   1   51.32    4.06
   2  -5  -1  321.29    9.83
   2  -5  -1  299.05    9.87
  -2   5   1  299.54    8.82
  -2   5   1  301.73   10.35
  -2   5   1  312.23   12.17
  -2   5   1  318.96    9.14
   1  -5  -1 1089.80   20.61
   1  -5  -1 1108.63   20.18
  -1   5   1 1071.90   18.71
  -1   5   1 1073.04   21.24
  -1   5   1 1063.00   18.73
  -1   5   1 1064.54   23.45
  -1   5   1 1072.45   21.18
   0  -5  -1  197.66    7.42
   0  -5  -1  201.44    8.46
   0   5   1  199.73    6.54
   0   5   1  205.04    6.51
   0   5   1  190.39    7.73
   0   5   1  192.73    7.73
   0   5   1  193.26    9.14
  -1  -5  -1    0.76    1.48
   1   5   1    2.30    1.26
   1   5   1    1.15    1.62
   1   5   1    4.57    1.46
   1   5   1    2.86    1.62
   1   5   1    4.30    2.47
  -2  -5  -1 1451.41   25.27
   2   5   1 1424.28   26.09
   2   5   1 1436.01   22.94
   2   5   1 1438.52   26.11
   2   5   1 1452.48   29.26
   2   5   1 1451.72   23.03
  -3  -5  -1   20.26    3.24
  -3  -5  -1   23.49    3.45
   3   5   1   23.36    4.56
   3   5   1   26.30    4.08
   3   5   1   17.03    3.15
   3   5   1   22.02    2.89
   3   5   1   22.56    2.93
  -4  -5  -1  874.52   19.82
   4   5   1  879.21   17.31
   4   5   1  886.61   17.47
   4   5   1  941.16   21.61
   4   5   1  929.77   21.39
   4   5   1  853.96   23.40
  -5  -5  -1  607.10   18.56
   5   5   1  565.95   17.35
   5   5   1  549.18   13.48
   5   5   1  581.61   17.56
   5   5   1  577.25   13.77
   6   5   1  581.63   18.91
   6   5   1  559.42   14.16
   6   5   1  551.88   14.04
   7   5   1  452.15   12.87
   7   5   1  468.14   18.02
   7   5   1  452.63   12.95
  -7   6   1   95.90    7.38
  -7   6   1   98.92   11.85
  -6   6   1  174.43   12.63
  -6   6   1  186.90    9.37
   5  -6  -1  687.17   19.81
  -5   6   1  668.98   23.03
  -5   6   1  708.35   17.73
   4  -6  -1   26.60    4.59
  -4   6   1   20.20    4.96
  -4   6   1   28.56    4.06
   3  -6  -1   59.12    6.21
  -3   6   1   40.09    4.33
  -3   6   1   41.56    4.36
  -3   6   1   45.70    6.55
  -3   6   1   39.90    4.91
   2  -6  -1  387.28   11.88
   2  -6  -1  365.43   12.04
  -2   6   1  380.31   14.60
  -2   6   1  354.23   12.42
  -2   6   1  353.62   12.52
  -2   6   1  375.45   10.56
  -2   6   1  361.30   10.57
   1  -6  -1  189.42    7.98
   1  -6  -1  191.42    8.25
  -1   6   1  204.84   10.40
  -1   6   1  177.22    8.39
  -1   6   1  176.22    8.44
  -1   6   1  179.49    6.92
  -1   6   1  191.05    7.16
   0  -6  -1 2478.67   38.02
   0  -6  -1 2438.40   38.40
   0   6   1 2449.16   43.17
   0   6   1 2465.65   35.73
   0   6   1 2381.07   39.49
   0   6   1 2409.92   35.71
   0   6   1 2451.41   39.75
  -1  -6  -1  912.22   19.10
  -1  -6  -1  929.16   19.48
   1   6   1  876.36   20.12
   1   6   1  882.28   22.67
   1   6   1  883.96   20.21
   1   6   1  886.29   17.14
   1   6   1  898.71   17.16
  -2  -6  -1  217.44    8.94
   2   6   1  228.24    7.66
   2   6   1  241.17    9.88
   2   6   1  224.33    7.64
   2   6   1  208.00    9.33
  -3  -6  -1 2976.67   46.77
   3   6   1 3010.16   48.80
   3   6   1 3038.52   43.33
   3   6   1 3046.10   52.94
   3   6   1 3077.46   43.34
   3   6   1 3061.93   48.78
  -4  -6  -1  603.32   21.23
   4   6   1  581.36   20.08
   4   6   1  553.79   13.48
   4   6   1  521.47   16.68
   4   6   1  564.36   17.31
   4   6   1  577.20   13.66
   5   6   1 1352.79   30.22
   5   6   1 1317.64   23.96
   5   6   1 1305.90   23.90
   6   6   1  221.64   12.31
   6   6   1  239.60    8.97
   6   6   1  235.87    8.81
   7   6   1   49.89    7.67
   7   6   1   53.86    5.10
   7   6   1   36.96    4.50
  -6   7   1  503.42   15.87
  -6   7   1  508.40   22.10
  -5   7   1   49.16    7.86
  -5   7   1   59.09    5.90
   4  -7  -1    2.73    2.78
  -4   7   1   -0.33    1.92
  -4   7   1    3.96    3.58
   3  -7  -1   22.34    4.26
  -3   7   1   23.87    5.69
  -3   7   1   28.09    4.01
  -3   7   1   17.45    3.98
   2  -7  -1  375.92   13.22
  -2   7   1  389.65   13.99
  -2   7   1  374.94   11.45
  -2   7   1  383.41   11.38
  -2   7   1  390.82   16.07
  -2   7   1  394.71   14.04
   1  -7  -1  793.25   19.15
  -1   7   1  745.64   22.16
  -1   7   1  749.65   19.76
  -1   7   1  767.13   16.61
  -1   7   1  749.40   19.97
  -1   7   1  764.71   16.67
   0  -7  -1  145.38    7.80
   0   7   1  122.95    9.00
   0   7   1  131.28    6.32
   0   7   1  130.80    6.26
   0   7   1  124.62    7.92
   0   7   1  141.80    8.24
  -1  -7  -1  925.07   21.28
   1   7   1  981.03   22.90
   1   7   1  958.23   18.75
   1   7   1  921.58   25.16
   1   7   1  966.64   18.87
   1   7   1  942.79   22.64
  -2  -7  -1  231.88   10.08
   2   7   1  245.15    8.50
   2   7   1  244.24   12.58
   2   7   1  251.52   11.16
   2   7   1  231.87    8.30
   2   7   1  254.69   11.16
   3   7   1 2441.11   43.61
   3   7   1 2465.28   37.40
   3   7   1 2442.49   47.90
   3   7   1 2429.63   37.28
   3   7   1 2485.39   44.06
   4   7   1  366.82   14.83
   4   7   1  386.52   17.28
   4   7   1  389.77   11.28
   4   7   1  394.10   11.35
   5   7   1   -0.33    1.62
   5   7   1   -1.55    2.72
   5   7   1   -1.27    1.48
   6   7   1  118.80    6.40
   6   7   1  111.83    6.36
   6   7   1   96.72    9.79
  -5   8   1   15.13    5.55
  -5   8   1   15.05    3.56
  -4   8   1  489.29   18.04
  -4   8   1  475.61   14.53
  -4   8   1  445.06   20.15
  -3   8   1 1031.47   22.09
  -3   8   1 1011.33   29.63
  -3   8   1 1003.79   26.12
  -2   8   1    0.17    2.46
  -2   8   1    2.57    3.19
  -2   8   1    2.55    1.85
  -1   8   1   46.36    7.48
  -1   8   1   36.43    4.45
  -1   8   1   35.04    5.74
  -1   8   1   35.61    4.40
   0   8   1  166.29    7.49
   0   8   1  161.18    7.22
   0   8   1  162.68   11.22
   0   8   1  170.81    9.82
   1   8   1  381.52   11.26
   1   8   1  386.11   11.40
   1   8   1  372.87   14.68
   1   8   1  381.71   17.03
   2   8   1   29.07    3.89
   2   8   1   37.97    7.07
   2   8   1   31.07    3.90
   2   8   1   29.10    5.23
   3   8   1  616.48   14.95
   3   8   1  615.08   14.86
   3   8   1  568.91   21.62
   3   8   1  610.25   19.72
   4   8   1 1076.07   31.76
   4   8   1 1099.16   21.70
   4   8   1 1133.89   28.80
   4   8   1 1117.58   21.74
   5   8   1  430.84   17.98
   5   8   1  434.96   20.51
   5   8   1  443.77   12.41
   5   8   1  430.46   12.27
  -3   9   1  149.05   12.25
  -3   9   1  152.27   11.02
  -3   9   1  155.38    8.21
  -2   9   1  458.64   13.77
  -2   9   1  469.06   20.48
  -2   9   1  476.17   17.96
  -1   9   1  433.18   19.27
  -1   9   1  427.57   16.98
  -1   9   1  424.15   12.78
   0   9   1  262.52    9.72
   0   9   1  266.88    9.94
   0   9   1  263.84   15.05
   0   9   1  260.24   13.33
   1   9   1  141.28    7.23
   1   9   1  105.57   11.27
   1   9   1  134.30    6.85
   1   9   1  131.01    9.64
   2   9   1   -3.64    2.50
   2   9   1    1.97    3.58
   2   9   1    1.48    2.01
   2   9   1    2.51    2.04
   3   9   1 1053.76   21.19
   3   9   1 1034.76   21.09
   3   9   1 1020.40   28.23
   3   9   1 1081.98   32.46
   1   9  -2  500.25   20.78
   1   9  -2  508.00   19.37
  -1  -9   2  524.43   19.59
   0   9  -2   16.20    4.83
   0   9  -2   14.91    5.25
   0  -9   2   12.24    4.38
  -1   9  -2   58.06    7.76
  -1   9  -2   53.51    8.40
   1  -9   2   66.18    8.22
  -2   9  -2   -1.64    3.34
  -2   9  -2    2.24    3.35
   2  -9   2   -0.94    2.82
   3  -9   2 1563.49   36.52
   4   8  -2  315.48   17.02
   4   8  -2  321.67   15.54
   4   8  -2  309.75   14.77
   3   8  -2  250.08   14.32
   3   8  -2  242.76   12.95
   3   8  -2  223.91   11.10
  -3  -8   2  243.03   12.90
   2   8  -2  119.13    9.99
   2   8  -2   97.09    7.27
   2   8  -2  123.28    9.23
  -2  -8   2   97.71    9.37
   1   8  -2  218.05   10.26
   1   8  -2  229.55   13.07
   1   8  -2  204.20   11.32
  -1  -8   2  226.63   11.84
  -1  -8   2  211.71   10.56
   0   8  -2    1.80    2.95
   0   8  -2    4.89    3.42
   0   8  -2    4.33    2.69
   0  -8   2    3.40    2.73
   0  -8   2    0.77    2.60
  -1   8  -2  458.33   16.61
  -1   8  -2  428.82   17.65
   1  -8   2  452.30   16.48
   1  -8   2  447.37   14.89
  -2   8  -2  469.10   18.89
  -2   8  -2  410.25   16.01
   2  -8   2  484.71   17.24
   2  -8   2  456.94   14.99
  -3   8  -2   54.79    8.13
  -3   8  -2   58.88    7.61
   3  -8   2   76.85    8.80
   3  -8   2   43.96    5.44
  -4   8  -2   13.12    5.05
  -4   8  -2   14.56    5.26
   4  -8   2   16.56    3.91
   4  -8   2    7.32    3.86
   5  -8   2  929.65   26.75
   5  -8   2  901.57   23.18
   5   7  -2  103.86    8.24
   5   7  -2  117.22   11.15
   4   7  -2    6.12    3.12
   4   7  -2    2.57    3.74
   4   7  -2    6.46    3.50
  -4  -7   2    9.05    3.94
   3   7  -2   13.78    4.46
   3   7  -2    7.68    3.03
   3   7  -2   16.69    4.53
  -3  -7   2   11.76    3.44
  -3  -7   2   13.17    4.00
   2   7  -2  181.91   10.09
   2   7  -2  180.20    8.93
   2   7  -2  170.16   10.82
  -2  -7   2  164.84    9.70
  -2  -7   2  174.91    8.92
   1   7  -2  345.22   14.63
   1   7  -2  323.39   13.03
   1   7  -2  308.84   11.54
  -1  -7   2  319.65   11.76
  -1  -7   2  308.21   12.96
   0   7  -2  212.69   10.47
   0   7  -2  225.01   11.76
   0   7  -2  224.07    9.58
   0  -7   2  210.97   10.50
   0  -7   2  204.71    9.28
  -1   7  -2   14.68    3.13
  -1   7  -2   16.47    4.66
  -1   7  -2    8.49    3.00
   1  -7   2    9.49    2.93
   1  -7   2    7.58    3.10
  -2   7  -2  223.50   12.15
  -2   7  -2  235.83   10.29
  -2   7  -2  227.53   11.12
   2  -7   2  237.16   11.43
   2  -7   2  246.73   10.11
  -3   7  -2 3478.62   60.34
  -3   7  -2 3472.69   56.40
   3  -7   2 3495.17   53.54
   3  -7   2 3526.19   57.18
  -4   7  -2   57.64    8.09
  -4   7  -2   60.88    7.39
   4  -7   2   56.71    7.10
   4  -7   2   47.50    5.38
  -5   7  -2   17.31    5.34
   5  -7   2    8.25    3.19
   5  -7   2    6.69    3.65
  -6   7  -2  349.54   17.68
   6  -7   2  318.56   12.80
   6  -7   2  302.01   14.95
   6   6  -2   79.12    9.39
   6   6  -2  105.63   12.35
   5   6  -2  251.63   11.16
   5   6  -2  247.99   12.72
  -5  -6   2  241.13   12.43
   4   6  -2  848.97   20.78
   4   6  -2  846.88   22.81
  -4  -6   2  853.17   21.25
  -4  -6   2  869.36   23.13
   3   6  -2  262.59   12.78
   3   6  -2  254.88   10.37
   3   6  -2  271.92   11.91
  -3  -6   2  256.87   11.55
  -3  -6   2  267.83   10.66
   2   6  -2  861.39   19.64
   2   6  -2  825.23   22.45
   2   6  -2  864.91   21.27
  -2  -6   2  876.69   19.68
  -2  -6   2  841.54   21.21
   1   6  -2  386.67   11.91
   1   6  -2  368.51   13.95
   1   6  -2  377.00   13.00
  -1  -6   2  388.17   13.30
  -1  -6   2  375.51   11.95
   0   6  -2   26.77    4.76
   0   6  -2   26.91    3.85
   0   6  -2   26.16    4.17
   0  -6   2   25.97    3.94
   0  -6   2   34.60    4.62
   0  -6   2   22.04    3.96
  -1   6  -2 2798.42   47.59
  -1   6  -2 2791.87   42.99
  -1   6  -2 2803.25   45.07
   1  -6   2 2814.80   45.53
   1  -6   2 2767.92   42.58
   1  -6   2 2771.10   45.36
  -2   6  -2  599.67   18.37
  -2   6  -2  596.46   15.55
  -2   6  -2  638.58   17.27
   2  -6   2  618.14   17.31
   2  -6   2  608.58   15.35
   2  -6   2  565.45   16.58
  -3   6  -2 2401.38   41.57
  -3   6  -2 2460.24   44.95
  -3   6  -2 2327.06   39.14
   3  -6   2 2463.35   39.07
   3  -6   2 2375.64   41.70
  -4   6  -2   61.84    6.55
  -4   6  -2   51.44    7.03
   4  -6   2   41.31    5.62
   4  -6   2   54.43    5.51
  -5   6  -2  308.35   15.13
  -5   6  -2  315.73   13.19
   5  -6   2  328.18   11.89
   5  -6   2  338.84   14.22
  -6   6  -2  523.71   20.87
   6  -6   2  521.85   15.94
   6  -6   2  525.61   18.65
  -7   6  -2  378.03   18.91
   7  -6   2  382.97   13.83
   7  -6   2  397.23   16.94
   6   5  -2 1052.76   27.47
   6   5  -2 1038.28   25.24
  -6  -5   2 1047.64   27.37
   5   5  -2  779.46   21.89
   5   5  -2  775.63   19.76
  -5  -5   2  815.21   22.32
  -5  -5   2  772.32   19.98
   4   5  -2  159.17    8.09
   4   5  -2  187.05    9.68
  -4  -5   2  148.05    8.00
  -4  -5   2  156.74    9.16
   3   5  -2  295.26   10.42
   3   5  -2  286.76   11.36
   3   5  -2  267.54   12.04
  -3  -5   2  294.38   10.54
  -3  -5   2  295.08   11.58
   2   5  -2  338.13   11.79
   2   5  -2  349.41   10.93
   2   5  -2  357.30   11.88
   2   5  -2  337.50   12.68
  -2  -5   2  341.47   10.62
  -2  -5   2  326.32   11.70
  -2  -5   2  333.95   10.67
  -2  -5   2  352.04   12.08
   1   5  -2    3.63    1.83
   1   5  -2    3.58    2.01
   1   5  -2    2.85    1.66
   1   5  -2    1.57    2.12
  -1  -5   2    0.88    1.73
  -1  -5   2    1.79    1.63
  -1  -5   2    3.33    1.67
  -1  -5   2    0.98    1.39
   0   5  -2 1008.62   20.82
   0   5  -2  967.11   19.29
   0   5  -2 1015.87   22.29
   0   5  -2 1005.99   20.71
   0  -5   2  985.28   19.10
   0  -5   2  993.07   20.89
   0  -5   2 1020.13   21.20
   0  -5   2  975.75   19.20
  -1   5  -2  591.14   16.16
  -1   5  -2  608.05   14.27
  -1   5  -2  582.88   15.01
  -1   5  -2  605.34   15.07
   1  -5   2  604.69   15.34
   1  -5   2  597.21   15.46
   1  -5   2  578.84   13.62
   1  -5   2  575.56   13.70
  -2   5  -2 1272.41   26.41
  -2   5  -2 1226.10   24.21
  -2   5  -2 1254.78   24.49
  -2   5  -2 1254.96   23.33
   2  -5   2 1304.67   25.13
   2  -5   2 1245.32   22.54
   2  -5   2 1242.66   24.89
   2  -5   2 1290.11   22.91
  -3   5  -2  883.96   19.17
  -3   5  -2  900.44   22.50
  -3   5  -2  934.73   20.70
   3  -5   2  932.57   21.06
   3  -5   2  923.84   18.68
   3  -5   2  923.18   19.03
   3  -5   2  890.59   20.75
  -4   5  -2 1226.19   28.31
  -4   5  -2 1229.86   25.48
  -4   5  -2 1182.58   23.96
   4  -5   2 1209.64   25.92
   4  -5   2 1227.92   23.47
   4  -5   2 1106.77   22.38
   4  -5   2 1229.03   26.01
  -5   5  -2  486.86   17.76
   5  -5   2  458.85   15.75
   5  -5   2  479.07   13.72
  -6   5  -2  329.63   15.74
   6  -5   2  340.84   11.96
   6  -5   2  317.67   13.95
  -7   5  -2    0.88    3.68
   7  -5   2    1.85    2.24
   7  -5   2    1.50    3.05
   7   4  -2  200.52   12.20
  -7  -4   2  238.58   12.88
   6   4  -2    5.59    3.25
   6   4  -2    4.30    2.60
  -6  -4   2    2.64    2.59
  -6  -4   2    7.67    3.44
   5   4  -2   78.50    7.50
   5   4  -2   88.02    6.35
  -5  -4   2   80.14    6.09
  -5  -4   2   78.51    7.59
   4   4  -2 2225.58   36.22
   4   4  -2 2175.32   37.90
  -4  -4   2 2114.63   35.54
  -4  -4   2 2096.00   37.78
   3   4  -2 1100.46   22.99
   3   4  -2 1135.37   24.79
   3   4  -2 1128.80   21.87
   3   4  -2 1102.60   22.85
  -3  -4   2 1137.00   21.72
  -3  -4   2 1126.16   21.59
  -3  -4   2 1139.94   21.57
  -3  -4   2 1092.78   23.36
  -3  -4   2 1153.58   23.57
   2   4  -2  837.24   17.99
   2   4  -2  825.66   17.05
   2   4  -2  811.12   17.98
   2   4  -2  852.82   19.42
  -2  -4   2  803.16   16.53
  -2  -4   2  857.04   17.09
  -2  -4   2  817.82   18.29
  -2  -4   2  824.40   18.39
   1   4  -2  120.01    5.97
   1   4  -2  113.33    5.43
   1   4  -2  103.46    5.71
   1   4  -2  130.74    6.70
  -1  -4   2  121.18    6.21
  -1  -4   2  121.68    5.33
  -1  -4   2  127.93    6.38
  -1  -4   2  123.85    5.50
   0   4  -2    7.15    2.12
   0   4  -2    5.64    1.96
   0   4  -2    4.49    1.69
   0   4  -2    4.98    2.17
   0  -4   2    4.83    1.82
   0  -4   2    3.90    1.46
   0  -4   2    5.65    1.81
   0  -4   2    1.06    1.39
  -1   4  -2  158.81    6.67
  -1   4  -2  145.50    6.92
  -1   4  -2  147.17    5.98
  -1   4  -2  153.77    7.15
   1  -4   2  154.41    6.77
   1  -4   2  151.23    6.73
   1  -4   2  150.23    5.89
   1  -4   2  162.25    5.95
  -2   4  -2 1618.65   27.13
  -2   4  -2 1532.82   28.34
  -2   4  -2 1562.91   25.77
   2  -4   2 1578.30   27.33
   2  -4   2 1605.75   25.14
   2  -4   2 1522.87   26.95
   2  -4   2 1606.84   25.30
  -3   4  -2   74.39    4.79
  -3   4  -2   88.42    5.54
  -3   4  -2   77.01    5.94
   3  -4   2   78.23    4.50
   3  -4   2   73.78    5.28
   3  -4   2   78.11    5.40
   3  -4   2   87.70    4.85
  -4   4  -2   -1.07    1.22
  -4   4  -2    0.26    2.07
   4  -4   2   -0.32    1.13
   4  -4   2   -0.04    1.48
   4  -4   2    2.12    1.97
   4  -4   2    0.37    1.54
  -5   4  -2 1775.16   36.38
   5  -4   2 1806.99   33.64
   5  -4   2 1777.86   33.66
   5  -4   2 1781.60   29.98
   5  -4   2 1808.63   30.47
   6  -4   2   93.91    7.40
   6  -4   2   80.40    5.70
   7  -4   2   37.77    5.06
   7  -4   2   30.51    5.62
   8  -4   2  946.66   21.84
   8  -4   2  919.65   26.64
   7   3  -2  378.80   15.74
  -7  -3   2  411.69   16.28
   6   3  -2  470.42   16.41
   6   3  -2  492.43   15.18
  -6  -3   2  493.33   16.83
  -6  -3   2  486.32   15.04
   5   3  -2 1060.36   22.48
   5   3  -2 1067.04   24.02
  -5  -3   2 1053.78   24.28
  -5  -3   2 1032.32   22.08
   4   3  -2 1652.54   29.99
   4   3  -2 1572.05   29.39
  -4  -3   2 1631.12   30.19
  -4  -3   2 1648.48   28.14
  -4  -3   2 1627.79   28.15
  -4  -3   2 1645.03   30.32
   3   3  -2  356.91   11.13
   3   3  -2  390.82   10.80
   3   3  -2  406.50   11.55
  -3  -3   2  380.03   11.63
  -3  -3   2  390.10   10.54
  -3  -3   2  369.56   10.25
  -3  -3   2  390.87   11.77
   2   3  -2  542.23   12.83
   2   3  -2  551.74   12.33
   2   3  -2  579.26   13.27
   2   3  -2  540.67   13.75
  -2  -3   2  543.36   12.08
  -2  -3   2  546.72   13.27
  -2  -3   2  540.95   11.93
  -2  -3   2  542.29   11.93
  -2  -3   2  538.38   13.21
   1   3  -2 5169.81   66.47
   1   3  -2 5039.49   65.74
   1   3  -2 4738.57   63.58
   1   3  -2 5048.89   64.88
  -1  -3   2 5017.74   63.33
  -1  -3   2 5091.88   65.55
  -1  -3   2 4996.72   65.24
  -1  -3   2 4988.92   63.24
   0   3  -2 2096.20   31.47
   0   3  -2 2144.44   30.16
   0   3  -2 2113.60   30.84
   0  -3   2 2134.87   29.71
   0  -3   2 2099.76   31.31
   0  -3   2 2079.49   31.35
   0  -3   2 2142.09   29.59
  -1   3  -2   49.67    3.63
  -1   3  -2   45.22    3.37
  -1   3  -2   48.55    3.47
   1  -3   2   44.62    2.97
   1  -3   2   49.75    2.96
   1  -3   2   48.89    3.54
   1  -3   2   40.19    3.29
  -2   3  -2 1292.98   21.39
  -2   3  -2 1262.03   22.84
  -2   3  -2 1285.32   21.58
   2  -3   2 1262.30   21.99
   2  -3   2 1276.09   20.02
   2  -3   2 1248.07   21.84
   2  -3   2 1316.54   20.38
  -3   3  -2  656.50   13.93
  -3   3  -2  674.90   16.27
   3  -3   2  671.17   15.05
   3  -3   2  670.84   15.15
   3  -3   2  649.40   13.23
   3  -3   2  667.49   13.18
  -4   3  -2 5027.29   67.68
   4  -3   2 5199.46   70.10
   4  -3   2 5112.34   69.88
   4  -3   2 5129.91   66.50
   4  -3   2 5111.01   66.16
  -5   3  -2  220.61    8.81
   5  -3   2  218.62    7.98
   5  -3   2  218.46    7.81
   5  -3   2  219.73    9.60
   5  -3   2  220.18    9.66
   6  -3   2  545.31   14.22
   6  -3   2  573.13   17.17
   6  -3   2  570.45   17.27
   6  -3   2  571.22   14.25
   7  -3   2  415.26   12.63
   7  -3   2  418.59   15.76
   7  -3   2  425.34   16.82
   8  -3   2   23.30    5.40
   8  -3   2   17.74    3.67
   8  -3   2   16.79    3.57
   8  -3   2   17.14    5.13
   8   2  -2    8.00    4.32
   8   2  -2   16.30    4.98
  -8  -2   2   14.66    4.79
   7   2  -2  148.20    9.78
  -7  -2   2  156.91    8.85
  -7  -2   2  189.20   10.96
   6   2  -2    9.50    2.50
   6   2  -2   11.16    3.51
  -6  -2   2    8.71    2.73
  -6  -2   2    9.78    3.44
   5   2  -2    7.76    2.12
   5   2  -2   11.28    3.20
  -5  -2   2    5.76    2.14
  -5  -2   2    6.28    2.76
  -5  -2   2   10.30    2.80
   4   2  -2  725.20   16.76
   4   2  -2  701.70   16.71
  -4  -2   2  710.93   17.18
  -4  -2   2  727.54   17.33
  -4  -2   2  702.25   15.56
  -4  -2   2  710.92   15.69
   3   2  -2   84.32    4.99
   3   2  -2   85.77    4.64
   3   2  -2   81.98    4.89
  -3  -2   2   89.62    4.62
  -3  -2   2   88.69    5.26
  -3  -2   2   87.53    5.31
  -3  -2   2   82.35    4.47
   2   2  -2 2512.22   34.90
   2   2  -2 2501.16   35.58
  -2  -2   2 2503.89   36.11
  -2  -2   2 2497.75   36.08
  -2  -2   2 2490.52   34.30
  -2  -2   2 2457.47   34.33
   1   2  -2 5019.01   63.08
   1   2  -2 5035.80   62.61
  -1  -2   2 4988.02   63.11
  -1  -2   2 4935.76   61.28
  -1  -2   2 4977.80   61.27
  -1  -2   2 4990.00   63.08
  -1  -2   2 4943.24   61.24
   0   2  -2 2644.05   34.66
   0   2  -2 2643.32   34.85
   0  -2   2 2565.31   34.91
   0  -2   2 2566.43   33.41
   0  -2   2 2605.75   33.40
   0  -2   2 2665.90   35.25
  -1   2  -2  436.75    9.38
  -1   2  -2  435.94    9.01
   1  -2   2  452.93    8.18
   1  -2   2  429.02    8.03
   1  -2   2  441.75    9.33
   1  -2   2  448.05    9.38
   1  -2   2  446.52   10.51
  -2   2  -2 3292.36   45.29
  -2   2  -2 3413.93   44.05
   2  -2   2 3288.70   44.35
   2  -2   2 3403.43   44.64
   2  -2   2 3339.05   42.38
   2  -2   2 3330.29   42.24
   3  -2   2  923.10   15.46
   3  -2   2  926.97   17.49
   3  -2   2  926.52   15.36
   3  -2   2  917.76   17.39
   4  -2   2    0.23    1.52
   4  -2   2    0.95    1.14
   4  -2   2    0.58    1.37
   4  -2   2    2.28    1.24
   4  -2   2   -0.04    1.38
  -5   2  -2    0.64    1.21
   5  -2   2   -1.49    1.80
   5  -2   2    1.81    1.26
   5  -2   2    1.18    1.81
   5  -2   2   -1.20    1.06
   5  -2   2    0.12    1.70
   6  -2   2  460.25   15.76
   6  -2   2  433.39   11.63
   6  -2   2  432.78   11.73
   6  -2   2  451.99   14.55
   6  -2   2  435.35   14.40
   7  -2   2  813.31   18.33
   7  -2   2  882.03   22.84
   7  -2   2  861.45   18.44
   7  -2   2  819.96   23.57
   8  -2   2  211.82    8.99
   8  -2   2  201.82   11.74
   8  -2   2  208.91   12.66
   8   1  -2  123.70   11.32
   8   1  -2  100.70   10.23
  -8  -1   2  126.16   14.45
  -8  -1   2  100.18    9.88
   7   1  -2  116.81    8.81
   7   1  -2  118.65    8.76
  -7  -1   2  112.33    7.39
  -7  -1   2  122.11    8.86
   6   1  -2  338.66   12.90
   6   1  -2  362.26   12.31
   6   1  -2  333.69   12.84
  -6  -1   2  342.84   13.27
  -6  -1   2  338.86   11.65
   5   1  -2 1101.21   22.17
   5   1  -2 1148.59   23.67
  -5  -1   2 1100.54   23.72
  -5  -1   2 1094.40   21.55
  -5  -1   2 1106.04   23.69
  -5  -1   2 1073.61   21.41
   4   1  -2 1065.78   20.23
   4   1  -2 1070.56   20.91
   4   1  -2 1038.36   20.09
   4   1  -2 1103.83   21.31
  -4  -1   2 1072.72   21.54
  -4  -1   2 1043.15   19.48
  -4  -1   2 1072.77   19.63
  -4  -1   2 1043.64   21.39
   3   1  -2 1307.95   22.54
  -3  -1   2 1323.20   23.10
  -3  -1   2 1316.75   21.30
  -3  -1   2 1333.60   23.14
  -3  -1   2 1351.59   21.42
   2   1  -2   -0.08    1.49
  -2  -1   2    2.13    1.38
  -2  -1   2    3.77    1.49
  -2  -1   2    4.79    1.96
  -2  -1   2    3.09    1.60
   1   1  -2 1712.94   23.51
  -1  -1   2 1678.20   23.68
  -1  -1   2 1699.95   22.35
  -1  -1   2 1677.30   22.28
  -1  -1   2 1692.69   23.81
  -1  -1   2 1708.11   23.86
  -1   1  -2 1866.18   24.17
  -1   1  -2 1877.54   24.65
   1  -1   2 1874.79   24.64
   1  -1   2 1900.64   24.58
   1  -1   2 1881.72   24.65
   2  -1   2  834.72   13.94
   2  -1   2  855.37   15.45
   2  -1   2  858.44   14.05
   2  -1   2  845.61   12.04
   2  -1   2  847.08   11.98
   2  -1   2  849.43   14.03
   3  -1   2  153.61    4.41
   3  -1   2  140.72    4.33
   3  -1   2  151.68    5.65
   3  -1   2  144.26    5.47
   3  -1   2  147.59    5.61
   3  -1   2  129.11    5.95
   4  -1   2 6294.52   80.15
   4  -1   2 6237.18   76.35
   4  -1   2 6177.95   76.37
   4  -1   2 6142.14   79.91
   4  -1   2 6250.00   82.20
   5  -1   2   78.50    5.97
   5  -1   2   70.83    3.77
   5  -1   2   75.52    5.38
   5  -1   2   67.11    4.02
   5  -1   2   72.55    4.13
   5  -1   2   67.10    5.15
   5  -1   2   74.73    4.11
   6  -1   2  113.75    4.31
   6  -1   2  111.71    7.41
   6  -1   2  116.10    5.61
   6  -1   2  102.38    7.05
   6  -1   2  112.16    7.80
   6  -1   2  112.66    5.62
   7  -1   2  311.72   10.01
   7  -1   2  331.27   13.21
   7  -1   2  308.76    9.93
   7  -1   2  279.68   13.22
   7  -1   2  316.61   13.20
   8  -1   2   70.72    7.99
   8  -1   2   90.92    5.78
   8  -1   2   73.05    9.20
   8  -1   2   88.66    5.76
   8   0  -2   11.33    4.27
   8   0  -2    6.74    3.88
  -8   0   2   10.36    4.20
  -8   0   2    9.18    3.20
   7   0  -2 1063.51   26.19
   7   0  -2 1063.44   25.92
  -7   0   2 1041.75   23.65
  -7   0   2 1091.69   26.75
   6   0  -2  192.35    8.91
   6   0  -2  191.08    9.68
   6   0  -2  180.68    9.15
   6   0  -2  179.46    8.73
  -6   0   2  189.86    8.48
  -6   0   2  191.42    9.86
   5   0  -2   41.95    4.88
   5   0  -2   51.68    5.44
   5   0  -2   41.28    4.79
  -5   0   2   40.94    4.03
  -5   0   2   43.32    5.12
  -5   0   2   57.35    4.47
  -5   0   2   64.75    6.19
   4   0  -2   15.20    2.87
   4   0  -2   13.52    2.76
   4   0  -2   13.04    2.58
   4   0  -2    8.91    2.30
  -4   0   2   14.72    2.47
  -4   0   2   11.75    2.19
  -4   0   2   15.80    2.83
  -4   0   2   23.09    3.60
   3   0  -2   72.57    4.02
   3   0  -2   81.07    4.45
  -3   0   2   77.22    4.52
  -3   0   2   77.85    3.88
  -3   0   2   74.06    3.74
  -3   0   2   84.46    2.94
  -3   0   2   75.98    4.50
   2   0  -2 1753.11   25.26
  -2   0   2 1742.81   25.78
  -2   0   2 1806.91   26.06
  -2   0   2 1780.54   24.18
  -2   0   2 1799.51   24.07
  -2   0   2 1755.51   24.13
   0   0   2   -0.28    0.50
   0   0   2   -0.74    0.36
   0   0   2   -0.39    0.50
   0   0   2   -0.74    0.36
   1   0   2  198.61    4.86
   1   0   2  193.38    3.34
   1   0   2  190.09    2.97
   1   0   2  191.84    3.31
   1   0   2  190.90    3.00
   3   0   2 1210.49   16.62
   3   0   2 1201.39   16.58
   3   0   2 1210.14   19.35
   3   0   2 1205.94   19.33
   3   0   2 1207.64   18.77
   3   0   2 1195.40   19.30
   3   0   2 1216.67   21.09
   4   0   2 5823.60   72.77
   4   0   2 5889.70   76.65
   4   0   2 5909.85   73.41
   4   0   2 5891.35   76.66
   4   0   2 5719.63   78.60
   4   0   2 6675.42   88.22
   4   0   2 5996.91   72.86
   5   0   2  786.36   14.64
   5   0   2  785.12   17.79
   5   0   2  773.34   19.00
   5   0   2  801.51   17.89
   5   0   2  788.22   13.47
   5   0   2  786.97   14.52
   6   0   2  139.27    7.97
   6   0   2  144.98    6.04
   6   0   2  126.71    7.56
   6   0   2  136.98    5.81
   6   0   2  129.23    8.33
   7   0   2  849.76   17.50
   7   0   2  835.10   23.35
   7   0   2  833.05   17.31
   7   0   2  851.32   22.07
   7   0   2  834.35   22.06
   8   0   2  316.15   10.39
   8   0   2  344.34   15.70
   8   0   2  312.18   10.25
   8   0   2  335.24   14.71
   9   0   2  177.04    7.89
   9   0   2  173.51   12.37
   9   0   2  161.55    7.66
   9   0   2  169.41   11.69
   8  -1  -2  309.12   14.24
  -8   1   2  270.35   11.81
  -8   1   2  314.80   14.85
   7  -1  -2   16.95    4.25
   7  -1  -2   17.98    4.23
  -7   1   2   16.37    3.34
  -7   1   2   17.98    4.50
   6  -1  -2  325.68   12.35
   6  -1  -2  340.27   12.28
   6  -1  -2  324.46   12.20
  -6   1   2  333.61   11.31
  -6   1   2  316.29   12.58
   5  -1  -2  843.72   19.09
   5  -1  -2  883.41   19.79
  -5   1   2  894.91   18.37
  -5   1   2  910.33   20.70
  -5   1   2  887.96   20.49
  -5   1   2  870.18   18.20
   4  -1  -2 1559.50   26.74
   4  -1  -2 1609.46   27.42
   4  -1  -2 1646.13   26.89
  -4   1   2 1641.97   25.95
  -4   1   2 1645.26   28.30
  -4   1   2 1622.59   28.19
  -4   1   2 1621.01   25.83
   3  -1  -2  125.87    5.34
   3  -1  -2  122.74    4.92
  -3   1   2  116.61    5.38
  -3   1   2  117.89    4.61
  -3   1   2  124.05    4.73
   2  -1  -2  336.83    7.82
   2  -1  -2  339.87    7.11
  -2   1   2  325.17    8.06
  -2   1   2  330.45    6.88
  -2   1   2  337.41    8.08
  -2   1   2  333.69    8.15
  -2   1   2  336.57    6.92
   1  -1  -2  290.56    6.38
   1  -1  -2  284.73    4.81
  -1   1   2  282.17    5.88
  -1   1   2  287.76    6.81
  -1   1   2  291.47    6.02
  -1   1   2  285.12    6.03
   2   1   2  545.10    9.33
   2   1   2  549.44    9.28
   2   1   2  571.03    9.54
   2   1   2  545.39   10.89
  -3  -1  -2   87.09    3.75
   3   1   2   94.26    2.72
   3   1   2   95.68    4.25
   3   1   2   90.09    4.91
   3   1   2   91.44    2.68
   3   1   2   89.28    4.12
   3   1   2   89.23    4.17
  -4  -1  -2  119.77    5.22
   4   1   2  110.97    5.46
   4   1   2  122.49    5.68
   4   1   2  111.87    6.21
   4   1   2  127.70    5.81
   4   1   2  116.80    4.09
   4   1   2  111.99    3.95
  -5  -1  -2   12.81    2.60
   5   1   2   15.43    2.25
   5   1   2   13.67    2.15
   5   1   2   12.53    2.82
   5   1   2   11.04    2.59
   5   1   2   13.61    3.28
  -6  -1  -2  284.90   10.27
   6   1   2  293.77   11.38
   6   1   2  299.70    8.52
   6   1   2  292.18   12.34
   6   1   2  291.59   11.33
   6   1   2  293.14    8.55
   7   1   2  119.93    8.86
   7   1   2  105.21    5.54
   7   1   2  105.55    7.75
   7   1   2  106.17    7.88
   7   1   2   93.30    5.32
   8   1   2   -2.50    2.89
   8   1   2    0.13    1.48
   8   1   2    2.27    1.85
   8   1   2   -0.54    2.64
   8  -2  -2   32.26    6.05
  -8   2   2   30.94    5.10
   7  -2  -2  147.30    9.42
   7  -2  -2  145.26    9.27
  -7   2   2  158.99   10.01
  -7   2   2  148.70    8.22
   6  -2  -2  692.80   18.87
   6  -2  -2  702.18   18.65
  -6   2   2  701.96   19.56
  -6   2   2  713.70   17.30
   5  -2  -2  503.99   13.91
   5  -2  -2  497.07   14.00
   5  -2  -2  497.05   14.31
  -5   2   2  514.22   15.08
  -5   2   2  507.11   14.95
  -5   2   2  523.62   13.14
  -5   2   2  515.24   13.12
   4  -2  -2   14.09    2.71
   4  -2  -2    9.94    2.36
   4  -2  -2    7.82    2.22
  -4   2   2    7.66    2.09
  -4   2   2   10.45    2.05
  -4   2   2    6.81    1.70
  -4   2   2    8.54    2.32
   3  -2  -2 2202.62   31.59
   3  -2  -2 2162.47   32.34
  -3   2   2 2157.15   33.18
  -3   2   2 2164.30   30.62
  -3   2   2 2179.79   30.68
  -3   2   2 2173.49   33.17
   2  -2  -2 2406.73   33.10
  -2   2   2 2413.83   31.61
  -2   2   2 2444.25   34.08
  -2   2   2 2472.18   34.05
  -2   2   2 2415.69   31.58
  -2   2   2 2402.96   33.77
   1  -2  -2  463.71    8.51
  -1   2   2  450.85    8.88
  -1   2   2  477.95    6.91
  -1   2   2  468.28    6.86
  -1   2   2  465.91   10.45
  -1   2   2  458.37    8.93
  -1   2   2  467.94    8.99
   0   2   2  116.81    3.33
   0   2   2  116.60    3.31
   0   2   2  117.03    4.54
   0   2   2  123.28    3.36
   1   2   2 5107.29   60.97
   1   2   2 5086.14   60.99
   1   2   2 5174.66   64.45
   2   2   2  324.93    7.27
   2   2   2  321.60    8.96
   2   2   2  337.04    7.45
   2   2   2  337.41    7.41
  -3  -2  -2 1704.95   24.91
   3   2   2 1733.03   26.00
   3   2   2 1722.05   22.04
   3   2   2 1705.37   25.95
   3   2   2 1731.88   22.04
   3   2   2 1718.59   25.99
  -4  -2  -2  139.44    5.80
   4   2   2  145.10    6.36
   4   2   2  147.65    4.52
   4   2   2  145.97    6.49
   4   2   2  151.80    6.44
   4   2   2  146.13    4.52
  -5  -2  -2  145.63    6.63
   5   2   2  152.64    5.30
   5   2   2  150.92    5.33
   5   2   2  151.68    7.51
   5   2   2  144.32    7.23
  -6  -2  -2  394.90   12.42
   6   2   2  454.98   14.43
   6   2   2  412.86   15.02
   6   2   2  451.61   14.33
   6   2   2  434.33   10.51
   6   2   2  430.04   10.34
   7   2   2  114.72    8.35
   7   2   2  114.20    8.17
   7   2   2  122.20    9.16
   7   2   2  135.71    6.01
   7   2   2  129.53    6.01
   8   2   2   71.47    4.87
   8   2   2   69.43    4.76
   8   2   2   73.31    8.73
   8   2   2   86.60    9.11
   8  -3  -2  545.22   19.11
  -8   3   2  511.07   16.62
   7  -3  -2   -0.92    2.42
   7  -3  -2    0.55    2.52
  -7   3   2    0.72    2.07
   6  -3  -2  261.89   11.17
   6  -3  -2  275.56   11.66
  -6   3   2  278.88   10.18
   5  -3  -2   37.69    4.67
   5  -3  -2   54.52    5.54
   5  -3  -2   45.49    4.87
  -5   3   2   39.48    4.48
  -5   3   2   60.03    6.36
  -5   3   2   46.91    4.59
   4  -3  -2   13.82    2.66
   4  -3  -2   14.92    2.93
  -4   3   2   10.72    2.32
  -4   3   2   18.66    3.27
  -4   3   2   11.90    2.31
   3  -3  -2  294.88    8.92
  -3   3   2  293.42    7.85
  -3   3   2  275.47    7.72
  -3   3   2  294.97    9.46
   2  -3  -2   39.65    3.09
  -2   3   2   39.76    3.65
  -2   3   2   43.20    2.63
  -2   3   2   42.62    4.57
  -2   3   2   42.21    3.84
  -2   3   2   40.64    2.59
   1  -3  -2 2889.08   38.29
  -1   3   2 2919.76   39.14
  -1   3   2 2923.37   42.09
  -1   3   2 2955.04   36.32
  -1   3   2 2909.67   39.29
  -1   3   2 2948.96   36.25
   0  -3  -2  288.99    6.52
   0   3   2  282.61    6.97
   0   3   2  297.83    7.10
   0   3   2  292.65    8.71
  -1  -3  -2 6726.99   80.79
   1   3   2 6675.92   81.85
   1   3   2 6772.19   81.93
   1   3   2 6867.64   85.65
  -2  -3  -2 7636.86   91.20
   2   3   2 7560.81   92.42
   2   3   2 7563.03   92.39
  -3  -3  -2  767.91   14.44
   3   3   2  774.57   15.50
   3   3   2  787.95   11.93
   3   3   2  767.70   15.47
   3   3   2  767.65   17.96
   3   3   2  776.27   11.87
   3   3   2  768.73   15.41
  -4  -3  -2    2.02    1.42
   4   3   2    1.15    1.41
   4   3   2    2.53    1.49
   4   3   2    0.56    1.59
   4   3   2    2.88    1.14
   4   3   2    3.20    1.13
  -5  -3  -2  210.78    8.32
   5   3   2  221.34    9.32
   5   3   2  210.22    6.36
   5   3   2  209.49    9.16
   5   3   2  220.94    6.54
   6   3   2   31.64    3.28
   6   3   2   25.27    2.99
   6   3   2   27.27    4.46
   6   3   2   34.35    5.32
   7   3   2   37.89    6.00
   7   3   2   38.18    3.85
   7   3   2   33.99    5.99
   7   3   2   37.98    3.76
   7   3   2   30.38    5.06
   8   3   2  348.75   10.00
   8   3   2  348.16   16.52
   8   3   2  351.73   10.10
   8   3   2  353.27   15.57
  -7   4   2   35.09    5.18
   6  -4  -2   25.47    4.71
  -6   4   2   31.36    4.63
   5  -4  -2  286.37   11.14
  -5   4   2  264.52   11.43
  -5   4   2  295.08    9.90
  -5   4   2  297.70   11.90
  -5   4   2  285.17    9.83
   4  -4  -2   73.97    5.46
   4  -4  -2   72.56    5.25
  -4   4   2   72.54    4.62
  -4   4   2   65.92    7.10
  -4   4   2   77.63    5.86
  -4   4   2   82.28    4.84
  -4   4   2   76.03    5.85
   3  -4  -2  486.95   14.03
   3  -4  -2  517.41   13.03
  -3   4   2  514.78   11.49
  -3   4   2  531.83   15.85
  -3   4   2  515.80   11.42
  -3   4   2  492.68   13.52
   2  -4  -2  511.06   11.98
  -2   4   2  498.35   14.48
  -2   4   2  489.23   10.38
  -2   4   2  513.45   10.46
  -2   4   2  514.57   12.73
   1  -4  -2 3585.75   47.39
  -1   4   2 3557.46   44.75
  -1   4   2 3546.47   44.74
  -1   4   2 3564.54   48.37
  -1   4   2 3550.97   48.47
  -1   4   2 3466.51   51.68
   0  -4  -2 7367.99   88.96
   0   4   2 6947.61   90.01
   0   4   2 7361.12   85.97
   0   4   2 7448.90   90.49
   0   4   2 7259.92   90.27
   0   4   2 7318.16   94.02
  -1  -4  -2   60.59    3.47
   1   4   2   66.95    2.52
   1   4   2   64.07    2.50
   1   4   2   65.25    5.00
   1   4   2   66.80    3.97
   1   4   2   55.51    3.67
   1   4   2   67.86    4.01
  -2  -4  -2  175.92    5.98
   2   4   2  170.44    4.39
   2   4   2  163.36    4.29
   2   4   2  174.77    6.62
   2   4   2  172.64    6.63
   2   4   2  177.56    8.13
   2   4   2  160.14    6.37
  -3  -4  -2    2.24    1.41
   3   4   2    2.46    0.93
   3   4   2    0.96    1.77
   3   4   2    0.64    0.81
   3   4   2    3.22    1.55
   3   4   2    1.31    1.28
   3   4   2    5.53    2.00
  -4  -4  -2  319.27    9.90
   4   4   2  349.29   11.30
   4   4   2  339.03    7.81
   4   4   2  316.84   10.78
   4   4   2  331.42    7.78
  -5  -4  -2    2.01    1.91
   5   4   2    6.56    2.57
   5   4   2    2.02    2.11
   5   4   2    4.65    1.50
   5   4   2    5.62    1.57
   6   4   2    1.51    1.30
   6   4   2    6.15    3.03
   6   4   2    7.07    1.87
   6   4   2    6.85    3.05
   7   4   2  332.69   21.65
   7   4   2  300.56    8.89
   7   4   2  319.56   13.92
   7   4   2  318.93    9.06
   8   4   2  959.25   17.72
   8   4   2  956.97   28.68
   8   4   2  929.23   17.62
   8   4   2  942.84   26.96
  -7   5   2 1082.62   24.36
  -7   5   2 1119.61   33.10
  -6   5   2  450.71   13.75
  -6   5   2  434.08   18.78
   5  -5  -2  142.40    8.32
  -5   5   2  129.15    6.80
  -5   5   2  126.97    6.79
  -5   5   2  129.49    9.69
   4  -5  -2    9.87    2.87
  -4   5   2   10.61    2.50
  -4   5   2    6.50    2.50
  -4   5   2    7.52    2.18
  -4   5   2    7.38    3.39
   3  -5  -2  200.51    8.32
   3  -5  -2  189.82    7.98
  -3   5   2  199.49    7.11
  -3   5   2  195.49    8.80
  -3   5   2  205.64   10.53
  -3   5   2  200.66    7.14
   2  -5  -2  289.07    9.34
  -2   5   2  265.51   11.39
  -2   5   2  294.30   10.09
  -2   5   2  285.21    7.92
  -2   5   2  291.08    8.05
   1  -5  -2  166.99    6.70
  -1   5   2  169.68    7.30
  -1   5   2  166.41    5.48
  -1   5   2  173.64    8.70
  -1   5   2  164.58    5.43
   0  -5  -2  879.73   16.88
   0   5   2  897.85   14.62
   0   5   2  895.17   14.52
   0   5   2  894.69   20.77
   0   5   2  881.90   17.98
   0   5   2  884.12   18.13
   0   5   2  853.87   17.87
  -1  -5  -2 4224.72   56.20
   1   5   2 4182.10   57.68
   1   5   2 4324.52   62.41
   1   5   2 4224.93   52.71
   1   5   2 4265.63   58.15
   1   5   2 4230.28   52.59
   1   5   2 4193.02   57.91
  -2  -5  -2 2095.91   32.19
   2   5   2 2102.65   33.77
   2   5   2 2075.14   33.72
   2   5   2 2098.46   37.56
   2   5   2 2104.90   33.68
   2   5   2 2137.43   28.64
   2   5   2 2085.13   28.44
  -3  -5  -2   98.45    5.46
   3   5   2   90.37    3.90
   3   5   2   84.10    5.79
   3   5   2   98.10    4.00
   3   5   2   96.43    5.96
   3   5   2   97.94    7.36
  -4  -5  -2  384.05   11.70
   4   5   2  397.56   13.10
   4   5   2  426.60   13.49
   4   5   2  429.78   15.85
   4   5   2  402.04    9.13
   4   5   2  406.82    9.24
   5   5   2   39.88    3.47
   5   5   2   43.60    5.68
   5   5   2   47.31    3.35
   5   5   2   38.28    5.12
   6   5   2   68.59    7.44
   6   5   2   72.10    4.22
   6   5   2   74.54    7.75
   6   5   2   81.77    4.36
   7   5   2   32.28    5.99
   7   5   2   36.89    3.59
   7   5   2   35.52    3.50
  -6   6   2  424.82   13.65
  -6   6   2  442.11   19.76
  -5   6   2  226.72    9.20
  -5   6   2  234.36   13.60
   4  -6  -2    2.30    2.43
  -4   6   2    0.48    1.44
  -4   6   2    0.96    1.55
  -4   6   2   -0.63    2.17
  -4   6   2   -1.40    1.88
   3  -6  -2  267.86   10.33
  -3   6   2  277.90   13.18
  -3   6   2  286.42    9.08
  -3   6   2  258.45    8.68
  -3   6   2  277.20   11.35
   2  -6  -2   83.64    5.75
  -2   6   2   85.47    4.64
  -2   6   2   88.49    7.54
  -2   6   2   87.30    4.77
  -2   6   2   84.29    6.20
   1  -6  -2 1643.70   28.06
  -1   6   2 1641.14   29.80
  -1   6   2 1608.50   25.03
  -1   6   2 1578.01   29.49
  -1   6   2 1587.09   32.83
  -1   6   2 1622.49   25.03
   0  -6  -2 4283.34   58.34
   0   6   2 4285.15   54.55
   0   6   2 4169.55   54.22
   0   6   2 4249.01   60.61
   0   6   2 4207.52   64.67
   0   6   2 4207.87   60.33
  -1  -6  -2  115.68    6.08
   1   6   2  118.01    8.15
   1   6   2  121.19    6.92
   1   6   2  117.42    4.56
   1   6   2  111.28    4.58
   1   6   2  124.17    6.90
  -2  -6  -2   37.41    4.22
   2   6   2   27.01    4.02
   2   6   2   27.49    4.64
   2   6   2   36.09    4.59
   2   6   2   34.00    3.01
   2   6   2   33.81    2.99
   3   6   2  101.65    4.40
   3   6   2   97.11    4.39
   3   6   2  101.64    6.79
   3   6   2  101.23    6.83
   3   6   2   70.81    7.52
   4   6   2  461.04   15.20
   4   6   2  460.14   17.51
   4   6   2  448.18   10.21
   4   6   2  464.78   10.36
   4   6   2  479.61   15.34
   5   6   2  853.36   15.65
   5   6   2  856.85   22.79
   5   6   2  877.07   22.82
   5   6   2  832.62   15.57
   6   6   2  414.56    9.99
   6   6   2  406.94    9.87
   6   6   2  452.72   16.87
   7   6   2   99.98    9.97
   7   6   2   95.69    4.43
   7   6   2   89.73    4.42
  -6   7   2   59.10    9.50
  -6   7   2   53.25    5.98
  -5   7   2   73.69    5.63
  -4   7   2   15.08    5.08
  -4   7   2   16.88    3.28
  -4   7   2   15.98    3.29
  -3   7   2 1266.67   23.51
  -3   7   2 1297.89   32.53
  -3   7   2 1292.20   28.71
  -3   7   2 1310.07   23.76
  -2   7   2   47.55    5.89
  -2   7   2   41.41    4.12
  -2   7   2   39.58    5.16
  -2   7   2   45.88    4.29
  -2   7   2   53.07    7.54
   1  -7  -2   -0.37    1.88
  -1   7   2    2.71    2.09
  -1   7   2   -1.98    2.35
  -1   7   2    0.06    1.32
  -1   7   2    1.50    1.48
  -1   7   2   -0.39    2.13
   0  -7  -2    2.56    2.49
   0   7   2    0.34    1.34
   0   7   2    0.90    1.94
   0   7   2    7.56    2.88
   0   7   2    4.18    1.61
   0   7   2    2.99    2.87
   1   7   2  744.13   14.37
   1   7   2  737.28   19.33
   1   7   2  760.08   22.43
   1   7   2  778.56   19.82
   1   7   2  750.40   14.49
   2   7   2 1736.72   33.29
   2   7   2 1713.07   37.25
   2   7   2 1781.95   33.65
   2   7   2 1708.07   26.12
   2   7   2 1760.61   26.33
   3   7   2    3.26    3.59
   3   7   2    1.41    1.40
   3   7   2   -1.83    1.78
   3   7   2   -0.71    1.16
   3   7   2   -2.17    2.04
   4   7   2   13.46    3.95
   4   7   2   13.71    4.83
   4   7   2   13.44    2.25
   4   7   2   10.33    3.76
   4   7   2    9.87    1.98
   5   7   2  391.25    9.39
   5   7   2  392.16   15.75
   5   7   2  387.53   18.16
   5   7   2  378.08    9.28
   6   7   2  185.03   11.63
   6   7   2  163.73    5.59
   6   7   2  164.85    5.60
  -5   8   2  626.46   24.93
  -5   8   2  647.02   16.80
  -4   8   2  407.82   12.96
  -4   8   2  390.33   18.81
  -4   8   2  371.84   12.06
  -3   8   2   54.40    5.21
  -3   8   2   53.29    8.29
  -3   8   2   34.78    5.72
  -3   8   2   46.43    4.76
  -2   8   2  111.77    6.01
  -2   8   2  112.58   11.31
  -2   8   2  118.97   13.18
  -2   8   2  119.01    6.05
  -2   8   2  119.88    8.60
  -1   8   2  673.53   19.78
  -1   8   2  645.52   19.58
  -1   8   2  615.93   21.96
  -1   8   2  639.29   14.35
  -1   8   2  675.78   14.66
   0   8   2  305.34    9.00
   0   8   2  309.23   13.05
   0   8   2  283.71   12.58
   0   8   2  306.03   14.96
   0   8   2  309.60    8.97
   1   8   2   93.43    9.87
   1   8   2   89.54    8.39
   1   8   2   91.76    4.78
   1   8   2   91.41    4.89
   1   8   2   96.48    8.82
   2   8   2  422.30   10.37
   2   8   2  451.17   18.61
   2   8   2  439.53   15.84
   2   8   2  429.98   10.30
   2   8   2  409.92   15.44
   3   8   2   18.77    2.62
   3   8   2   18.24    4.45
   3   8   2   15.97    2.39
   3   8   2   15.47    4.43
   3   8   2   12.50    5.11
   4   8   2  878.18   24.56
   4   8   2  797.24   26.77
   4   8   2  863.33   15.43
   4   8   2  840.34   15.22
   5   8   2   22.65    5.50
   5   8   2   12.66    5.06
  -3   9   2  607.58   24.09
  -3   9   2  589.79   20.76
  -3   9   2  620.59   15.43
  -3   9   2  614.45   15.22
  -2   9   2  114.39   12.05
  -2   9   2  119.35    6.39
  -2   9   2  126.15    9.64
  -2   9   2  119.53    6.26
  -1   9   2  140.54   11.45
  -1   9   2  133.94    9.70
  -1   9   2  141.08    6.52
  -1   9   2  126.47    6.20
   0   9   2    4.03    3.13
   0   9   2    3.30    1.81
   0   9   2    6.68    1.96
   0   9   2    0.67    3.49
   1   9   2    8.22    3.72
   1   9   2    9.22    4.63
   1   9   2    5.34    1.83
   1   9   2    8.22    2.19
   2   9   2  607.15   12.81
   2   9   2  599.22   23.16
   2   9   2  602.99   20.18
   2   9   2  614.62   12.91
   3   9   2  507.63   21.76
   3   9   2  513.43   19.22
   3   9   2  506.98   10.78
   3   9   2  511.96   10.85
   0   9  -3  675.80   24.16
   0  -9   3  704.41   20.18
   0  -9   3  728.52   23.30
  -1   9  -3   53.01    8.29
   1  -9   3   63.78    8.21
   1  -9   3   53.60    6.72
   3   8  -3    3.30    3.67
  -3  -8   3   -0.19    2.35
  -3  -8   3    5.15    3.68
   2   8  -3  593.06   21.66
   2   8  -3  603.94   21.50
  -2  -8   3  579.53   17.66
  -2  -8   3  593.86   20.35
   1   8  -3  355.71   15.01
   1   8  -3  353.79   16.20
  -1  -8   3  366.28   13.37
  -1  -8   3  352.21   15.17
   0   8  -3  407.12   17.47
   0   8  -3  442.11   16.42
   0  -8   3  422.26   14.28
   0  -8   3  433.87   16.80
  -1   8  -3  309.87   15.21
  -1   8  -3  304.90   13.80
   1  -8   3  299.23   11.75
   1  -8   3  296.97   13.83
  -2   8  -3    3.71    3.47
   2  -8   3   -2.00    1.68
   2  -8   3    0.74    2.82
  -3   8  -3   21.56    5.61
   3  -8   3   26.02    5.51
   3  -8   3   30.46    4.96
  -4   8  -3   43.66    7.74
   4  -8   3   42.95    5.70
   4  -8   3   38.53    6.54
   4   7  -3  240.82   13.74
  -4  -7   3  227.52   10.90
  -4  -7   3  242.16   12.99
   3   7  -3  220.26   11.72
   3   7  -3  208.37   12.54
  -3  -7   3  193.05    9.69
  -3  -7   3  212.36   11.80
   2   7  -3  435.10   15.81
   2   7  -3  411.70   16.57
  -2  -7   3  424.31   15.97
  -2  -7   3  447.33   14.24
   1   7  -3   64.79    7.07
   1   7  -3   64.51    7.73
  -1  -7   3   71.79    7.64
  -1  -7   3   70.33    6.32
   0   7  -3   -0.86    2.61
   0   7  -3    4.14    2.92
   0  -7   3    2.74    2.76
   0  -7   3   -3.92    1.31
  -1   7  -3  360.61   14.79
  -1   7  -3  346.13   13.50
   1  -7   3  345.77   13.87
   1  -7   3  377.73   12.40
  -2   7  -3  977.98   23.87
  -2   7  -3  948.33   25.48
   2  -7   3  935.56   24.27
   2  -7   3  905.55   20.72
  -3   7  -3  112.40    9.06
  -3   7  -3  104.81    8.07
   3  -7   3  102.60    8.15
   3  -7   3  103.00    6.75
  -4   7  -3   60.99    8.16
   4  -7   3   53.44    6.98
   4  -7   3   70.01    6.87
  -5   7  -3 1201.21   32.48
   5  -7   3 1179.45   25.19
   5  -7   3 1173.96   30.02
   5   6  -3 1280.66   31.40
  -5  -6   3 1237.77   27.74
  -5  -6   3 1284.61   31.34
   4   6  -3   46.49    6.43
  -4  -6   3   49.86    7.02
  -4  -6   3   48.89    5.94
   3   6  -3   -0.11    2.65
   3   6  -3    0.67    2.27
  -3  -6   3    2.12    2.68
  -3  -6   3    0.62    1.89
   2   6  -3   43.82    5.52
   2   6  -3   34.88    5.55
  -2  -6   3   45.65    4.96
  -2  -6   3   38.42    5.43
   1   6  -3   73.23    7.47
   1   6  -3   71.41    6.80
   1   6  -3   77.49    9.38
  -1  -6   3   70.24    6.83
  -1  -6   3   70.85    5.35
  -1  -6   3   71.49    7.45
   0   6  -3  902.53   22.51
   0   6  -3  948.72   23.96
   0   6  -3  891.91   21.14
   0  -6   3  866.44   21.51
   0  -6   3  915.07   19.34
   0  -6   3  876.71   18.92
   0  -6   3  894.86   21.73
  -1   6  -3  123.46    7.46
  -1   6  -3  132.16    8.37
   1  -6   3  119.75    6.54
   1  -6   3  127.00    7.93
   1  -6   3  111.08    7.53
   1  -6   3  127.59    6.47
  -2   6  -3  262.35   10.77
  -2   6  -3  248.72   11.54
   2  -6   3  242.68    9.01
   2  -6   3  232.15   10.70
   2  -6   3  256.75    9.32
   2  -6   3  235.85   10.85
  -3   6  -3  191.28    9.58
  -3   6  -3  203.30   10.78
   3  -6   3  188.82    8.20
   3  -6   3  165.40    9.45
   3  -6   3  206.39   10.35
   3  -6   3  191.89    8.10
  -4   6  -3    3.52    3.37
  -4   6  -3    2.26    2.74
   4  -6   3    2.35    2.10
   4  -6   3    1.51    2.19
   4  -6   3    3.51    2.74
  -5   6  -3 2651.65   50.60
   5  -6   3 2583.34   41.91
   5  -6   3 2685.99   48.15
  -6   6  -3  469.05   19.67
   6  -6   3  485.04   18.14
   6  -6   3  484.11   14.49
  -6  -5   3  642.33   21.42
  -6  -5   3  550.51   17.54
   5   5  -3  104.37    9.52
  -5  -5   3  100.88    7.17
  -5  -5   3   96.30    9.32
   4   5  -3   99.25    8.88
  -4  -5   3   88.10    8.40
  -4  -5   3   98.76    6.63
   3   5  -3  157.85    9.52
   3   5  -3  162.60    8.85
   3   5  -3  161.61    9.38
  -3  -5   3  177.71    9.42
  -3  -5   3  166.07    7.89
   2   5  -3  395.82   12.23
   2   5  -3  396.13   12.94
   2   5  -3  393.39   13.76
  -2  -5   3  383.26   11.33
  -2  -5   3  386.69   13.21
  -2  -5   3  392.58   13.29
  -2  -5   3  398.78   11.62
   1   5  -3  263.10    9.97
   1   5  -3  247.67   10.29
   1   5  -3  259.21    9.37
  -1  -5   3  258.85   10.32
  -1  -5   3  236.48    8.38
  -1  -5   3  254.29    8.84
  -1  -5   3  250.24   10.23
   0   5  -3  298.64   10.49
   0   5  -3  292.17   11.04
   0   5  -3  305.71   10.00
   0  -5   3  321.16   11.29
   0  -5   3  304.35    9.25
   0  -5   3  310.30    9.48
   0  -5   3  309.00   11.00
  -1   5  -3  343.44   12.08
  -1   5  -3  337.14   11.11
  -1   5  -3  335.37   10.59
   1  -5   3  356.19   10.11
   1  -5   3  358.71   10.02
   1  -5   3  341.19   11.69
   1  -5   3  349.51   11.68
  -2   5  -3  159.24    7.26
  -2   5  -3  143.38    7.44
  -2   5  -3  147.62    8.09
   2  -5   3  145.04    6.39
   2  -5   3  150.34    6.37
   2  -5   3  175.14    8.48
   2  -5   3  145.57    7.68
  -3   5  -3 1038.83   24.28
  -3   5  -3 1063.66   22.49
   3  -5   3 1041.40   20.06
   3  -5   3 1097.45   23.61
   3  -5   3 1024.56   23.13
   3  -5   3 1030.37   19.80
  -4   5  -3 1452.13   31.43
  -4   5  -3 1470.24   28.72
   4  -5   3 1468.21   29.91
   4  -5   3 1486.63   26.04
   4  -5   3 1466.68   25.68
   4  -5   3 1485.48   29.97
  -5   5  -3   27.92    5.43
  -5   5  -3   29.80    5.47
   5  -5   3   26.59    3.59
   5  -5   3   16.08    3.98
   5  -5   3   25.83    4.88
   5  -5   3   31.21    4.04
  -6   5  -3   39.75    6.84
   6  -5   3   39.40    6.24
   6  -5   3   43.18    4.99
   6  -5   3   38.96    4.80
  -7   5  -3  185.56   12.85
   7  -5   3  175.42    8.46
   7  -5   3  191.68   11.79
  -7  -4   3    1.44    2.68
  -7  -4   3   -0.88    3.13
   6   4  -3  451.21   16.83
  -6  -4   3  459.44   15.10
  -6  -4   3  479.34   17.71
   5   4  -3  360.67   14.06
  -5  -4   3  334.42   13.93
  -5  -4   3  366.23   12.41
   4   4  -3  962.45   29.19
   4   4  -3  907.08   21.74
  -4  -4   3  857.59   30.41
  -4  -4   3  886.98   19.80
  -4  -4   3  907.84   22.47
   3   4  -3 1883.37   32.99
   3   4  -3 1856.90   32.19
  -3  -4   3 1899.57   31.12
  -3  -4   3 1893.58   34.18
  -3  -4   3 1885.13   31.02
  -3  -4   3 1836.44   33.82
   2   4  -3  601.91   15.19
   2   4  -3  598.04   14.54
   2   4  -3  612.26   16.05
  -2  -4   3  583.98   15.58
  -2  -4   3  612.45   13.86
  -2  -4   3  610.04   15.85
  -2  -4   3  598.18   13.67
  -2  -4   3  596.00   13.75
   1   4  -3   28.32    3.49
   1   4  -3   29.64    3.72
   1   4  -3   26.32    3.78
  -1  -4   3   23.82    3.63
  -1  -4   3   27.74    3.17
  -1  -4   3   25.24    2.94
  -1  -4   3   26.21    3.75
   0   4  -3  149.21    6.88
   0   4  -3  158.38    6.76
   0   4  -3  150.05    6.27
   0  -4   3  151.01    5.81
   0  -4   3  135.61    6.68
   0  -4   3  152.54    7.02
   0  -4   3  154.48    5.75
  -1   4  -3   11.57    2.41
  -1   4  -3    7.99    2.26
   1  -4   3    6.73    2.05
   1  -4   3    7.24    1.76
   1  -4   3    8.37    2.24
   1  -4   3    8.27    1.80
  -2   4  -3   50.17    5.15
  -2   4  -3   44.01    4.45
   2  -4   3   42.03    4.38
   2  -4   3   50.19    3.52
   2  -4   3   36.82    4.04
   2  -4   3   49.19    3.34
  -3   4  -3  229.26    9.72
  -3   4  -3  238.72    8.86
  -3   4  -3  253.31    9.46
   3  -4   3  228.36    9.16
   3  -4   3  223.52    7.28
   3  -4   3  238.93    9.34
   3  -4   3  225.39    7.43
  -4   4  -3  576.65   15.09
  -4   4  -3  567.55   16.82
   4  -4   3  582.45   13.13
   4  -4   3  560.89   12.79
   4  -4   3  551.41   15.77
   4  -4   3  556.43   15.71
  -5   4  -3 2161.75   41.20
   5  -4   3 2227.51   39.31
   5  -4   3 2172.06   38.88
   5  -4   3 2177.01   33.95
   5  -4   3 2191.23   33.78
  -6   4  -3  446.82   17.56
   6  -4   3  482.84   12.89
   6  -4   3  499.47   16.72
   6  -4   3  493.76   12.84
   6  -4   3  477.06   16.48
   7  -4   3  440.16   16.51
   7  -4   3  375.99   11.58
   7  -4   3  367.04   11.36
   8  -4   3  145.65    7.43
   8  -4   3  146.71   10.66
   8  -4   3  138.31    7.11
  -7  -3   3  168.06    9.33
  -7  -3   3  165.25   11.20
   6   3  -3  398.97   15.24
  -6  -3   3  394.91   15.63
  -6  -3   3  384.63   13.19
   5   3  -3  919.25   22.20
  -5  -3   3  920.82   20.12
  -5  -3   3  845.25   22.24
   4   3  -3  213.32    8.81
   4   3  -3  203.26    9.24
  -4  -3   3  204.18    8.18
  -4  -3   3  196.37    9.43
  -4  -3   3  195.87    9.39
  -4  -3   3  216.44    8.36
   3   3  -3  328.89   10.82
   3   3  -3  317.06   10.14
  -3  -3   3  333.07    9.69
  -3  -3   3  313.80   11.06
  -3  -3   3  330.50   11.15
  -3  -3   3  320.93    9.55
   2   3  -3  985.33   19.24
   2   3  -3  991.55   20.00
   2   3  -3  977.29   18.72
  -2  -3   3  985.41   17.75
  -2  -3   3  983.49   17.75
  -2  -3   3  987.88   20.10
  -2  -3   3 1008.79   20.16
   1   3  -3  840.88   16.74
   1   3  -3  806.51   16.15
  -1  -3   3  826.10   14.95
  -1  -3   3  834.49   17.10
  -1  -3   3  838.09   14.88
  -1  -3   3  848.34   14.97
  -1  -3   3  846.73   17.18
   0   3  -3   26.20    2.98
   0   3  -3   27.74    3.21
   0  -3   3   33.50    2.55
   0  -3   3   32.57    3.54
   0  -3   3   30.71    2.38
   0  -3   3   27.45    3.20
  -1   3  -3 4377.46   56.57
  -1   3  -3 4359.27   57.29
   1  -3   3 4335.46   54.32
   1  -3   3 4305.44   57.54
   1  -3   3 4358.33   57.54
   1  -3   3 4307.89   54.17
  -2   3  -3  420.19   11.09
  -2   3  -3  419.83   10.40
   2  -3   3  412.45    8.80
   2  -3   3  423.59   10.93
   2  -3   3  410.00   10.87
   2  -3   3  414.91    8.88
  -3   3  -3  963.84   19.94
  -3   3  -3  937.44   18.02
   3  -3   3  948.82   19.01
   3  -3   3  917.61   15.87
   3  -3   3  939.03   15.83
   3  -3   3  909.72   18.80
   4  -3   3 4755.70   65.39
   4  -3   3 4652.03   60.19
   4  -3   3 4622.23   64.86
   4  -3   3 4703.61   60.08
   5  -3   3    7.22    2.61
   5  -3   3   15.62    2.57
   5  -3   3   10.84    2.17
   5  -3   3    8.17    2.81
   6  -3   3  298.48   12.35
   6  -3   3  316.56    9.44
   6  -3   3  315.33    9.41
   6  -3   3  311.18   12.57
   7  -3   3  432.93   11.89
   7  -3   3  430.87   16.08
   7  -3   3  438.84   11.81
   7  -3   3  440.72   11.99
   8  -3   3   53.13    7.79
   8  -3   3   46.79    4.85
   8  -3   3   48.65    4.81
   7   2  -3  378.99   15.42
  -7  -2   3  385.06   16.15
  -7  -2   3  398.49   13.82
   6   2  -3  995.13   24.46
  -6  -2   3 1032.60   22.37
  -6  -2   3 1033.27   25.74
   5   2  -3  713.59   18.56
  -5  -2   3  702.05   16.59
  -5  -2   3  710.21   19.17
  -5  -2   3  681.97   16.41
  -5  -2   3  702.71   19.15
   4   2  -3 1779.22   30.96
   4   2  -3 1723.26   29.89
  -4  -2   3 1707.79   31.53
  -4  -2   3 1747.63   28.60
  -4  -2   3 1767.44   31.81
  -4  -2   3 1771.60   28.69
   3   2  -3 4165.51   56.30
   3   2  -3 4085.71   56.99
  -3  -2   3 4143.96   54.73
  -3  -2   3 4175.61   58.26
  -3  -2   3 4128.21   54.76
  -3  -2   3 4148.29   58.13
   2   2  -3  891.99   16.94
  -2  -2   3  877.39   15.33
  -2  -2   3  889.81   15.39
  -2  -2   3  903.03   17.66
  -2  -2   3  894.37   17.64
   1   2  -3   62.43    3.65
   1   2  -3   59.13    3.52
  -1  -2   3   61.21    2.96
  -1  -2   3   60.47    3.75
  -1  -2   3   62.96    2.96
  -1  -2   3   57.38    3.78
  -1  -2   3   67.71    4.02
   0   2  -3  175.06    5.32
   0   2  -3  175.04    5.40
   0  -2   3  174.82    5.73
   0  -2   3  176.37    4.26
   0  -2   3  168.60    4.23
   0  -2   3  176.79    5.74
   0  -2   3  169.51    5.75
  -1   2  -3 2040.51   28.00
  -1   2  -3 2049.17   28.27
   1  -2   3 2044.65   28.94
   1  -2   3 2028.14   28.76
   1  -2   3 2011.09   28.86
   1  -2   3 2037.42   25.53
   1  -2   3 2040.80   25.56
  -2   2  -3 1264.60   19.74
  -2   2  -3 1289.17   21.04
   2  -2   3 1293.49   17.43
   2  -2   3 1310.00   20.76
   2  -2   3 1292.79   17.38
   2  -2   3 1283.21   20.89
   2  -2   3 1271.17   20.76
  -3   2  -3 1047.30   18.07
   3  -2   3 1033.09   15.58
   3  -2   3 1053.08   15.57
   3  -2   3 1039.18   19.03
   3  -2   3 1034.70   19.00
   3  -2   3 1073.54   19.19
   4  -2   3   77.59    5.75
   4  -2   3   76.65    3.58
   4  -2   3   81.65    5.22
   4  -2   3   86.09    5.28
   4  -2   3   89.21    3.76
   5  -2   3  600.89   15.80
   5  -2   3  608.58   15.93
   5  -2   3  594.80   17.37
   5  -2   3  598.76   12.10
   5  -2   3  615.33   12.39
   5  -2   3  610.85   12.26
   6  -2   3 2212.16   32.49
   6  -2   3 2234.22   38.84
   6  -2   3 2239.36   41.46
   6  -2   3 2152.25   32.27
   6  -2   3 2144.67   38.54
   7  -2   3  590.98   13.41
   7  -2   3  590.33   18.46
   7  -2   3  570.09   18.11
   7  -2   3  564.86   19.61
   7  -2   3  569.37   13.25
   8  -2   3  407.01   11.21
   8  -2   3  422.29   18.01
   8  -2   3  396.16   11.04
   8  -2   3  397.71   16.32
   7   1  -3 1350.20   30.96
  -7  -1   3 1408.76   32.59
  -7  -1   3 1451.70   28.66
   6   1  -3  592.46   17.77
   6   1  -3  604.62   17.62
  -6  -1   3  616.55   16.00
  -6  -1   3  617.60   18.65
   5   1  -3 1664.15   30.61
   5   1  -3 1753.09   34.25
  -5  -1   3 1648.81   31.85
  -5  -1   3 1637.58   28.27
  -5  -1   3 1597.16   31.48
  -5  -1   3 1581.79   27.97
   4   1  -3    5.90    2.22
   4   1  -3    7.91    2.11
   4   1  -3    7.41    2.14
  -4  -1   3    9.79    2.70
  -4  -1   3    7.80    2.09
  -4  -1   3    6.19    2.44
   3   1  -3  111.51    5.54
  -3  -1   3  123.07    4.94
  -3  -1   3  121.87    6.05
  -3  -1   3  125.68    4.98
  -3  -1   3  120.77    6.07
   2   1  -3  298.72    8.02
  -2  -1   3  302.55    8.56
  -2  -1   3  309.87    6.99
  -2  -1   3  309.40    8.67
  -2  -1   3  312.24    6.99
  -2  -1   3  318.84    8.73
   1   1  -3  373.58    7.98
  -1  -1   3  391.19    8.57
  -1  -1   3  383.06    6.30
  -1  -1   3  368.03    8.49
  -1  -1   3  379.48    8.63
  -1  -1   3  388.37    6.37
   0   1  -3  727.04   10.55
   0  -1   3  726.19   11.83
   0  -1   3  711.74   11.65
   0  -1   3  725.57   11.92
  -1   1  -3 1451.72   19.35
   1  -1   3 1429.54   20.00
   1  -1   3 1464.31   20.14
   1  -1   3 1463.85   20.01
   2  -1   3 1319.76   19.48
   2  -1   3 1317.38   19.61
   2  -1   3 1367.36   21.85
   2  -1   3 1294.71   19.46
   3  -1   3 1279.71   22.92
   3  -1   3 1284.31   20.79
   3  -1   3 1292.63   20.91
   3  -1   3 1302.41   20.86
   3  -1   3 1288.40   20.86
   4  -1   3 1220.52   21.84
   4  -1   3 1225.66   22.02
   4  -1   3 1245.22   17.42
   4  -1   3 1253.83   17.43
   4  -1   3 1245.96   22.19
   4  -1   3 1236.17   24.22
   5  -1   3  487.46    9.73
   5  -1   3  475.52   11.94
   5  -1   3  468.34   13.30
   5  -1   3  465.71   13.31
   5  -1   3  490.21   15.09
   5  -1   3  480.70    9.65
   6  -1   3 5039.69   71.29
   6  -1   3 4977.64   63.33
   6  -1   3 5080.50   65.39
   6  -1   3 4993.24   71.21
   6  -1   3 4994.58   63.30
   6  -1   3 4856.95   74.04
   7  -1   3  420.38   15.14
   7  -1   3  449.83   10.75
   7  -1   3  467.12   17.36
   7  -1   3  441.78   15.66
   7  -1   3  442.33   10.72
   8  -1   3 1047.26   27.20
   8  -1   3 1068.08   29.43
   8  -1   3 1052.12   19.38
   8  -1   3 1078.90   19.52
   8   0  -3  129.96    9.69
  -8   0   3  103.07    7.49
  -8   0   3  117.73   10.98
   7   0  -3  384.26   14.60
  -7   0   3  372.78   12.87
  -7   0   3  391.61   15.73
   6   0  -3   67.33    6.86
   6   0  -3   68.85    6.80
  -6   0   3   73.27    5.41
  -6   0   3   57.81    6.73
   5   0  -3  585.55   15.89
   5   0  -3  597.00   17.45
   5   0  -3  586.87   15.35
  -5   0   3  601.84   16.76
  -5   0   3  617.08   16.93
  -5   0   3  605.94   14.29
  -5   0   3  571.60   14.06
   4   0  -3 1960.61   31.77
   4   0  -3 1919.83   31.02
   4   0  -3 1999.77   32.16
  -4   0   3 1957.83   29.89
  -4   0   3 1992.77   26.90
  -4   0   3 1980.92   33.38
  -4   0   3 1964.37   29.86
  -4   0   3 1980.76   33.41
   3   0  -3 1306.62   22.16
  -3   0   3 1331.07   20.38
  -3   0   3 1322.39   23.20
  -3   0   3 1303.81   23.02
  -3   0   3 1316.43   20.33
  -3   0   3 1332.34   20.44
   2   0  -3   49.05    3.01
  -2   0   3   45.33    3.08
  -2   0   3   48.40    3.28
  -2   0   3   43.74    3.09
  -2   0   3   46.34    3.24
  -2   0   3   46.00    2.22
  -2   0   3   43.68    2.20
  -1   0   3 5358.74   65.55
  -1   0   3 5491.91   65.76
  -1   0   3 5429.81   65.79
   0   0   3  200.53    3.54
   0   0   3  200.98    3.90
   0   0   3  205.05    3.58
   0   0   3  200.34    3.84
   1   0   3  535.67    7.13
   1   0   3  537.95    9.81
   1   0   3  540.89    7.17
   2   0   3 1733.43   22.77
   2   0   3 1709.31   25.50
   2   0   3 1699.99   22.51
   2   0   3 1736.55   22.54
   3   0   3 2193.44   32.76
   3   0   3 2252.17   31.02
   3   0   3 2221.58   33.73
   3   0   3 2254.38   31.09
   3   0   3 2256.88   30.92
   4   0   3 2783.07   43.05
   4   0   3 2897.09   40.61
   4   0   3 2857.50   40.58
   4   0   3 2845.34   40.45
   4   0   3 2861.84   40.29
   5   0   3   27.01    2.03
   5   0   3   25.10    3.69
   5   0   3   28.03    3.82
   5   0   3   26.52    3.50
   5   0   3   24.32    1.92
   5   0   3   19.90    3.77
   5   0   3   24.10    3.00
   6   0   3 8099.74  106.53
   6   0   3 8015.11  109.73
   6   0   3 8134.19   97.50
   6   0   3 8213.53  106.80
   6   0   3 8074.34   97.46
   7   0   3  267.69    7.59
   7   0   3  272.37   12.00
   7   0   3  269.59   11.92
   7   0   3  263.67   12.94
   7   0   3  273.41    7.59
   8   0   3   44.35    7.24
   8   0   3   42.85    6.31
   8   0   3   39.51    3.62
   8   0   3   43.10    3.40
   9   0   3    7.54    4.60
   9   0   3    5.67    3.79
   9   0   3    6.40    1.82
   8  -1  -3    7.51    3.73
  -8   1   3    6.75    2.93
  -8   1   3    9.57    4.34
   7  -1  -3  214.86   10.78
  -7   1   3  211.06    9.49
  -7   1   3  235.53   12.22
   6  -1  -3  856.21   21.16
   6  -1  -3  816.00   20.15
  -6   1   3  843.65   18.65
  -6   1   3  833.68   18.62
  -6   1   3  860.66   22.27
   5  -1  -3 3303.11   50.08
   5  -1  -3 3275.37   48.87
  -5   1   3 3378.06   47.37
  -5   1   3 3387.45   51.90
  -5   1   3 3308.16   47.11
  -5   1   3 3306.90   51.65
   4  -1  -3  588.62   13.29
   4  -1  -3  570.72   13.93
  -4   1   3  574.41   12.34
  -4   1   3  577.97   14.85
  -4   1   3  557.80   12.21
  -4   1   3  556.98   14.81
   3  -1  -3  539.18   12.05
   3  -1  -3  554.90   11.26
  -3   1   3  540.11   12.82
  -3   1   3  557.74   13.06
  -3   1   3  552.34   10.58
  -3   1   3  543.53   10.54
   2  -1  -3  996.23   16.07
   2  -1  -3  982.16   14.71
  -2   1   3  986.83   17.07
  -2   1   3 1018.66   17.06
  -2   1   3  983.19   17.07
  -2   1   3  988.61   17.00
  -2   1   3 1011.94   13.65
  -2   1   3  998.50   13.60
  -1   1   3  801.36   12.48
  -1   1   3  830.88   12.67
  -1   1   3  792.02   12.62
  -1   1   3  783.83   14.71
   0   1   3  211.25    4.87
   1   1   3  720.60   11.47
   1   1   3  706.89   11.35
   2   1   3   24.14    1.66
   2   1   3   22.91    1.56
   2   1   3   28.71    3.00
   2   1   3   24.27    1.71
   2   1   3   25.86    1.59
   2   1   3   26.74    3.18
   3   1   3    0.63    1.26
   3   1   3    1.60    1.04
   3   1   3    0.87    1.08
   3   1   3    1.32    0.96
   3   1   3    0.54    1.28
   4   1   3 6985.77   86.66
   4   1   3 6851.46   86.57
   4   1   3 6836.07   90.21
   4   1   3 6822.36   86.61
   4   1   3 7031.65   86.91
   5   1   3 1348.78   25.07
   5   1   3 1398.58   25.32
   5   1   3 1381.51   25.30
   5   1   3 1414.77   27.89
   6   1   3   47.24    2.82
   6   1   3   49.78    5.54
   6   1   3   44.85    5.86
   6   1   3   48.39    5.56
   6   1   3   43.21    2.75
   7   1   3   93.89    4.08
   7   1   3   85.37    7.66
   7   1   3   88.41    8.32
   7   1   3   92.50    4.09
   7   1   3  107.37    8.62
   8   1   3    8.75    1.83
   8   1   3    9.22    1.82
   8   1   3    4.60    3.26
   8   1   3   10.16    4.01
   8   1   3    8.26    4.17
   8  -2  -3  210.26   11.70
  -8   2   3  222.46   10.35
  -8   2   3  210.23   12.68
   7  -2  -3  409.99   15.02
  -7   2   3  448.18   13.75
  -7   2   3  411.17   16.35
   6  -2  -3   20.67    4.06
   6  -2  -3   20.45    3.95
  -6   2   3   26.71    3.77
  -6   2   3   25.39    4.93
  -6   2   3   16.61    3.08
   5  -2  -3   65.62    5.06
   5  -2  -3   77.16    5.68
  -5   2   3   77.14    4.81
  -5   2   3   82.17    6.38
  -5   2   3   73.24    4.70
  -5   2   3   77.00    6.22
   4  -2  -3    0.37    1.33
   4  -2  -3    2.71    1.67
  -4   2   3    0.60    1.61
  -4   2   3    2.02    1.27
  -4   2   3    0.74    1.12
  -4   2   3    0.72    1.63
   3  -2  -3 1873.92   27.55
   3  -2  -3 1901.77   28.94
  -3   2   3 1878.09   30.24
  -3   2   3 1897.48   26.46
  -3   2   3 1935.05   32.58
  -3   2   3 1878.08   30.30
  -3   2   3 1895.52   26.45
   2  -2  -3  730.85   12.98
  -2   2   3  722.14   10.34
  -2   2   3  726.40   10.34
  -2   2   3  730.34   14.08
  -2   2   3  727.06   13.96
  -2   2   3  736.12   14.10
  -1   2   3 1641.31   23.04
  -1   2   3 1644.66   23.01
  -1   2   3 1657.71   25.38
  -1   2   3 1648.67   23.16
   0   2   3 1157.03   15.40
   0   2   3 1141.24   18.22
   0   2   3 1131.40   15.01
   0   2   3 1128.94   14.99
   0   2   3 1118.03   15.26
   1   2   3   40.85    2.96
   1   2   3   39.52    1.69
   1   2   3   40.13    1.42
   1   2   3   42.90    1.44
   2   2   3 1506.22   20.40
   2   2   3 1488.05   23.91
   2   2   3 1506.73   20.53
   2   2   3 1492.50   20.35
   2   2   3 1447.07   23.98
   3   2   3  927.66   15.89
   3   2   3  938.64   15.91
   3   2   3  920.80   15.89
  -4  -2  -3  359.38    8.72
   4   2   3  365.46   10.10
   4   2   3  359.47    9.98
   4   2   3  363.52    9.97
  -5  -2  -3   48.34    3.79
   5   2   3   52.36    5.23
   5   2   3   52.23    5.08
   5   2   3   53.07    5.91
   5   2   3   49.18    4.69
   6   2   3 1335.88   27.13
   6   2   3 1369.11   27.50
   6   2   3 1382.26   29.86
   7   2   3   10.31    3.58
   7   2   3    5.32    3.60
   7   2   3   10.35    3.42
   8   2   3  740.44   25.84
   8   2   3  695.74   23.32
   8   2   3  676.35   21.35
   7  -3  -3   32.82    5.44
  -7   3   3   34.54    4.65
   6  -3  -3    2.91    2.38
  -6   3   3   -1.73    2.08
  -6   3   3   -0.67    1.43
  -6   3   3    0.39    1.74
   5  -3  -3  938.79   21.20
  -5   3   3  943.34   22.53
  -5   3   3  940.30   18.70
  -5   3   3 1009.94   23.07
  -5   3   3  971.60   19.00
   4  -3  -3  290.43    9.75
  -4   3   3  274.54    8.10
  -4   3   3  299.75   10.73
  -4   3   3  301.87   10.75
  -4   3   3  293.73    8.28
   3  -3  -3 1143.93   20.52
  -3   3   3 1156.27   21.80
  -3   3   3 1171.77   24.36
  -3   3   3 1156.29   18.09
  -3   3   3 1122.26   21.66
  -3   3   3 1187.01   18.16
   2  -3  -3 1341.53   21.16
  -2   3   3 1355.74   18.03
  -2   3   3 1368.89   22.67
  -2   3   3 1327.73   22.38
  -2   3   3 1383.10   18.10
  -2   3   3 1306.05   24.73
  -2   3   3 1336.21   22.46
  -1   3   3 4509.00   56.26
  -1   3   3 4434.40   59.71
  -1   3   3 4329.44   56.19
   0   3   3   20.62    1.99
   0   3   3   23.24    2.21
   0   3   3   22.75    3.02
   1   3   3 2205.35   33.38
   1   3   3 2212.56   29.43
   1   3   3 2269.84   29.75
   1   3   3 2190.26   29.43
   2   3   3   92.44    3.93
   2   3   3   90.98    3.90
   2   3   3   95.16    5.42
   2   3   3   97.59    4.07
   3   3   3 1916.20   28.81
   3   3   3 1895.63   28.68
   3   3   3 1906.09   32.56
   3   3   3 1906.04   28.70
  -4  -3  -3  585.22   12.20
   4   3   3  589.22   13.93
   4   3   3  613.14   14.21
   4   3   3  587.28   13.98
   5   3   3  970.48   20.89
   5   3   3  973.33   20.95
   5   3   3  973.62   20.80
   6   3   3   26.61    4.27
   6   3   3   38.36    5.29
   7   3   3   20.54    4.50
   7   3   3   25.89    5.86
   7   3   3   21.15    4.44
   8   3   3  373.22   15.87
   8   3   3  389.83   17.65
  -7   4   3 1009.26   22.31
  -6   4   3 1311.60   24.95
  -6   4   3 1331.97   25.03
   5  -4  -3  256.76   11.24
  -5   4   3  259.20    8.76
  -5   4   3  261.49   13.12
  -5   4   3  258.68    8.86
  -5   4   3  253.18   11.37
   4  -4  -3   29.03    4.09
  -4   4   3   36.78    5.86
  -4   4   3   24.46    3.09
  -4   4   3   29.89    4.35
  -4   4   3   29.92    3.31
   3  -4  -3  604.36   13.97
  -3   4   3  595.35   11.68
  -3   4   3  609.19   15.32
  -3   4   3  604.25   17.31
  -3   4   3  615.61   15.37
  -3   4   3  598.40   11.66
   2  -4  -3  283.99    8.20
  -2   4   3  281.95    9.13
  -2   4   3  282.94    6.01
  -2   4   3  274.84    8.99
  -2   4   3  264.42    8.76
  -2   4   3  275.64    6.02
  -2   4   3  279.38   10.65
   1  -4  -3 1493.21   22.76
  -1   4   3 1524.06   24.41
  -1   4   3 1497.92   27.64
  -1   4   3 1498.97   24.46
   0   4   3  968.78   20.05
   0   4   3  965.98   17.14
   0   4   3  956.59   17.07
   1   4   3   31.86    3.03
   1   4   3   31.93    3.15
   1   4   3   21.33    3.48
   1   4   3   33.97    3.14
   2   4   3   88.15    4.62
   2   4   3   96.54    6.16
   2   4   3  101.29    4.79
   2   4   3   96.53    4.71
   3   4   3 2591.98   42.51
   3   4   3 2563.88   37.94
   3   4   3 2493.66   37.90
   3   4   3 2635.37   38.31
  -4  -4  -3  413.54   10.34
   4   4   3  400.73   11.92
   4   4   3  408.07   14.43
   4   4   3  413.29   11.94
   4   4   3  397.37   11.94
   5   4   3  146.70    7.80
   5   4   3  139.86    7.69
   6   4   3  192.03    9.93
   6   4   3  187.65    9.83
   7   4   3  393.86   15.48
   7   4   3  409.81   15.61
   8   4   3  451.91   17.91
   8   4   3  483.13   19.90
  -7   5   3    2.80    3.80
  -7   5   3    0.63    2.04
  -6   5   3  515.29   14.07
  -6   5   3  524.78   21.00
  -6   5   3  546.41   14.48
  -5   5   3   48.38    4.66
  -5   5   3   36.37    5.30
  -5   5   3   42.65    4.22
  -5   5   3   45.82    6.97
   4  -5  -3    5.32    3.02
  -4   5   3    6.23    1.86
  -4   5   3    6.41    2.02
  -4   5   3    5.46    2.65
  -4   5   3    9.70    3.49
   3  -5  -3    0.26    1.64
  -3   5   3    0.38    1.03
  -3   5   3   -1.16    0.92
  -3   5   3    3.69    1.89
  -3   5   3    1.36    2.22
   2  -5  -3  492.66   12.21
  -2   5   3  498.12    9.47
  -2   5   3  494.80   13.44
  -2   5   3  498.07   13.60
  -2   5   3  492.76    9.52
  -2   5   3  502.70   15.98
   1  -5  -3  261.47    7.94
  -1   5   3  259.78   10.63
  -1   5   3  252.24    8.82
  -1   5   3  269.81    9.06
   0  -5  -3  757.33   14.51
   0   5   3  803.29   16.43
   0   5   3  756.20   19.03
   0   5   3  784.19   16.43
   0   5   3  784.03   16.45
  -1  -5  -3 6580.17   81.36
   1   5   3 6707.01   84.32
   1   5   3 6558.06   84.15
   1   5   3 6561.11   84.24
   1   5   3 6488.62   89.24
  -2  -5  -3   52.61    3.53
   2   5   3   63.48    4.49
   2   5   3   54.52    4.36
   2   5   3   47.02    5.49
   2   5   3   54.79    4.25
  -3  -5  -3  952.36   18.96
   3   5   3  917.85   19.68
   3   5   3  948.87   19.81
   3   5   3  954.24   19.81
   3   5   3  958.48   23.41
   4   5   3   95.09    7.66
   4   5   3   84.96    6.02
   4   5   3   89.66    6.23
   5   5   3   61.22    6.09
   5   5   3   66.46    6.77
   6   5   3  166.45    9.74
   6   5   3  156.55    9.54
   7   5   3  612.85   20.16
   7   5   3  604.40   19.99
  -6   6   3  548.53   14.74
  -6   6   3  571.67   14.87
  -6   6   3  544.05   22.27
  -5   6   3   13.03    5.02
  -5   6   3    9.60    2.42
  -5   6   3    7.13    2.31
  -4   6   3    0.44    1.30
  -4   6   3    0.36    2.67
  -4   6   3    1.22    2.26
  -4   6   3    1.43    1.47
  -3   6   3  369.51    9.29
  -3   6   3  366.15    9.23
  -3   6   3  364.16   15.31
  -3   6   3  354.44   13.00
  -2   6   3   46.96    6.67
  -2   6   3   56.91    3.25
  -2   6   3   51.56    5.55
  -2   6   3   52.41    3.09
   1  -6  -3 1268.81   22.84
  -1   6   3 1301.41   18.13
  -1   6   3 1268.05   25.16
  -1   6   3 1302.96   28.84
  -1   6   3 1242.26   17.98
   0  -6  -3  339.48    9.79
   0   6   3  341.08   11.19
   0   6   3  371.32   13.94
   0   6   3  348.61   11.39
   0   6   3  353.74   11.46
  -1  -6  -3   12.29    3.27
   1   6   3    4.19    1.92
   1   6   3    9.44    2.58
   1   6   3    2.37    1.86
   1   6   3    6.87    2.87
   2   6   3   35.33    4.65
   2   6   3   53.60    6.64
   2   6   3   33.41    4.18
   2   6   3   66.29    6.12
   3   6   3 1120.22   23.92
   3   6   3 1173.12   28.12
   3   6   3 1172.51   24.42
   4   6   3    5.26    2.53
   4   6   3    7.64    3.06
   4   6   3    5.87    3.45
   5   6   3  902.95   23.06
   5   6   3  925.92   23.26
   6   6   3    8.69    3.65
   6   6   3   12.85    3.82
   7   6   3 2134.68   43.65
  -5   7   3    4.02    1.99
  -5   7   3    7.77    2.41
  -5   7   3    2.23    3.50
  -4   7   3  484.95   20.02
  -4   7   3  537.45   12.79
  -4   7   3  546.78   12.86
  -3   7   3  135.75    5.58
  -3   7   3  147.13   10.69
  -3   7   3  135.55    8.80
  -3   7   3  128.46    5.53
  -2   7   3   17.86    2.32
  -2   7   3   15.59    4.47
  -2   7   3   28.77    4.67
  -2   7   3   23.72    2.61
  -1   7   3   -0.71    2.30
  -1   7   3   -0.24    0.93
  -1   7   3    1.77    2.29
  -1   7   3   -0.48    0.81
  -1   7   3    0.68    1.97
   0   7   3 1077.44   23.90
   0   7   3 1050.42   23.53
   0   7   3 1060.94   27.25
   1   7   3 2631.73   49.00
   1   7   3 2736.44   44.83
   1   7   3 2778.09   44.89
   2   7   3  394.47   16.21
   2   7   3  387.65   13.58
   2   7   3  428.25   14.14
   3   7   3 1143.28   25.79
   3   7   3 1197.67   30.27
   3   7   3 1137.47   25.87
   4   7   3  138.47    8.93
   4   7   3  132.28    8.88
   4   7   3  141.52   10.61
   5   7   3  823.85   22.86
   5   7   3  760.66   22.31
   5   7   3  785.55   26.03
   6   7   3  157.29   10.78
  -4   8   3   29.04    3.59
  -4   8   3   20.67    2.96
  -4   8   3   19.57    5.71
  -3   8   3    1.52    1.39
  -3   8   3    0.98    3.35
  -3   8   3    1.96    1.54
  -2   8   3  499.08   10.72
  -2   8   3  494.80   19.81
  -2   8   3  521.49   10.82
  -2   8   3  503.11   17.31
  -2   8   3  523.51   17.63
  -1   8   3 1479.59   31.54
  -1   8   3 1448.97   35.54
  -1   8   3 1492.07   31.79
   0   8   3   96.08   10.08
   0   8   3   87.68    8.25
   0   8   3   62.00    6.92
   1   8   3  111.62    9.51
   1   8   3  119.13    8.26
   1   8   3  113.88    8.15
   2   8   3   92.61    8.37
   2   8   3   85.91    9.59
   2   8   3  106.53    8.01
   3   8   3  688.50   24.03
   3   8   3  775.57   21.63
   3   8   3  753.14   21.51
   4   8   3  171.49   10.85
   4   8   3  202.76   11.31
   4   8   3  208.66   13.58
   5   8   3   87.35    9.13
   5   8   3   75.06   10.24
  -3   9   3  117.63    5.14
  -3   9   3  145.39    5.57
  -3   9   3  141.88   14.24
  -3   9   3  137.40   10.48
  -2   9   3  244.11   13.00
  -2   9   3  285.46   15.98
  -1   9   3  155.65   10.39
  -1   9   3  150.92   12.00
   0   9   3  570.11   19.25
   0   9   3  530.25   18.60
   0   9   3  539.98   21.75
   1   9   3  205.47   11.63
   1   9   3  200.14   11.53
   1   9   3  216.47   14.01
   2   9   3  260.02   13.09
   2   9   3  264.67   15.39
   2   9   3  237.15   12.62
   3   9   3  403.54   19.28
   3   9   3  378.77   16.10
   2   8  -4  428.98   18.11
  -2  -8   4  403.34   17.39
  -2  -8   4  424.37   14.52
   1   8  -4  358.96   16.45
  -1  -8   4  381.76   13.39
  -1  -8   4  384.98   16.41
   0   8  -4  593.86   20.88
   0  -8   4  612.20   20.77
   0  -8   4  576.35   16.71
  -1   8  -4   36.50    6.55
   1  -8   4   42.71    5.41
   1  -8   4   45.43    6.79
  -2   8  -4  115.27    9.59
   2  -8   4  112.43    7.15
   2  -8   4  110.26   10.31
  -3   8  -4   57.85    8.33
   3  -8   4   83.35    6.26
   3  -8   4   80.73    9.29
  -4   8  -4  302.53   15.87
   4  -8   4  287.61   11.17
   4  -8   4  307.88   15.32
  -4  -7   4   33.89    5.23
  -4  -7   4   35.24    6.35
   3   7  -4   83.36    9.20
  -3  -7   4   90.91    9.30
  -3  -7   4   85.20    6.59
   2   7  -4    3.17    3.11
  -2  -7   4    4.25    3.05
  -2  -7   4    1.55    2.14
   1   7  -4   33.12    5.79
  -1  -7   4   52.94    5.56
  -1  -7   4   46.14    6.42
   0   7  -4  596.16   19.36
   0  -7   4  594.46   15.83
   0  -7   4  568.85   18.62
  -1   7  -4 1475.78   32.50
   1  -7   4 1424.61   31.53
   1  -7   4 1407.05   26.67
  -2   7  -4  772.18   22.69
   2  -7   4  807.78   19.13
   2  -7   4  790.82   18.35
   2  -7   4  812.90   22.81
  -3   7  -4   16.22    4.83
   3  -7   4   19.67    3.44
   3  -7   4   13.07    2.94
   3  -7   4   14.54    4.28
  -4   7  -4  241.34   13.16
   4  -7   4  232.02   10.66
   4  -7   4  228.22   12.25
   4  -7   4  217.71    9.13
  -5   7  -4  354.29   17.10
   5  -7   4  396.00   12.47
   5  -7   4  390.60   16.71
  -5  -6   4  167.17    9.21
  -5  -6   4  130.38   10.42
  -4  -6   4  138.26   10.02
  -4  -6   4  141.53    8.03
  -3  -6   4  130.93    9.13
  -3  -6   4  147.52    7.84
   2   6  -4  470.89   15.54
   2   6  -4  478.11   16.46
  -2  -6   4  459.22   13.40
  -2  -6   4  453.39   16.06
   1   6  -4 1092.28   25.62
   1   6  -4 1090.88   24.54
  -1  -6   4 1089.42   21.76
  -1  -6   4 1086.17   26.00
  -1  -6   4 1108.64   25.86
  -1  -6   4 1081.91   21.64
   0   6  -4  991.83   23.80
   0   6  -4  952.63   22.41
   0  -6   4  981.82   23.70
   0  -6   4  999.15   20.17
   0  -6   4  982.96   19.76
   0  -6   4  963.76   23.54
  -1   6  -4  228.88   10.69
  -1   6  -4  244.18   10.33
   1  -6   4  235.18    8.57
   1  -6   4  234.16   10.93
   1  -6   4  224.42   10.66
   1  -6   4  231.88    8.43
  -2   6  -4  102.53    7.17
  -2   6  -4  111.13    7.88
   2  -6   4  105.86    7.75
   2  -6   4  117.84    8.09
   2  -6   4  115.78    5.99
   2  -6   4  106.65    5.88
  -3   6  -4  168.56    9.95
   3  -6   4  147.60    6.87
   3  -6   4  151.75    6.87
   3  -6   4  156.88    9.20
   3  -6   4  148.31    9.22
  -4   6  -4  981.88   25.91
   4  -6   4  958.48   19.56
   4  -6   4  948.85   19.52
   4  -6   4  963.58   24.80
  -5   6  -4  135.17   10.09
   5  -6   4  141.02    6.93
   5  -6   4  154.96    9.98
   5  -6   4  151.27    7.03
  -6   6  -4   -2.68    2.66
   6  -6   4   -0.18    1.64
   6  -6   4    0.68    1.66
   6  -6   4    1.35    3.06
  -5  -5   4    5.06    3.26
  -5  -5   4   -0.59    2.07
  -4  -5   4    8.85    2.73
  -4  -5   4    3.86    2.97
   3   5  -4 1296.16   27.30
  -3  -5   4 1293.59   28.67
  -3  -5   4 1231.43   24.17
  -3  -5   4 1272.68   24.36
   2   5  -4   94.87    6.69
   2   5  -4  103.09    7.25
  -2  -5   4   91.33    6.90
  -2  -5   4  104.80    5.83
  -2  -5   4  105.09    7.40
  -2  -5   4   98.61    5.56
   1   5  -4  165.90    8.10
   1   5  -4  156.35    8.32
  -1  -5   4  149.80    6.50
  -1  -5   4  163.84    8.70
  -1  -5   4  165.80    8.62
  -1  -5   4  167.71    6.86
  -1  -5   4  158.43    6.78
   0   5  -4  644.63   16.06
   0   5  -4  589.25   16.26
   0  -5   4  610.74   13.76
   0  -5   4  643.59   16.96
   0  -5   4  589.96   16.57
   0  -5   4  596.89   13.46
  -1   5  -4  373.44   11.72
  -1   5  -4  375.60   12.50
   1  -5   4  358.91    9.80
   1  -5   4  412.13   13.10
   1  -5   4  359.78   12.50
   1  -5   4  354.76    9.69
  -2   5  -4  516.82   15.33
  -2   5  -4  525.94   14.35
   2  -5   4  520.84   15.57
   2  -5   4  527.46   12.19
   2  -5   4  535.59   15.42
   2  -5   4  520.32   12.05
  -3   5  -4  543.23   15.28
  -3   5  -4  582.80   17.20
   3  -5   4  580.86   12.95
   3  -5   4  578.05   13.03
   3  -5   4  610.28   17.21
   3  -5   4  594.87   17.02
  -4   5  -4    1.75    2.70
   4  -5   4    1.59    2.29
   4  -5   4    4.90    1.78
   4  -5   4    3.35    2.51
   4  -5   4    2.40    1.65
  -5   5  -4   72.77    8.32
   5  -5   4   64.72    7.59
   5  -5   4   65.61    7.10
   5  -5   4   70.89    4.66
   5  -5   4   69.10    4.53
  -6   5  -4   54.15    7.59
   6  -5   4   57.04    7.28
   6  -5   4   55.15    4.39
   6  -5   4   49.11    4.57
  -7   5  -4  215.38   13.54
   7  -5   4  217.61   12.53
   7  -5   4  203.23    7.69
   7  -5   4  197.89    7.67
  -6  -4   4   17.28    3.92
  -6  -4   4   16.43    4.94
  -5  -4   4  271.74   10.61
  -5  -4   4  283.36   13.18
   4   4  -4  660.91   18.26
  -4  -4   4  704.17   29.63
  -4  -4   4  654.43   16.03
  -4  -4   4  651.83   19.28
  -4  -4   4  644.51   15.98
   3   4  -4   78.94    6.15
  -3  -4   4   77.09    7.14
  -3  -4   4   80.54    5.15
  -3  -4   4   74.02    4.98
  -3  -4   4   95.36    6.90
   2   4  -4  948.51   20.99
   2   4  -4  945.84   20.30
  -2  -4   4  987.94   21.81
  -2  -4   4  918.11   21.31
  -2  -4   4  958.19   18.27
  -2  -4   4  954.86   18.30
   1   4  -4  291.99   10.13
   1   4  -4  306.59   10.06
  -1  -4   4  323.51   11.00
  -1  -4   4  295.43    8.31
  -1  -4   4  307.95    8.56
  -1  -4   4  289.40   10.61
   0   4  -4   26.28    3.57
   0   4  -4   18.85    2.99
   0  -4   4   22.11    2.58
   0  -4   4   22.04    3.49
   0  -4   4   26.22    2.84
   0  -4   4   21.26    3.34
  -1   4  -4  342.84   10.21
  -1   4  -4  398.23   11.32
   1  -4   4  359.86   11.42
   1  -4   4  373.56    8.72
   1  -4   4  379.74   11.60
  -2   4  -4   73.78    5.22
  -2   4  -4   73.30    4.86
   2  -4   4   75.08    5.37
   2  -4   4   77.91    3.74
   2  -4   4   64.17    5.08
   2  -4   4   75.36    3.79
  -3   4  -4    0.30    1.92
  -3   4  -4    0.87    1.62
   3  -4   4    0.98    1.71
   3  -4   4    0.91    1.17
   3  -4   4    0.23    1.05
   3  -4   4   -0.33    1.62
  -4   4  -4 2697.34   42.33
  -4   4  -4 2777.89   45.62
   4  -4   4 2734.12   44.52
   4  -4   4 2695.66   44.25
   4  -4   4 2795.21   37.90
   4  -4   4 2727.79   37.57
  -5   4  -4  723.17   20.56
   5  -4   4  711.09   14.02
   5  -4   4  705.60   14.13
   5  -4   4  683.76   19.06
   5  -4   4  733.49   19.57
  -6   4  -4   10.90    4.15
   6  -4   4   14.10    2.42
   6  -4   4    7.07    3.21
   6  -4   4   17.50    4.26
   6  -4   4    7.57    1.97
  -7   4  -4    7.41    4.15
   7  -4   4    8.82    3.76
   7  -4   4    5.25    1.91
   7  -4   4   15.45    2.57
  -7  -3   4  203.12   12.76
  -7  -3   4  217.01   10.19
  -6  -3   4   41.31    5.11
  -6  -3   4   55.40    7.49
   5   3  -4    4.51    3.23
  -5  -3   4    4.60    3.01
  -5  -3   4    4.66    2.14
  -5  -3   4    9.77    2.67
   4   3  -4    0.78    2.12
  -4  -3   4    6.43    2.59
  -4  -3   4    6.62    2.28
  -4  -3   4   12.67    3.52
  -4  -3   4    6.42    2.22
   3   3  -4 1274.13   24.63
  -3  -3   4 1298.12   22.31
  -3  -3   4 1280.81   26.12
  -3  -3   4 1273.92   26.11
  -3  -3   4 1317.88   22.35
   2   3  -4  775.34   16.78
  -2  -3   4  759.52   17.76
  -2  -3   4  760.36   14.51
  -2  -3   4  762.84   17.79
  -2  -3   4  779.78   14.60
   1   3  -4  542.05   12.64
   1   3  -4  529.93   12.57
  -1  -3   4  546.57   10.67
  -1  -3   4  551.73   13.76
  -1  -3   4  528.59   10.58
  -1  -3   4  566.10   13.83
   0   3  -4  206.80    6.94
   0   3  -4  199.01    6.81
   0  -3   4  210.96    7.74
   0  -3   4  202.24    7.41
   0  -3   4  205.86    7.61
   0  -3   4  203.43    5.30
   0  -3   4  208.27    5.37
  -1   3  -4  625.35   13.18
  -1   3  -4  622.46   12.82
   1  -3   4  620.55   13.93
   1  -3   4  625.11   13.88
   1  -3   4  616.74   14.05
   1  -3   4  631.07   10.18
   1  -3   4  627.57   10.16
   1  -3   4  629.53   10.17
  -2   3  -4  773.74   15.84
  -2   3  -4  759.12   14.83
   2  -3   4  752.85   15.88
   2  -3   4  752.76   16.06
   2  -3   4  756.09   11.52
   2  -3   4  741.41   15.99
   2  -3   4  732.30   11.44
  -3   3  -4 4992.35   67.70
  -3   3  -4 5106.12   65.42
   3  -3   4 4865.79   67.02
   3  -3   4 4968.15   60.25
   3  -3   4 5028.64   60.36
   3  -3   4 5009.60   67.57
   3  -3   4 5006.35   67.22
  -4   3  -4  166.85    7.07
  -4   3  -4  162.18    8.24
   4  -3   4  179.72    8.16
   4  -3   4  170.65    4.93
   4  -3   4  169.80    4.89
   4  -3   4  166.36    7.77
   4  -3   4  163.77    7.78
   5  -3   4  203.02    5.93
   5  -3   4  196.00    9.34
   5  -3   4  203.64    9.45
   5  -3   4  201.03    5.78
   5  -3   4  205.00    5.87
   6  -3   4   78.53    3.93
   6  -3   4   74.12    7.40
   6  -3   4   84.80    4.03
   6  -3   4   88.88    7.07
   7  -3   4  347.50   14.46
   7  -3   4  352.32    8.71
   7  -3   4  358.60   14.72
   7  -3   4  368.72    8.85
   8  -3   4  101.14    4.34
   8  -3   4  102.04    9.65
   7   2  -4 1617.18   35.26
  -7  -2   4 1703.85   37.64
  -7  -2   4 1673.70   31.60
  -6  -2   4   24.72    5.33
  -6  -2   4   31.38    4.40
   5   2  -4   22.60    4.29
  -5  -2   4   24.28    3.77
  -5  -2   4   18.83    3.30
  -5  -2   4   27.52    4.96
  -5  -2   4   22.36    4.46
   4   2  -4 3288.49   49.23
  -4  -2   4 3241.20   51.01
  -4  -2   4 3297.64   45.99
  -4  -2   4 3265.55   45.79
  -4  -2   4 3178.53   50.68
   3   2  -4  948.85   19.18
  -3  -2   4  932.07   20.33
  -3  -2   4  965.97   16.95
  -3  -2   4  945.77   16.94
  -3  -2   4  941.15   20.50
   2   2  -4   53.44    3.88
  -2  -2   4   59.64    4.40
  -2  -2   4   53.10    2.96
  -2  -2   4   51.68    2.88
  -2  -2   4   48.03    4.55
  -2  -2   4   49.98    4.57
   1   2  -4  116.88    4.94
  -1  -2   4  125.11    3.42
  -1  -2   4  113.72    5.33
  -1  -2   4  122.21    3.39
  -1  -2   4  117.15    5.42
  -1  -2   4  118.93    5.51
   0   2  -4  145.64    4.91
   0   2  -4  147.96    4.74
   0  -2   4  147.36    5.56
   0  -2   4  145.08    5.58
   0  -2   4  144.68    5.43
  -1   2  -4 1606.62   22.84
   1  -2   4 1590.84   24.47
   1  -2   4 1554.36   24.23
   1  -2   4 1645.95   24.47
  -2   2  -4  775.78   14.40
   2  -2   4  772.43   14.85
   2  -2   4  763.34   14.71
   2  -2   4  766.34   14.66
  -3   2  -4 2342.93   32.70
   3  -2   4 2354.08   34.93
   3  -2   4 2324.37   34.69
   3  -2   4 2366.69   34.96
  -4   2  -4  919.38   17.24
   4  -2   4  926.21   19.06
   4  -2   4  921.90   18.93
   4  -2   4  937.24   19.11
   4  -2   4  906.78   18.72
   5  -2   4 1358.35   26.27
   5  -2   4 1395.32   26.41
   5  -2   4 1335.90   28.70
   6  -2   4 1228.81   26.44
   6  -2   4 1272.00   26.77
   6  -2   4 1218.14   28.90
   7  -2   4  225.50   12.54
   7  -2   4  217.38   11.11
   7  -2   4  219.59   11.20
   8  -2   4    1.96    3.44
   8  -2   4   -1.04    2.56
   7   1  -4   68.81    7.73
  -7  -1   4   96.61    6.61
  -7  -1   4   79.22    8.83
   6   1  -4  746.40   19.71
  -6  -1   4  727.36   17.21
  -6  -1   4  736.50   17.33
  -6  -1   4  729.63   21.14
   5   1  -4  235.91   10.11
  -5  -1   4  229.10    8.35
  -5  -1   4  241.29   10.97
  -5  -1   4  226.99    8.26
  -5  -1   4  240.92   10.97
   4   1  -4  200.52    8.27
  -4  -1   4  200.11    6.88
  -4  -1   4  181.84    8.71
  -4  -1   4  200.80    7.28
  -4  -1   4  209.76    7.05
  -4  -1   4  198.53    9.11
   3   1  -4  189.11    7.27
  -3  -1   4  197.15    5.92
  -3  -1   4  201.72    8.15
  -3  -1   4  192.15    8.02
  -3  -1   4  195.34    5.85
   2   1  -4 1433.58   22.58
  -2  -1   4 1442.92   19.25
  -2  -1   4 1424.34   24.12
  -2  -1   4 1398.61   19.14
  -2  -1   4 1433.13   23.86
  -2  -1   4 1469.41   24.17
  -1  -1   4 2881.89   38.86
  -1  -1   4 2860.97   39.03
  -1  -1   4 2873.71   39.01
   0  -1   4   19.64    2.01
   0  -1   4   24.56    2.34
   0  -1   4   21.22    2.07
  -1   1  -4  103.54    2.76
   1  -1   4   94.12    3.47
   1  -1   4  106.88    3.63
   1  -1   4  100.43    3.67
   2  -1   4 3641.91   46.55
   2  -1   4 3672.20   46.40
   2  -1   4 3649.11   46.32
   3  -1   4 1318.12   21.35
   3  -1   4 1327.90   24.18
   3  -1   4 1336.72   21.29
   3  -1   4 1339.89   21.45
   4  -1   4   40.12    3.87
   4  -1   4   60.04    5.77
   4  -1   4   43.54    3.98
   4  -1   4   42.38    4.06
   5  -1   4  294.87   10.30
   5  -1   4  296.72   11.94
   5  -1   4  320.02   10.64
   5  -1   4  329.10   10.79
   5  -1   4  308.11   10.45
   6  -1   4  131.43    6.83
   6  -1   4  145.16    9.23
   6  -1   4  138.68    7.94
   6  -1   4  135.43    7.85
   7  -1   4  731.20   20.28
   7  -1   4  695.59   20.08
   7  -1   4  720.88   22.31
   8  -1   4   19.37    5.43
   8  -1   4   12.03    4.10
   8  -1   4   10.23    3.84
   7   0  -4    4.23    3.07
  -7   0   4    1.91    3.04
  -7   0   4    2.05    2.07
   6   0  -4  142.00    8.07
  -6   0   4  143.90    6.99
  -6   0   4  153.30    7.26
  -6   0   4  132.63    9.17
   5   0  -4 1969.24   34.53
   5   0  -4 1975.02   33.38
  -5   0   4 1936.00   36.11
  -5   0   4 1997.81   31.02
  -5   0   4 1990.96   36.19
  -5   0   4 2017.54   31.10
   4   0  -4 2307.49   36.06
   4   0  -4 2227.55   34.54
  -4   0   4 2328.72   32.98
  -4   0   4 2302.87   32.63
  -4   0   4 2282.64   37.93
  -4   0   4 2243.49   37.71
  -4   0   4 2274.60   32.54
   3   0  -4  670.47   14.07
  -3   0   4  660.03   11.40
  -3   0   4  646.06   15.17
  -3   0   4  682.02   14.20
  -3   0   4  675.68   15.14
  -3   0   4  676.51   11.49
  -3   0   4  672.54   15.42
   2   0  -4 4531.30   57.07
  -2   0   4 4503.09   59.06
  -2   0   4 4541.59   58.80
  -2   0   4 4528.05   60.06
  -2   0   4 4533.71   59.09
  -1   0   4 1097.82   17.29
  -1   0   4 1140.45   17.29
  -1   0   4 1124.39   17.51
  -1   0   4 1152.53   20.79
   0   0   4 1602.80   20.92
   0   0   4 1594.17   20.84
   0   0   4 1609.09   20.51
   0   0   4 1594.71   20.42
   1   0   4  195.43    3.49
   1   0   4  198.98    3.54
   2   0   4 1637.28   21.61
   2   0   4 1574.51   27.33
   2   0   4 1623.80   21.11
   2   0   4 1644.32   21.23
   2   0   4 1690.29   25.42
   3   0   4 1557.78   27.01
   3   0   4 1573.51   26.33
   3   0   4 1585.88   23.00
   3   0   4 1567.46   23.05
   3   0   4 1574.70   22.96
   4   0   4 1493.09   26.14
   4   0   4 1469.89   27.26
   4   0   4 1490.08   24.39
   4   0   4 1478.48   24.25
   4   0   4 1505.63   24.21
   5   0   4 3058.35   45.15
   5   0   4 3073.78   45.41
   5   0   4 3014.49   48.68
   5   0   4 3075.58   45.31
   5   0   4 3089.85   45.42
   6   0   4  153.49    9.28
   6   0   4  150.13    8.03
   6   0   4  169.85    8.47
   6   0   4  149.15    7.05
   7   0   4  191.70   10.05
   7   0   4  198.37   10.18
   7   0   4  196.53   11.26
   8   0   4 2025.45   43.61
   8   0   4 2108.56   41.21
   8   0   4 2092.59   41.17
   7  -1  -4   83.85    7.98
  -7   1   4   73.06    5.59
  -7   1   4   72.16    8.22
   6  -1  -4  884.69   20.46
  -6   1   4  851.46   18.14
  -6   1   4  839.69   23.33
  -6   1   4  837.88   18.03
  -6   1   4  857.30   22.92
   5  -1  -4  102.00    5.97
   5  -1  -4   97.30    6.42
  -5   1   4   99.14    5.14
  -5   1   4   89.10    4.93
  -5   1   4   97.91    6.94
  -5   1   4  103.14    7.29
   4  -1  -4  206.22    7.28
   4  -1  -4  198.97    7.89
  -4   1   4  210.37    8.98
  -4   1   4  211.29    8.93
  -4   1   4  202.24    6.24
  -4   1   4  199.95    6.24
   3  -1  -4  100.01    4.19
   3  -1  -4   89.65    4.60
  -3   1   4   95.10    3.13
  -3   1   4  109.59    5.78
  -3   1   4   91.72    5.18
  -3   1   4   89.00    4.78
  -3   1   4   97.94    5.53
  -3   1   4   97.74    3.16
   2  -1  -4 5756.29   68.95
  -2   1   4 5813.02   73.18
  -2   1   4 5867.36   72.97
  -2   1   4 5720.87   73.01
  -2   1   4 5894.40   74.76
  -1   1   4  591.72   10.45
  -1   1   4  565.20   13.29
  -1   1   4  572.91   10.23
  -1   1   4  572.99   10.12
   0   1   4 1032.90   14.80
   0   1   4 1019.29   19.51
   1   1   4    1.95    1.65
   1   1   4    0.52    0.93
   1   1   4    0.47    0.87
   2   1   4 1200.40   15.40
   2   1   4 1212.03   19.61
   2   1   4 1189.50   22.20
   3   1   4  836.25   13.72
   3   1   4  824.57   17.52
   3   1   4  841.98   17.02
   3   1   4  821.75   13.59
   3   1   4  849.67   13.95
   4   1   4 1278.66   23.54
   4   1   4 1255.93   21.26
   4   1   4 1271.82   21.24
   4   1   4 1273.68   21.30
   4   1   4 1251.22   24.39
   5   1   4   68.92    4.95
   5   1   4   61.69    4.81
   5   1   4   58.53    4.65
   5   1   4   62.37    6.23
   5   1   4   64.10    4.73
   6   1   4  170.01    9.70
   6   1   4  174.70    8.56
   6   1   4  167.11    8.40
   7   1   4   16.67    4.48
   7   1   4   28.29    4.81
   7   1   4   22.78    4.24
   8   1   4  445.51   16.87
   8   1   4  465.99   17.27
   8   1   4  508.03   19.62
   7  -2  -4    9.30    3.31
  -7   2   4    6.62    2.26
  -7   2   4    4.05    2.19
  -7   2   4    2.54    3.13
   6  -2  -4   53.46    5.89
  -6   2   4   55.88    4.37
  -6   2   4   41.56    5.94
  -6   2   4   60.60    4.57
  -6   2   4   52.23    6.67
   5  -2  -4  310.91   10.22
  -5   2   4  307.76    8.78
  -5   2   4  302.09    8.78
  -5   2   4  312.05   12.21
  -5   2   4  307.55   12.18
   4  -2  -4 1969.36   31.82
   4  -2  -4 2001.65   30.26
  -4   2   4 2022.50   28.03
  -4   2   4 1926.98   33.82
  -4   2   4 1969.33   34.12
  -4   2   4 1976.41   27.94
   3  -2  -4 4541.30   56.00
   3  -2  -4 4409.65   57.87
  -3   2   4 4447.93   60.56
  -3   2   4 4421.66   60.20
  -3   2   4 4326.17   59.99
  -2   2   4  639.11   13.17
  -2   2   4  619.59   12.84
  -2   2   4  586.12   12.68
  -1   2   4  121.08    4.23
  -1   2   4  111.71    5.11
  -1   2   4  118.51    4.09
  -1   2   4  119.78    4.25
   0   2   4   14.27    1.24
   0   2   4   15.89    1.28
   0   2   4   14.02    0.94
   0   2   4   15.72    2.15
   0   2   4   12.80    2.58
   1   2   4 1235.42   19.66
   1   2   4 1211.81   22.91
   2   2   4  198.50    4.34
   2   2   4  196.22    4.32
   2   2   4  201.74    6.75
   2   2   4  200.73    3.95
   2   2   4  191.28    7.87
   2   2   4  196.06    3.93
   3   2   4  726.25   12.63
   3   2   4  718.05   12.58
   3   2   4  707.51   12.73
   3   2   4  712.85   15.53
   4   2   4  576.83   12.72
   4   2   4  561.48   12.68
   4   2   4  571.13   12.74
   4   2   4  577.08   15.12
   5   2   4 2529.73   42.53
   5   2   4 2504.81   38.82
   5   2   4 2519.03   39.10
   5   2   4 2540.33   39.03
   6   2   4 1023.69   22.76
   6   2   4 1066.29   22.93
   6   2   4 1063.18   25.96
   7   2   4   75.24    7.44
   7   2   4   79.49    8.40
   7   2   4   89.61    7.22
   8   2   4  662.12   20.84
   8   2   4  665.91   22.86
   8   2   4  691.73   21.18
  -7   3   4  375.89   16.13
  -7   3   4  347.86   11.19
  -7   3   4  347.27   11.23
  -6   3   4  275.95    9.18
  -6   3   4  299.40    9.47
  -6   3   4  327.79   17.74
  -6   3   4  265.17   12.59
  -5   3   4  164.49    9.03
  -5   3   4  154.33    8.82
  -5   3   4  137.10    5.72
  -5   3   4  153.62    6.05
   4  -3  -4  597.81   14.44
  -4   3   4  586.27   11.15
  -4   3   4  585.67   16.12
  -4   3   4  619.22   16.50
  -4   3   4  590.24   11.21
   3  -3  -4  111.36    5.38
  -3   3   4  122.61    7.27
  -3   3   4  135.73    6.70
  -3   3   4  134.55    6.51
  -3   3   4  124.45    6.47
  -2   3   4 1172.02   20.67
  -2   3   4 1167.35   20.78
  -2   3   4 1158.83   22.84
  -2   3   4 1171.69   20.44
  -1   3   4  330.46    8.20
  -1   3   4  344.55    8.15
  -1   3   4  332.61    8.22
  -1   3   4  343.34   10.20
   0   3   4  246.49    8.02
   0   3   4  220.05    5.65
   0   3   4  250.79    5.82
   0   3   4  242.08    5.72
   1   3   4  312.15    6.25
   1   3   4  317.17    9.22
   1   3   4  307.31    6.17
   1   3   4  279.11    6.20
   2   3   4  311.28    7.04
   2   3   4  292.69    6.81
   2   3   4  300.83    6.83
   2   3   4  307.44    6.82
   2   3   4  298.53    9.55
   3   3   4  754.90   17.55
   3   3   4  758.58   14.15
   3   3   4  751.84   14.12
   3   3   4  738.91   14.01
   4   3   4 5254.21   68.76
   4   3   4 5259.99   68.85
   4   3   4 5265.19   68.88
   5   3   4   -1.13    1.45
   5   3   4   -0.10    1.53
   5   3   4   -0.39    1.77
   6   3   4    4.17    3.06
   6   3   4    9.33    2.82
   6   3   4    7.38    2.78
   7   3   4   90.31    7.35
   7   3   4   91.43    8.21
   7   3   4  105.21   10.32
   8   3   4  353.60   15.24
   8   3   4  369.62   17.11
   8   3   4  369.36   15.51
  -7   4   4   40.50    4.57
  -7   4   4   43.93    4.70
  -6   4   4  264.37   14.48
  -6   4   4  260.37    8.75
  -6   4   4  276.59    8.97
  -5   4   4   18.08    3.97
  -5   4   4   17.95    2.57
  -5   4   4   19.71    2.71
  -5   4   4   15.75    4.50
  -4   4   4   62.75    7.08
  -4   4   4   77.87    3.57
  -4   4   4   65.74    3.37
  -4   4   4   71.96    6.74
   3  -4  -4 3725.93   51.87
  -3   4   4 3912.03   55.10
  -3   4   4 3848.93   55.25
  -3   4   4 3722.96   58.49
  -2   4   4 1152.98   24.24
  -2   4   4 1110.42   20.99
  -2   4   4 1149.57   21.39
  -1   4   4   21.95    3.61
  -1   4   4   20.77    2.57
  -1   4   4   20.83    2.71
  -1   4   4   23.20    2.80
   0   4   4   94.08    4.36
   0   4   4  103.67    4.57
   0   4   4   96.30    5.80
   1   4   4  702.05   16.52
   1   4   4  687.62   12.93
   1   4   4  670.66   12.93
   1   4   4  673.36   12.92
   2   4   4 2398.57   33.89
   2   4   4 2434.63   33.87
   2   4   4 2366.79   38.63
   2   4   4 2338.33   33.63
   3   4   4  136.55    5.86
   3   4   4  131.81    5.77
   3   4   4  134.46    5.90
   3   4   4  141.53    7.79
   4   4   4  803.81   17.36
   4   4   4  776.17   17.17
   4   4   4  803.07   17.28
   4   4   4  776.10   20.54
   5   4   4   98.73    6.44
   5   4   4  105.82    6.61
   6   4   4  440.08   14.65
   6   4   4  405.11   14.19
   7   4   4  526.58   17.48
   7   4   4  485.48   18.75
   7   4   4  498.74   17.23
   8   4   4  256.27   14.75
   8   4   4  232.21   12.91
   8   4   4  265.71   13.53
  -6   5   4   92.20    5.20
  -6   5   4   87.73   10.54
  -6   5   4   97.99    5.28
  -5   5   4 1223.28   31.50
  -5   5   4 1256.90   28.82
  -5   5   4 1231.96   28.41
  -5   5   4 1200.14   20.32
  -5   5   4 1221.18   20.45
  -4   5   4 1347.18   28.55
  -4   5   4 1342.26   20.05
  -4   5   4 1365.78   28.53
  -4   5   4 1355.50   31.69
  -4   5   4 1355.45   20.09
  -3   5   4  529.32   15.25
  -3   5   4  543.85   17.67
  -3   5   4  510.16   15.08
  -2   5   4   20.63    3.35
  -2   5   4   23.19    3.37
  -2   5   4   28.42    4.83
  -1   5   4  629.89   14.51
  -1   5   4  626.84   17.34
  -1   5   4  603.02   14.48
   0   5   4 2576.80   42.95
   0   5   4 2646.08   38.48
   0   5   4 2636.05   38.70
   1   5   4  361.17   10.07
   1   5   4  384.81   10.34
   1   5   4  341.68   12.39
   1   5   4  361.17   10.08
   2   5   4  605.28   13.93
   2   5   4  615.76   14.13
   2   5   4  624.98   17.49
   2   5   4  604.25   13.89
   3   5   4    1.66    2.60
   3   5   4    3.48    1.88
   3   5   4    2.13    1.56
   3   5   4    2.26    1.77
   4   5   4  303.97   11.14
   4   5   4  298.86   10.81
   4   5   4  306.00   13.32
   4   5   4  290.10   10.60
   5   5   4   34.22    4.55
   5   5   4   34.80    4.93
   6   5   4  324.50   13.29
   6   5   4  316.24   13.06
   7   5   4    6.65    3.63
   7   5   4   12.17    3.93
  -6   6   4  722.55   14.94
  -6   6   4  730.45   26.09
  -6   6   4  714.71   14.79
  -5   6   4   30.41    7.11
  -5   6   4   25.10    6.25
  -5   6   4   31.41    3.12
  -5   6   4   24.32    2.83
  -4   6   4  194.10   10.36
  -4   6   4  173.39   11.38
  -3   6   4  919.86   25.32
  -3   6   4  846.62   21.42
  -2   6   4    3.74    2.77
  -2   6   4    6.24    2.52
  -1   6   4  172.95    9.78
  -1   6   4  161.89    7.89
  -1   6   4  162.06    8.64
   0   6   4    4.33    1.98
   0   6   4    5.49    2.07
   0   6   4    3.54    1.97
   0   6   4    5.93    2.93
   1   6   4 1311.96   24.51
   1   6   4 1270.47   24.44
   1   6   4 1291.26   24.47
   1   6   4 1309.11   28.75
   2   6   4 1030.61   21.30
   2   6   4 1029.10   25.21
   2   6   4  989.76   20.95
   2   6   4 1000.32   20.95
   3   6   4  315.74   11.14
   3   6   4  311.77   13.57
   3   6   4  312.76   11.17
   4   6   4    0.82    1.87
   4   6   4   -0.13    1.80
   4   6   4    0.04    2.59
   5   6   4  393.42   14.24
   5   6   4  388.27   14.25
   6   6   4  546.06   18.16
   6   6   4  550.74   18.35
   7   6   4    3.66    3.29
   7   6   4    4.64    3.49
  -5   7   4  386.17   18.73
  -4   7   4  189.67   12.72
  -4   7   4  188.60   10.86
  -3   7   4  108.82    7.95
  -3   7   4  106.19   10.77
  -2   7   4  112.05    9.11
  -2   7   4  100.62    7.36
  -1   7   4 2890.86   51.69
  -1   7   4 2785.45   46.18
   0   7   4  873.38   24.46
   0   7   4  867.16   20.77
   0   7   4  892.82   21.04
   1   7   4  117.78    7.32
   1   7   4  118.16    7.31
   1   7   4  127.16    9.26
   2   7   4  626.95   20.56
   2   7   4  613.47   17.07
   2   7   4  633.44   17.36
   3   7   4  157.61    8.72
   3   7   4  165.49   10.95
   3   7   4  160.65    8.82
   4   7   4  337.05   13.25
   4   7   4  328.87   15.70
   4   7   4  308.80   12.86
   5   7   4   69.43    9.13
   5   7   4   88.73    8.46
   5   7   4   71.20    7.76
   6   7   4   61.43    7.50
   6   7   4   47.44    7.03
  -4   8   4  145.29   12.13
  -3   8   4  717.76   24.91
  -3   8   4  726.45   21.81
  -2   8   4  897.13   27.44
  -2   8   4  900.30   23.94
  -1   8   4   41.16    5.84
  -1   8   4   49.09    6.21
  -1   8   4   33.02    6.41
   0   8   4   16.05    5.01
   0   8   4   26.35    4.64
   0   8   4   26.01    4.59
   1   8   4    2.06    2.32
   1   8   4    2.07    2.54
   1   8   4   -0.25    2.74
   2   8   4   50.98    6.32
   2   8   4   49.02    7.45
   2   8   4   46.09    5.97
   3   8   4 1239.22   28.50
   3   8   4 1277.64   28.78
   3   8   4 1250.25   33.28
   4   8   4  276.99   13.12
   4   8   4  294.54   13.39
   4   8   4  243.35   14.80
   5   8   4   70.02    8.21
   5   8   4   92.61    9.12
   5   8   4   96.72   11.62
  -3   9   4    5.37    4.17
  -3   9   4   10.62    4.26
  -2   9   4   38.77    7.93
  -2   9   4   39.22    7.45
  -2   9   4   26.00    5.70
  -1   9   4 1598.72   34.67
  -1   9   4 1464.69   33.78
  -1   9   4 1509.70   38.65
   0   9   4  182.55   10.86
   0   9   4  152.65   11.98
   0   9   4  154.15   10.10
   1   9   4  524.99   18.27
   1   9   4  514.82   17.96
   1   9   4  472.65   20.46
   2   9   4 1042.21   31.38
   2   9   4 1088.95   27.59
   2   9   4 1097.92   27.78
   3   9   4   76.40    8.39
   3   9   4  108.87   12.53
   3   9   4  116.97   10.60
   1   8  -5    4.46    3.53
  -1  -8   5    4.53    2.43
  -1  -8   5    6.82    3.72
   0   8  -5   13.63    4.39
   0  -8   5    8.19    4.05
   0  -8   5    9.10    2.70
  -1   8  -5   92.97    9.94
   1  -8   5   88.22    6.12
   1  -8   5   97.34    7.27
   1  -8   5   97.52   10.10
  -2   8  -5  302.17   15.09
   2  -8   5  326.17   10.98
   2  -8   5  314.08   15.32
   2  -8   5  316.70   10.76
  -3  -7   5   44.31    5.36
  -3  -7   5   32.40    6.32
   2   7  -5  177.93   11.15
  -2  -7   5  192.45   11.68
  -2  -7   5  174.48    8.35
   1   7  -5  100.32    8.44
  -1  -7   5  105.76    6.46
  -1  -7   5  124.52    6.73
  -1  -7   5  119.89    9.32
   0   7  -5 1417.74   31.78
   0  -7   5 1458.29   26.14
   0  -7   5 1424.38   26.03
   0  -7   5 1440.86   32.59
   0  -7   5 1413.65   25.93
  -1   7  -5  634.77   19.74
   1  -7   5  620.39   19.93
   1  -7   5  583.75   14.68
   1  -7   5  618.95   14.78
  -2   7  -5  194.04   11.01
   2  -7   5  190.20    7.80
   2  -7   5  231.79   12.22
   2  -7   5  202.67    7.96
  -3   7  -5   59.37    7.60
   3  -7   5   45.94    4.50
   3  -7   5   55.62    4.89
   3  -7   5   61.84    7.84
  -4   7  -5   10.04    4.09
   4  -7   5   -0.33    1.72
   4  -7   5    3.79    3.23
   4  -7   5    2.55    1.82
  -5   7  -5   -0.92    3.02
   5  -7   5    2.55    1.71
   5  -7   5    0.10    1.64
   5  -7   5   -0.93    2.68
  -4  -6   5  117.14    7.12
  -4  -6   5  134.95   10.28
  -3  -6   5  184.21    8.30
  -3  -6   5  170.00   10.75
  -3  -6   5  164.48    7.89
   2   6  -5  371.39   14.40
  -2  -6   5  359.46   11.17
  -2  -6   5  348.69   11.01
  -2  -6   5  357.39   14.79
   1   6  -5   21.70    4.49
  -1  -6   5   18.80    3.12
  -1  -6   5   16.67    2.94
  -1  -6   5   21.05    4.68
  -1  -6   5   21.66    4.57
   0   6  -5  294.28   12.21
   0  -6   5  287.11    9.11
   0  -6   5  289.99   12.65
   0  -6   5  303.58   12.85
   0  -6   5  297.93    9.30
   0  -6   5  305.84    9.39
  -1   6  -5   -0.39    2.32
   1  -6   5    0.22    1.41
   1  -6   5    2.75    1.63
   1  -6   5    0.56    2.41
   1  -6   5    4.72    2.71
  -2   6  -5  631.89   18.40
   2  -6   5  609.19   18.78
   2  -6   5  637.00   18.99
   2  -6   5  600.88   13.22
   2  -6   5  613.43   13.44
  -3   6  -5   84.39    8.25
   3  -6   5   95.53    4.94
   3  -6   5  103.65    8.25
   3  -6   5   94.75    4.84
   3  -6   5   97.72    7.70
  -4   6  -5  285.26   13.26
   4  -6   5  318.90   13.89
   4  -6   5  303.34    8.56
   4  -6   5  289.95   13.25
   4  -6   5  303.72    8.64
  -5   6  -5   33.69    6.42
   5  -6   5   28.73    5.41
   5  -6   5   25.92    2.97
   5  -6   5   30.47    3.22
  -6   6  -5  104.01   10.75
   6  -6   5  107.31   10.66
   6  -6   5  111.84    4.80
  -5  -5   5   61.48    5.89
  -5  -5   5   62.95    8.06
  -4  -5   5  128.12    6.96
  -4  -5   5  132.38    9.68
  -4  -5   5  141.44    7.27
  -3  -5   5    7.60    3.26
  -3  -5   5    5.04    2.22
  -3  -5   5   12.40    2.69
   2   5  -5  385.79   13.65
  -2  -5   5  414.45   14.78
  -2  -5   5  406.15   14.78
  -2  -5   5  397.04   10.93
  -2  -5   5  409.14   11.09
   1   5  -5   12.90    3.38
  -1  -5   5   11.78    2.34
  -1  -5   5   21.59    4.41
  -1  -5   5   15.01    3.85
  -1  -5   5   11.77    2.33
   0   5  -5 1477.22   27.96
   0  -5   5 1489.25   29.65
   0  -5   5 1440.62   23.01
   0  -5   5 1452.47   23.12
   0  -5   5 1449.65   29.25
  -1   5  -5  750.92   18.34
   1  -5   5  771.91   19.68
   1  -5   5  740.11   19.40
   1  -5   5  762.10   14.08
   1  -5   5  768.73   14.15
   1  -5   5  781.47   14.17
  -2   5  -5 1694.65   31.12
   2  -5   5 1639.27   24.33
   2  -5   5 1634.85   31.75
   2  -5   5 1660.72   32.09
   2  -5   5 1676.74   24.47
  -3   5  -5  357.89   12.93
   3  -5   5  351.71    8.25
   3  -5   5  363.58   13.37
   3  -5   5  361.64    8.30
   3  -5   5  362.26   13.33
  -4   5  -5   84.85    7.10
   4  -5   5   75.25    7.47
   4  -5   5   77.28    3.70
   4  -5   5   82.84    7.60
   4  -5   5   84.03    3.74
  -5   5  -5   71.29    8.18
   5  -5   5   77.30    8.03
   5  -5   5   60.55    6.98
  -6   5  -5  424.61   17.36
   6  -5   5  413.39   16.27
  -7   5  -5   55.29    8.48
   7  -5   5   52.17    7.45
  -6  -4   5   -1.85    2.75
  -6  -4   5   -2.00    1.77
  -5  -4   5  454.77   17.56
  -5  -4   5  475.14   13.44
  -5  -4   5  463.92   13.30
  -4  -4   5    0.21    1.51
  -4  -4   5    2.01    1.82
  -4  -4   5    4.92    2.94
  -3  -4   5  341.55    9.79
  -3  -4   5  341.77    9.81
  -3  -4   5  339.33   13.35
  -3  -4   5  321.32   12.96
  -2  -4   5  551.20   16.41
  -2  -4   5  562.67   12.19
  -2  -4   5  572.83   12.31
  -2  -4   5  583.18   16.68
   1   4  -5  947.46   19.67
   1   4  -5  944.04   19.83
  -1  -4   5  936.40   21.29
  -1  -4   5  952.63   16.12
  -1  -4   5  960.59   16.20
  -1  -4   5  962.91   21.71
   0   4  -5  295.82    9.57
   0   4  -5  303.37    9.62
   0  -4   5  290.65    6.76
   0  -4   5  289.33   10.76
   0  -4   5  293.76    6.76
   0  -4   5  286.94   10.54
  -1   4  -5   39.17    4.28
  -1   4  -5   32.15    3.77
   1  -4   5   31.12    1.99
   1  -4   5   23.97    3.77
   1  -4   5   29.78    1.96
   1  -4   5   35.32    4.36
   1  -4   5   30.50    4.15
  -2   4  -5  200.31   11.36
  -2   4  -5  213.30    8.43
   2  -4   5  200.92    8.75
   2  -4   5  194.52    8.67
  -3   4  -5  200.34    8.83
   3  -4   5  205.66    9.15
   3  -4   5  208.70    9.24
  -4   4  -5 1100.88   24.35
   4  -4   5 1081.66   24.02
   4  -4   5 1119.51   24.32
  -5   4  -5   59.43    7.00
   5  -4   5   68.47    7.15
   5  -4   5   56.77    6.38
  -6   4  -5    3.83    2.97
   6  -4   5    4.98    3.22
   6  -4   5    5.41    3.06
  -7   4  -5   75.55    9.22
   7  -4   5   70.17    8.00
  -6  -3   5   83.21    5.88
  -6  -3   5   79.16    5.87
  -6  -3   5   81.78    9.05
  -5  -3   5    8.64    2.53
  -5  -3   5   18.67    4.66
  -5  -3   5   11.45    2.69
  -4  -3   5  433.95   15.54
  -4  -3   5  466.75   11.78
  -4  -3   5  481.80   11.89
  -4  -3   5  472.22   16.11
  -3  -3   5 2128.50   31.17
  -3  -3   5 2119.07   31.25
  -3  -3   5 2107.03   37.88
  -3  -3   5 2218.41   38.45
   2   3  -5  184.60    7.67
  -2  -3   5  177.45    8.50
  -2  -3   5  180.10    8.53
  -2  -3   5  183.68    5.50
  -2  -3   5  184.55    5.51
   1   3  -5  339.87    9.74
  -1  -3   5  339.54   10.89
  -1  -3   5  321.98   10.77
  -1  -3   5  328.40   10.53
   0   3  -5  654.31   13.31
   0   3  -5  644.15   13.45
   0  -3   5  650.76   15.21
   0  -3   5  683.33   15.30
   0  -3   5  645.45   15.24
  -1   3  -5  277.29    7.85
  -1   3  -5  269.11    7.84
   1  -3   5  281.31    9.33
   1  -3   5  282.17    9.08
   1  -3   5  269.07    9.05
  -2   3  -5 1323.68   22.32
  -2   3  -5 1298.10   21.73
   2  -3   5 1281.75   23.65
   2  -3   5 1334.76   23.82
   2  -3   5 1306.23   23.56
  -3   3  -5    2.81    2.43
  -3   3  -5    8.11    2.26
   3  -3   5    5.29    2.12
   3  -3   5    3.92    2.03
   3  -3   5    6.92    2.13
  -4   3  -5   -1.70    1.65
   4  -3   5    2.93    2.02
   4  -3   5   -0.27    1.80
  -5   3  -5  242.52   10.93
   5  -3   5  229.98   10.06
   5  -3   5  227.79   10.17
   6  -3   5 1942.40   37.14
   6  -3   5 2001.66   37.54
   7  -3   5  117.29    8.76
   7  -3   5  110.34    8.63
   8  -3   5   37.52    6.42
  -6  -2   5   71.98    5.17
  -6  -2   5   85.23    9.32
  -6  -2   5   70.65    5.25
  -5  -2   5 3715.57   59.75
  -5  -2   5 3626.74   51.03
  -5  -2   5 3674.09   59.62
  -5  -2   5 3693.83   51.13
  -4  -2   5  179.76    6.44
  -4  -2   5  178.63    9.44
  -4  -2   5  179.08    9.35
  -4  -2   5  181.88    6.42
   3   2  -5 1747.83   29.24
  -3  -2   5 1733.15   24.70
  -3  -2   5 1740.94   31.46
  -3  -2   5 1701.45   31.38
  -3  -2   5 1734.11   24.71
   2   2  -5  214.05    7.33
  -2  -2   5  192.91    8.08
  -2  -2   5  192.84    8.14
  -2  -2   5  191.90    7.94
   1   2  -5 1292.65   21.04
  -1  -2   5 1326.05   23.35
  -1  -2   5 1352.56   23.32
  -1  -2   5 1295.67   23.23
   0   2  -5  349.91    7.53
   0  -2   5  361.26    9.59
   0  -2   5  348.41    9.54
   0  -2   5  355.70    9.46
  -1   2  -5   64.60    3.00
   1  -2   5   69.07    4.01
   1  -2   5   71.23    3.96
   1  -2   5   69.11    4.01
  -2   2  -5  278.38    7.36
   2  -2   5  270.26    8.10
   2  -2   5  280.72    8.08
   2  -2   5  278.70    8.21
  -3   2  -5    1.67    1.44
   3  -2   5   -0.75    0.94
   3  -2   5    1.17    1.33
   3  -2   5    0.41    1.33
   4  -2   5 1159.87   22.32
   4  -2   5 1185.22   22.56
   4  -2   5 1181.31   22.38
   5  -2   5  809.41   19.01
   5  -2   5  801.71   19.01
   6  -2   5  233.32   10.56
   6  -2   5  267.62   11.22
   6  -2   5  231.74   11.92
   7  -2   5    8.57    3.18
   7  -2   5   11.21    3.57
   7  -2   5    7.59    3.70
   7  -2   5   11.38    3.40
   8  -2   5  554.85   19.35
   8  -2   5  556.70   21.53
   8  -2   5  552.05   19.39
   7   1  -5  875.91   24.92
  -7  -1   5  892.38   19.36
  -7  -1   5  908.47   26.56
  -7  -1   5  859.73   19.09
   6   1  -5  279.56   11.56
  -6  -1   5  252.09    8.92
  -6  -1   5  233.19   12.40
  -6  -1   5  261.59    8.93
  -5  -1   5 2927.36   49.27
  -5  -1   5 2897.02   40.86
  -5  -1   5 2837.61   40.60
  -5  -1   5 2881.53   49.15
  -4  -1   5  120.15    7.58
  -4  -1   5  125.10    4.77
  -4  -1   5  132.12    6.53
  -4  -1   5  117.45    7.47
  -4  -1   5  120.10    4.69
   3   1  -5  295.51    9.14
  -3  -1   5  306.67   10.49
  -3  -1   5  316.49   10.79
  -3  -1   5  287.36   10.44
   2   1  -5  283.73    7.68
  -2  -1   5  275.04    8.89
  -2  -1   5  258.40    8.84
  -2  -1   5  263.24    8.83
  -1  -1   5  854.24   16.22
  -1  -1   5  886.08   16.18
  -1  -1   5  884.20   16.42
   0  -1   5  400.40    8.89
   0  -1   5  409.34    8.94
   0  -1   5  409.10    9.12
   1  -1   5 1062.63   16.53
   1  -1   5 1070.92   16.62
   1  -1   5 1073.36   16.75
  -2   1  -5 1508.18   21.29
   2  -1   5 1522.85   22.20
   2  -1   5 1537.79   22.49
   2  -1   5 1513.38   22.28
   3  -1   5    3.45    1.23
   3  -1   5    1.14    1.08
   3  -1   5    2.68    1.34
   4  -1   5   23.95    3.15
   4  -1   5   30.59    3.53
   4  -1   5   27.16    3.41
   4  -1   5   26.51    4.22
   4  -1   5   25.80    3.17
   5  -1   5   56.38    5.20
   5  -1   5   65.08    5.12
   5  -1   5   75.66    5.96
   5  -1   5   51.92    6.08
   5  -1   5   57.99    5.31
   6  -1   5 1609.61   33.84
   6  -1   5 1592.98   30.49
   6  -1   5 1605.72   30.83
   6  -1   5 1575.78   30.07
   7  -1   5  484.34   18.30
   7  -1   5  498.16   15.96
   7  -1   5  481.44   16.20
   7  -1   5  496.44   16.61
   8  -1   5  997.20   28.76
   8  -1   5  946.31   25.80
   8  -1   5  940.50   25.56
  -7   0   5  186.23    7.85
  -7   0   5  196.59    8.12
  -7   0   5  176.29   11.62
   6   0  -5  409.70   13.56
  -6   0   5  413.16   11.08
  -6   0   5  413.14   16.02
  -6   0   5  418.33   11.15
   5   0  -5 1522.59   27.83
  -5   0   5 1590.61   32.08
  -5   0   5 1529.48   24.05
  -5   0   5 1564.01   31.87
  -5   0   5 1551.96   24.21
   4   0  -5   14.30    2.66
  -4   0   5   13.46    3.25
  -4   0   5   15.31    1.85
  -4   0   5   16.78    3.47
  -4   0   5   17.17    2.97
  -4   0   5   15.55    1.82
   3   0  -5    3.91    1.66
  -3   0   5    4.81    2.10
  -3   0   5    5.20    2.03
  -3   0   5    7.20    2.23
  -3   0   5    7.15    2.26
  -2   0   5 1230.41   21.60
  -2   0   5 1230.58   21.58
  -2   0   5 1225.09   21.29
  -2   0   5 1269.61   23.59
  -1   0   5 1489.35   27.33
  -1   0   5 1538.60   23.05
  -1   0   5 1553.78   23.15
  -1   0   5 1538.14   22.85
   0   0   5  156.50    4.33
   0   0   5  149.08    4.21
   0   0   5  148.71    7.33
   0   0   5  153.13    4.03
   0   0   5  151.85    4.07
   1   0   5  481.44    7.64
   1   0   5  488.38    7.61
   1   0   5  506.44   13.91
   2   0   5   18.18    1.38
   2   0   5    8.69    2.69
   2   0   5   21.70    1.62
   2   0   5   16.33    2.60
   2   0   5   20.06    1.74
   2   0   5   20.53    1.46
   3   0   5 1273.33   24.96
   3   0   5 1235.15   22.98
   3   0   5 1254.83   19.25
   3   0   5 1265.00   19.10
   3   0   5 1236.33   18.92
   4   0   5 2631.64   37.25
   4   0   5 2592.24   41.48
   4   0   5 2554.66   36.96
   4   0   5 2603.35   36.99
   4   0   5 2559.48   41.51
   5   0   5 1267.91   23.82
   5   0   5 1259.08   25.52
   5   0   5 1310.56   23.95
   5   0   5 1304.87   27.30
   5   0   5 1291.14   23.87
   6   0   5  771.59   18.91
   6   0   5  786.31   18.91
   6   0   5  791.50   19.21
   6   0   5  800.44   21.89
   7   0   5  631.58   18.51
   7   0   5  653.56   21.05
   7   0   5  616.57   18.35
   7   0   5  622.92   20.68
   8   0   5  912.59   24.66
   8   0   5  931.38   24.93
   8   0   5  893.07   27.33
  -7   1   5  122.49    9.68
  -7   1   5  114.44    5.95
  -7   1   5  105.55    5.77
   6  -1  -5  677.73   18.45
  -6   1   5  666.66   20.48
  -6   1   5  666.62   13.98
  -6   1   5  651.93   13.85
  -6   1   5  662.24   20.42
   5  -1  -5  700.34   15.90
  -5   1   5  670.92   19.09
  -5   1   5  686.21   12.73
  -5   1   5  660.91   19.02
  -5   1   5  687.36   12.67
   4  -1  -5   77.82    4.42
  -4   1   5   88.56    6.25
  -4   1   5   67.67    6.10
   3  -1  -5 2882.11   40.06
   3  -1  -5 2851.57   37.84
  -3   1   5 2899.04   42.80
  -3   1   5 2845.56   43.08
  -3   1   5 2926.19   43.32
  -3   1   5 2914.77   42.91
   2  -1  -5  364.35    6.41
  -2   1   5  367.84    9.70
  -2   1   5  390.38    9.95
  -2   1   5  373.19   11.22
  -2   1   5  370.84    9.60
  -1   1   5    2.69    1.22
  -1   1   5    2.92    1.86
  -1   1   5    3.56    1.19
  -1   1   5    4.94    1.30
  -1   1   5    3.32    1.08
   0   1   5 5147.16   70.33
   0   1   5 5181.39   61.82
   0   1   5 5180.09   60.53
   0   1   5 5140.58   60.45
   1   1   5  196.03    8.34
   1   1   5  194.69    4.49
   1   1   5  190.10    5.23
   2   1   5  822.83   15.15
   2   1   5  812.72   18.69
   3   1   5  785.93   12.57
   3   1   5  789.29   16.54
   3   1   5  780.73   12.59
   3   1   5  783.44   12.55
   3   1   5  790.68   18.55
   3   1   5  794.29   12.92
   4   1   5   65.55    5.38
   4   1   5   66.78    3.91
   4   1   5   69.93    4.11
   4   1   5   64.45    3.86
   4   1   5   73.70    5.40
   5   1   5  169.22    8.24
   5   1   5  161.16    7.15
   5   1   5  143.39    6.79
   5   1   5  158.93    6.97
   5   1   5  167.97    8.82
   6   1   5 1381.97   30.07
   6   1   5 1325.33   26.43
   6   1   5 1362.68   26.59
   6   1   5 1307.48   26.27
   7   1   5  454.91   17.42
   7   1   5  450.62   15.22
   7   1   5  445.02   15.25
   8   1   5  128.98   10.44
   8   1   5  123.17    9.08
   8   1   5  146.66    9.83
  -7   2   5  138.52    6.20
  -7   2   5  148.32    6.35
  -7   2   5  132.59   10.20
  -6   2   5  813.55   22.99
  -6   2   5  799.15   15.03
  -6   2   5  785.32   14.96
  -6   2   5  817.88   22.83
   5  -2  -5  546.73   13.43
  -5   2   5  575.65   17.30
  -5   2   5  560.81   10.22
  -5   2   5  523.02   16.77
  -5   2   5  539.57   10.04
   4  -2  -5 1837.78   27.49
  -4   2   5 1815.31   32.82
  -4   2   5 1776.16   32.47
  -3   2   5  725.71   16.48
  -3   2   5  714.06   16.46
  -3   2   5  700.22   16.07
  -2   2   5  615.17   13.21
  -2   2   5  610.77   13.06
  -2   2   5  597.86   13.19
  -2   2   5  625.21   14.51
  -1   2   5  120.04    5.20
  -1   2   5  104.25    4.06
  -1   2   5  109.74    6.35
  -1   2   5  106.49    4.44
  -1   2   5  109.33    4.04
  -1   2   5  111.62    4.28
   0   2   5  197.22    6.13
   0   2   5  208.88    4.29
   0   2   5  215.59    8.90
   0   2   5  204.16    4.18
   1   2   5   97.38    4.21
   1   2   5  104.80    6.33
   1   2   5  100.81    3.65
   2   2   5  125.50    7.03
   2   2   5  137.27    5.50
   2   2   5  141.40    5.50
   3   2   5 1083.31   16.19
   3   2   5 1061.87   16.39
   3   2   5 1073.24   22.97
   3   2   5 1073.68   16.46
   3   2   5 1082.31   20.57
   3   2   5 1095.11   16.30
   4   2   5 2418.13   34.88
   4   2   5 2488.34   39.98
   4   2   5 2466.98   35.21
   4   2   5 2452.33   40.54
   4   2   5 2470.68   35.27
   5   2   5 2319.31   35.46
   5   2   5 2228.05   35.28
   5   2   5 2218.90   35.11
   5   2   5 2192.61   39.10
   6   2   5  290.69   12.81
   6   2   5  297.90   11.11
   6   2   5  297.16   10.96
   7   2   5  651.08   18.57
   7   2   5  638.60   20.95
   7   2   5  603.40   18.02
   8   2   5   42.75    6.17
   8   2   5   40.17    6.09
   8   2   5   39.50    6.86
  -7   3   5   83.99    9.29
  -7   3   5   90.60    4.73
  -7   3   5   76.28    4.39
  -6   3   5  182.98    5.79
  -6   3   5  178.26   10.76
  -6   3   5  179.15   10.71
  -5   3   5    1.66    2.32
  -5   3   5    0.05    1.96
  -4   3   5   44.00    5.17
  -4   3   5   41.18    5.03
  -3   3   5 1983.28   32.87
  -3   3   5 1955.81   35.35
  -3   3   5 1940.52   32.83
  -3   3   5 1986.33   32.70
  -2   3   5 1894.02   29.81
  -2   3   5 1908.58   32.39
  -2   3   5 1854.32   29.26
  -2   3   5 1918.93   29.77
  -1   3   5  124.31    4.79
  -1   3   5  127.59    6.23
  -1   3   5  120.92    4.83
  -1   3   5  127.59    4.88
   0   3   5  357.21    7.41
   0   3   5  349.33    7.26
   0   3   5  355.13    7.14
   0   3   5  375.70   10.16
   0   3   5  356.12    7.15
   1   3   5  394.05   10.43
   1   3   5  386.39    6.35
   1   3   5  385.79    6.35
   1   3   5  375.30    6.86
   2   3   5   35.00    2.14
   2   3   5   32.31    1.91
   2   3   5   30.05    1.89
   2   3   5   33.78    3.86
   2   3   5   35.18    2.15
   3   3   5 1121.88   17.66
   3   3   5 1089.06   17.50
   3   3   5 1104.11   17.76
   3   3   5 1096.48   21.94
   3   3   5 1073.70   17.56
   4   3   5  250.27    7.98
   4   3   5  260.36   10.15
   4   3   5  257.90    8.12
   4   3   5  267.87    8.32
   5   3   5   27.08    4.57
   5   3   5   31.17    3.90
   5   3   5   26.56    3.70
   5   3   5   26.35    3.74
   6   3   5   14.11    3.31
   6   3   5   15.03    4.21
   6   3   5   13.97    3.26
   7   3   5  909.06   22.84
   7   3   5  901.47   25.90
   7   3   5  918.59   23.11
   8   3   5  562.99   19.03
   8   3   5  536.64   18.64
   8   3   5  528.80   20.71
  -6   4   5  321.94   16.05
  -5   4   5  491.31   18.60
  -5   4   5  489.90   16.72
  -5   4   5  512.08   16.93
  -4   4   5 4488.99   65.91
  -4   4   5 4438.45   69.56
  -4   4   5 4506.25   65.99
  -3   4   5   54.21    5.81
  -3   4   5   46.22    5.06
  -3   4   5   40.34    4.71
  -3   4   5   51.87    6.40
  -2   4   5   55.35    5.93
  -2   4   5   53.37    4.82
  -2   4   5   53.73    4.20
  -1   4   5 1122.94   19.70
  -1   4   5 1097.75   22.96
  -1   4   5 1126.88   19.53
   0   4   5   83.80    3.99
   0   4   5   75.61    5.18
   0   4   5   69.49    3.69
   0   4   5   80.50    3.92
   1   4   5  777.23   13.41
   1   4   5  757.75   13.37
   1   4   5  731.28   17.15
   1   4   5  747.47   13.32
   2   4   5   33.29    2.91
   2   4   5   21.59    2.41
   2   4   5   24.00    2.56
   2   4   5   24.96    2.64
   2   4   5   22.30    3.71
   3   4   5  312.06    8.71
   3   4   5  322.69    8.84
   3   4   5  316.40   11.64
   3   4   5  339.20    9.01
   4   4   5   52.07    4.16
   4   4   5   40.98    4.11
   4   4   5   45.12    4.36
   5   4   5 1126.69   23.12
   5   4   5 1119.30   22.76
   5   4   5 1079.65   22.50
   6   4   5 2113.98   37.77
   6   4   5 2141.44   37.82
   6   4   5 2106.94   41.34
   7   4   5  587.87   20.64
   7   4   5  594.79   18.60
   7   4   5  567.57   18.17
   8   4   5    8.13    4.22
   8   4   5   10.21    3.90
   8   4   5    9.47    3.92
  -6   5   5 1712.56   41.04
  -5   5   5  122.23    8.86
  -5   5   5  114.32    8.63
  -5   5   5  114.32    9.68
  -4   5   5 1820.40   34.86
  -4   5   5 1747.48   34.57
  -4   5   5 1827.69   38.53
  -3   5   5    6.34    2.49
  -3   5   5    3.86    3.06
  -3   5   5    7.91    2.62
  -2   5   5  272.75    9.97
  -2   5   5  256.11   11.56
  -2   5   5  272.88    9.88
  -2   5   5  268.56    9.71
  -1   5   5 1345.33   23.59
  -1   5   5 1276.94   23.48
  -1   5   5 1273.28   27.06
   0   5   5 1011.64   22.87
   0   5   5 1005.71   18.95
   0   5   5 1012.11   18.82
   1   5   5   34.74    3.54
   1   5   5   32.67    3.44
   1   5   5   31.84    4.79
   1   5   5   33.47    3.62
   2   5   5  124.89    5.71
   2   5   5  123.53    5.70
   2   5   5  127.07    7.77
   2   5   5  123.45    5.74
   3   5   5 1242.71   27.30
   3   5   5 1218.54   22.35
   3   5   5 1179.33   22.23
   3   5   5 1263.83   22.63
   4   5   5  206.31   10.94
   4   5   5  187.39    8.17
   4   5   5  214.23    8.77
   4   5   5  202.96    8.50
   5   5   5  310.31   11.59
   5   5   5  308.68   11.53
   6   5   5  103.64    7.58
   6   5   5  110.19    7.98
   7   5   5  519.70   19.90
   7   5   5  489.88   17.48
   7   5   5  527.94   17.88
  -5   6   5  210.90   13.42
  -5   6   5  232.10   12.23
  -4   6   5  648.29   19.52
  -4   6   5  651.45   22.03
  -3   6   5   44.76    7.08
  -3   6   5   51.46    5.97
  -2   6   5  250.82   10.38
  -2   6   5  256.34   12.44
  -1   6   5  539.52   14.75
  -1   6   5  539.26   15.54
  -1   6   5  543.63   17.69
   0   6   5  317.59   13.01
   0   6   5  322.21   10.57
   0   6   5  302.22   10.30
   1   6   5  973.26   20.21
   1   6   5  993.06   20.32
   1   6   5 1000.06   20.24
   1   6   5 1002.94   24.45
   2   6   5  196.78    8.27
   2   6   5  194.07    8.19
   2   6   5  212.87    8.56
   2   6   5  191.96   10.40
   3   6   5   79.94    8.29
   3   6   5   73.68    5.61
   3   6   5   59.84    5.75
   3   6   5   78.55    5.65
   4   6   5   22.23    4.98
   4   6   5   25.87    4.18
   4   6   5   24.92    4.18
   5   6   5  431.37   14.82
   5   6   5  460.13   15.15
   6   6   5  558.82   18.32
   6   6   5  580.03   18.40
   7   6   5  162.27   10.81
   7   6   5  172.06   10.97
  -5   7   5  514.42   21.89
  -4   7   5   26.62    5.17
  -4   7   5   18.64    5.69
  -3   7   5   15.54    5.13
  -3   7   5   23.67    4.62
  -2   7   5  422.07   14.53
  -2   7   5  408.12   16.91
  -1   7   5  807.36   23.65
  -1   7   5  812.32   20.24
   0   7   5    4.38    3.21
   0   7   5    4.45    2.57
   0   7   5    3.08    2.18
   1   7   5  746.50   22.41
   1   7   5  775.91   18.92
   1   7   5  747.34   18.64
   2   7   5   13.79    3.39
   2   7   5   14.49    4.58
   2   7   5   19.04    3.87
   3   7   5 1433.08   29.04
   3   7   5 1452.22   34.15
   3   7   5 1452.17   28.89
   4   7   5  234.61   11.01
   4   7   5  241.78   13.53
   4   7   5  251.51   11.25
   5   7   5  167.42    9.99
   5   7   5  178.31   10.25
   5   7   5  169.72   12.21
   6   7   5    3.43    2.90
   6   7   5    0.31    2.45
  -4   8   5  159.73   12.67
  -3   8   5  247.27   14.65
  -3   8   5  233.67   12.38
  -2   8   5  133.62    9.06
  -2   8   5  141.69   10.99
  -1   8   5   -1.28    1.99
  -1   8   5    0.53    2.37
  -1   8   5   -5.26    2.26
   0   8   5   73.67    7.33
   0   8   5   78.72    7.34
   0   8   5   93.97   10.23
   1   8   5  651.28   22.19
   1   8   5  607.06   18.14
   1   8   5  620.98   18.21
   2   8   5  469.86   15.87
   2   8   5  453.12   18.80
   2   8   5  488.19   16.08
   3   8   5  450.58   15.98
   3   8   5  474.51   16.10
   3   8   5  465.79   19.42
   4   8   5   32.88    6.73
   4   8   5   26.23    4.90
   4   8   5   27.14    5.11
   5   8   5   98.68   11.34
   5   8   5  113.80   10.37
   5   8   5  109.00    9.87
  -2   9   5  445.96   17.52
  -2   9   5  427.46   17.14
  -2   9   5  446.22   20.31
  -1   9   5  781.03   22.79
  -1   9   5  738.06   22.34
  -1   9   5  766.62   26.43
   0   9   5   51.63    6.75
   0   9   5   51.52    8.08
   0   9   5   60.05    7.21
   1   9   5  423.31   19.40
   1   9   5  431.22   16.31
   1   9   5  415.66   16.17
   2   9   5   16.18    4.56
   2   9   5   17.58    4.42
   2   9   5   13.10    5.28
   3   9   5   50.54    6.74
   3   9   5   50.06    6.84
   3   9   5   48.96    8.29
  -2  -7   6   53.29    7.94
  -2  -7   6   71.54    4.95
  -2  -7   6   72.78    4.96
   1   7  -6  555.24   26.60
  -1  -7   6  534.56   19.44
  -1  -7   6  526.60   12.82
  -1  -7   6  519.45   12.61
   0   7  -6  787.39   23.64
   0  -7   6  761.36   15.30
   0  -7   6  777.13   15.52
   0  -7   6  773.58   23.62
  -1   7  -6  223.97   11.48
   1  -7   6  213.61    6.80
   1  -7   6  193.51    6.64
   1  -7   6  191.64   11.46
  -2   7  -6   88.09    8.89
   2  -7   6   55.33    7.47
   2  -7   6   74.26    3.74
  -3   7  -6  158.55   10.28
   3  -7   6  158.91   10.95
  -4   7  -6   84.59    9.38
   4  -7   6   74.07    8.91
  -3  -6   6  124.40    9.87
  -3  -6   6  137.53    6.39
  -3  -6   6  133.40    6.33
  -2  -6   6   14.30    2.62
  -2  -6   6   14.06    4.37
  -2  -6   6   12.40    2.43
   1   6  -6  198.02   10.08
  -1  -6   6  201.53   12.23
  -1  -6   6  176.14   10.71
  -1  -6   6  193.54    6.57
  -1  -6   6  196.30    6.55
   0   6  -6   67.03    7.11
   0  -6   6   62.75    3.56
   0  -6   6   59.87    3.54
   0  -6   6   63.78    7.28
   0  -6   6   62.40    7.18
  -1   6  -6 1713.35   33.23
   1  -6   6 1761.14   35.86
   1  -6   6 1722.61   35.37
  -2   6  -6  521.43   16.49
   2  -6   6  533.33   17.73
   2  -6   6  535.07   17.95
  -3   6  -6  113.95    8.25
   3  -6   6  128.21    9.11
   3  -6   6  140.30    9.53
  -4   6  -6   54.59    7.15
   4  -6   6   73.30    8.00
   4  -6   6   60.60    7.62
  -5   6  -6   -1.37    2.97
   5  -6   6    3.21    3.39
  -4  -5   6  160.56    6.77
  -4  -5   6  152.66   10.71
  -4  -5   6  140.89    6.39
  -3  -5   6    1.54    1.50
  -3  -5   6    4.22    3.21
  -3  -5   6    2.82    1.54
  -2  -5   6  112.63    8.37
  -2  -5   6  127.41    8.85
  -2  -5   6  122.41    4.94
  -2  -5   6  121.49    4.93
   1   5  -6 1353.22   26.94
  -1  -5   6 1354.05   29.58
  -1  -5   6 1344.68   29.55
   0   5  -6 1589.93   28.89
   0  -5   6 1533.34   31.43
   0  -5   6 1555.36   31.66
  -1   5  -6  210.40    9.01
   1  -5   6  184.43    9.78
   1  -5   6  197.55    9.94
  -2   5  -6  188.09    8.85
   2  -5   6  202.75   10.14
   2  -5   6  191.17    9.85
  -3   5  -6   55.04    6.09
   3  -5   6   66.90    7.18
   3  -5   6   51.37    6.21
  -4   5  -6   80.88    7.87
   4  -5   6   80.30    7.83
   4  -5   6   83.76    8.18
  -5   5  -6  115.72    8.68
   5  -5   6  106.57    8.47
   5  -5   6   94.51    8.90
  -6   5  -6    9.79    4.16
   6  -5   6   11.22    3.82
   6  -5   6    8.18    3.78
  -5  -4   6  191.02   11.93
  -5  -4   6  190.03    7.30
  -5  -4   6  192.03    7.32
  -4  -4   6    1.69    1.40
  -4  -4   6    3.81    1.53
  -4  -4   6    1.45    2.94
  -3  -4   6  118.96    4.61
  -3  -4   6  104.89    8.01
  -3  -4   6  109.57    8.12
  -3  -4   6  104.27    4.38
  -2  -4   6  602.74   17.79
  -2  -4   6  581.20   17.58
  -1  -4   6  108.14    7.27
  -1  -4   6  109.30    7.36
   0   4  -6  560.47   13.57
   0  -4   6  560.19   15.99
   0  -4   6  573.43   15.97
  -1   4  -6   53.28    4.24
   1  -4   6   55.55    5.51
   1  -4   6   45.63    5.15
  -2   4  -6  242.04    8.74
   2  -4   6  239.30    9.89
   2  -4   6  228.43    9.85
  -3   4  -6 1417.69   26.62
   3  -4   6 1492.86   28.77
   3  -4   6 1428.14   28.33
  -4   4  -6  706.70   18.41
   4  -4   6  715.06   19.02
   4  -4   6  714.26   19.14
  -5   4  -6   -0.27    2.37
   5  -4   6    2.31    2.23
   5  -4   6   -1.54    2.00
  -6   4  -6  392.10   15.54
   6  -4   6  406.94   15.43
   6  -4   6  388.66   15.23
  -7   4  -6  265.05   13.90
   7  -4   6  244.17   13.14
   7  -4   6  260.00   13.32
  -5  -3   6    2.69    1.52
  -5  -3   6    1.44    2.73
  -5  -3   6    2.73    1.54
  -4  -3   6   75.48    3.75
  -4  -3   6   87.47    3.96
  -4  -3   6   96.74    8.85
  -4  -3   6  102.74    9.50
  -3  -3   6    5.23    2.63
  -3  -3   6    4.41    2.73
  -2  -3   6   80.25    6.36
  -2  -3   6   80.37    6.25
  -1  -3   6  382.04   12.38
  -1  -3   6  362.86   12.16
  -1  -3   6  427.57   17.40
   0   3  -6 2672.69   37.02
   0  -3   6 2645.48   41.37
   0  -3   6 2654.72   41.09
   0  -3   6 2715.63   41.20
  -1   3  -6 1812.60   26.66
   1  -3   6 1832.09   30.37
   1  -3   6 1809.54   30.64
   1  -3   6 1802.54   30.68
  -2   3  -6  589.70   12.48
   2  -3   6  560.44   14.35
   2  -3   6  579.82   14.34
   2  -3   6  566.17   14.49
  -3   3  -6  280.33    9.22
   3  -3   6  295.75   10.10
   3  -3   6  273.05   10.00
   3  -3   6  290.87   10.19
  -4   3  -6   59.70    5.85
   4  -3   6   65.05    6.06
   4  -3   6   63.44    6.14
  -5   3  -6  669.53   18.36
   5  -3   6  627.38   17.78
   5  -3   6  677.23   18.04
  -6   3  -6   35.69    5.69
   6  -3   6   30.07    4.94
   6  -3   6   29.34    5.11
   7  -3   6  444.67   16.66
   7  -3   6  405.87   15.94
  -6  -2   6  309.77    8.59
  -6  -2   6  323.49   15.20
  -6  -2   6  309.64    8.53
  -5  -2   6    1.53    2.71
  -5  -2   6    1.32    2.46
  -5  -2   6    3.73    1.41
  -4  -2   6   31.31    5.03
  -4  -2   6   24.81    4.44
  -3  -2   6 1007.01   22.89
  -3  -2   6  989.45   22.65
  -2  -2   6 1889.95   32.30
  -2  -2   6 1910.03   32.79
  -2  -2   6 1837.75   32.46
  -1  -2   6 3694.96   52.29
  -1  -2   6 3686.18   52.55
  -1  -2   6 3712.03   52.59
   0  -2   6  420.86   11.10
   0  -2   6  423.37   11.00
   0  -2   6  406.99   11.00
  -1   2  -6    8.81    1.28
   1  -2   6    9.51    2.07
   1  -2   6    6.51    1.92
   1  -2   6    9.08    1.97
  -2   2  -6 1368.04   20.55
   2  -2   6 1420.28   23.73
   2  -2   6 1418.11   23.44
   2  -2   6 1422.95   23.77
  -3   2  -6  976.65   17.75
   3  -2   6  960.45   18.77
   3  -2   6  923.78   18.64
   3  -2   6  988.53   18.79
  -4   2  -6   60.41    4.77
   4  -2   6   74.50    5.17
   4  -2   6   62.28    4.76
   4  -2   6   65.21    4.96
   5  -2   6    0.07    1.72
   5  -2   6    2.78    2.08
   6  -2   6    1.57    2.12
   6  -2   6    5.31    2.67
   7  -2   6   81.40    8.21
   7  -2   6   63.27    7.09
   7  -2   6   75.86    8.01
   8  -2   6  660.79   21.50
   8  -2   6  685.62   21.78
  -6  -1   6    5.63    3.65
  -6  -1   6    5.98    1.63
  -5  -1   6   -0.84    2.20
  -5  -1   6   -1.37    2.42
  -4  -1   6   75.03    7.35
  -4  -1   6   65.07    5.58
  -4  -1   6   78.94    7.43
  -3  -1   6 1326.13   26.70
  -3  -1   6 1301.34   26.03
  -3  -1   6 1280.37   26.00
  -2  -1   6   18.97    3.19
  -2  -1   6   20.37    3.12
  -2  -1   6   17.89    3.07
  -1  -1   6  236.72    7.85
  -1  -1   6  230.62    7.66
  -1  -1   6  215.52    7.64
   0  -1   6 2103.11   30.78
   0  -1   6 2151.47   30.88
   0  -1   6 2151.25   30.70
   1  -1   6 3327.11   42.92
   1  -1   6 3252.23   42.93
   1  -1   6 3282.95   43.53
   1  -1   6 3279.97   43.19
  -2   1  -6   55.38    2.29
   2  -1   6   56.27    3.19
   2  -1   6   51.91    3.20
   2  -1   6   51.47    3.24
   2  -1   6   51.02    3.20
   3  -1   6   14.00    2.22
   3  -1   6   13.21    2.06
   3  -1   6   13.29    2.14
   4  -1   6  106.38    5.45
   4  -1   6  107.52    5.53
   4  -1   6  114.96    5.75
   5  -1   6   18.59    3.18
   5  -1   6   22.02    3.54
   5  -1   6   16.10    3.96
   5  -1   6   18.10    3.33
   5  -1   6   22.78    4.52
   6  -1   6  278.31   11.16
   6  -1   6  269.36   10.97
   6  -1   6  288.30   13.25
   6  -1   6  294.82   12.31
   7  -1   6  174.16    9.61
   7  -1   6  170.77   11.19
   7  -1   6  185.33   10.15
   7  -1   6  175.68    9.82
   8  -1   6   11.94    4.06
   8  -1   6   13.29    4.14
   8  -1   6   12.45    4.89
  -6   0   6  785.84   23.29
  -5   0   6  269.41   12.36
  -5   0   6  285.37   12.70
   4   0  -6   47.81    3.88
  -4   0   6   50.83    5.87
  -4   0   6   53.03    5.49
  -4   0   6   37.25    5.03
  -3   0   6   22.94    3.65
  -3   0   6   16.65    3.11
  -3   0   6   13.47    2.81
  -3   0   6   16.99    3.47
  -2   0   6  878.07   17.90
  -2   0   6  892.07   17.71
  -2   0   6  899.41   17.96
  -2   0   6  855.77   20.20
  -1   0   6 1442.29   28.19
  -1   0   6 1480.51   22.89
  -1   0   6 1458.45   23.03
  -1   0   6 1420.39   22.89
   0   0   6   72.48    5.85
   0   0   6   68.10    3.22
   0   0   6   64.19    3.03
   0   0   6   65.02    3.09
   0   0   6   59.10    2.88
   1   0   6  633.76   10.24
   1   0   6  642.66   10.22
   1   0   6  638.79    9.67
   1   0   6  652.73   17.55
   1   0   6  629.02    9.61
   2   0   6 3017.93   36.75
   2   0   6 2889.84   47.64
   2   0   6 3023.30   37.39
   2   0   6 2967.14   36.77
   2   0   6 3015.37   37.47
   3   0   6  487.31   13.07
   3   0   6  474.96    9.63
   3   0   6  475.81    9.50
   3   0   6  487.46    9.89
   3   0   6  509.73   15.37
   4   0   6   17.12    2.45
   4   0   6   17.23    2.45
   4   0   6   11.27    3.23
   4   0   6   17.10    2.47
   4   0   6   13.82    2.38
   4   0   6   14.57    3.25
   5   0   6  418.61   14.38
   5   0   6  450.80   14.90
   5   0   6  425.71   11.91
   5   0   6  432.57   12.12
   5   0   6  410.70   11.65
   6   0   6    8.37    3.52
   6   0   6    3.44    2.29
   6   0   6    5.27    2.29
   6   0   6    0.67    2.27
   7   0   6   30.23    4.96
   7   0   6   23.64    4.52
   7   0   6   23.65    4.41
   7   0   6   31.23    5.98
   8   0   6  400.12   15.89
   8   0   6  429.18   18.53
   8   0   6  416.96   16.01
  -6   1   6  115.27    9.18
  -6   1   6  112.99    8.90
  -5   1   6  322.10   13.22
  -5   1   6  299.85   12.87
  -4   1   6   55.97    6.09
  -4   1   6   53.78    6.00
   3  -1  -6 1888.53   25.99
  -3   1   6 1939.40   32.60
  -3   1   6 1947.78   32.21
  -3   1   6 1937.35   32.61
  -3   1   6 1892.33   33.32
  -2   1   6  240.41    8.11
  -2   1   6  228.45    7.99
  -2   1   6  251.19    9.98
  -2   1   6  245.73    7.98
  -1   1   6  147.53    7.86
  -1   1   6  143.38    5.09
  -1   1   6  131.61    4.83
  -1   1   6  131.73    4.79
  -1   1   6  134.99    4.99
  -1   1   6  147.20    5.08
   0   1   6  797.62   12.09
   0   1   6  809.16   12.02
   0   1   6  816.61   11.39
   0   1   6  805.04   11.87
   0   1   6  776.65   19.30
   0   1   6  816.60   11.46
   1   1   6 1787.68   32.85
   2   1   6 1304.24   27.03
   2   1   6 1343.82   21.91
   3   1   6  611.88   17.16
   3   1   6  554.20   13.81
   3   1   6  591.81    9.76
   3   1   6  589.39    9.78
   3   1   6  603.00   10.29
   4   1   6    4.32    1.51
   4   1   6    2.42    1.98
   4   1   6    5.99    2.62
   4   1   6    2.77    1.28
   4   1   6    2.09    1.39
   4   1   6    5.48    1.54
   5   1   6  570.29   13.85
   5   1   6  569.83   16.91
   5   1   6  577.34   13.85
   5   1   6  588.05   17.14
   5   1   6  570.67   13.77
   6   1   6 1030.04   22.08
   6   1   6 1033.70   22.22
   6   1   6 1026.59   25.71
   6   1   6 1047.48   24.27
   7   1   6  267.52   11.54
   7   1   6  262.16   11.43
   7   1   6  255.34   13.16
   8   1   6  226.09   11.72
   8   1   6  222.32   11.76
   8   1   6  210.46   13.01
  -6   2   6   -1.83    2.35
  -6   2   6    0.23    2.74
  -5   2   6   32.56    5.25
  -5   2   6   27.66    4.72
  -4   2   6 1483.48   29.45
  -4   2   6 1495.13   29.41
  -3   2   6   52.65    4.96
  -3   2   6   42.02    4.69
  -3   2   6   39.70    4.47
  -2   2   6  583.71   15.99
  -2   2   6  566.68   13.09
  -2   2   6  540.70   12.56
  -2   2   6  541.04   13.66
  -2   2   6  544.40   12.87
  -1   2   6 1410.57   22.96
  -1   2   6 1381.26   21.15
  -1   2   6 1399.48   21.19
  -1   2   6 1380.55   20.98
  -1   2   6 1359.99   27.54
  -1   2   6 1407.06   21.39
   0   2   6   18.33    2.33
   0   2   6   19.41    1.55
   0   2   6   19.58    1.51
   0   2   6   25.44    4.17
   1   2   6   26.34    2.59
   1   2   6   24.80    2.02
   1   2   6   24.35    4.17
   2   2   6   27.11    4.61
   2   2   6   27.59    3.00
   2   2   6   24.53    2.95
   3   2   6  112.33    3.36
   3   2   6  106.28    7.30
   3   2   6  107.97    3.63
   3   2   6  110.25    3.33
   3   2   6  102.44    5.60
   3   2   6  111.42    3.62
   4   2   6 2172.14   39.32
   4   2   6 2233.09   36.91
   4   2   6 2187.25   31.37
   4   2   6 2209.88   31.42
   4   2   6 2222.46   31.75
   4   2   6 2157.28   31.45
   5   2   6 1914.28   35.85
   5   2   6 1954.98   31.25
   5   2   6 1960.13   31.29
   5   2   6 1962.68   31.27
   6   2   6    7.94    2.53
   6   2   6   21.73    4.64
   6   2   6   14.97    3.36
   7   2   6    1.48    3.11
   7   2   6    3.50    2.41
   7   2   6    0.87    2.17
   8   2   6  212.09   13.15
   8   2   6  221.90   11.59
   8   2   6  240.07   12.20
  -6   3   6    3.26    2.83
  -6   3   6   -0.81    2.36
  -5   3   6  127.04    8.62
  -5   3   6  134.77    8.91
  -4   3   6  170.40    8.94
  -4   3   6  171.26    9.77
  -4   3   6  168.84    8.88
  -3   3   6 1899.69   32.45
  -3   3   6 1858.93   31.92
  -3   3   6 1878.70   32.42
  -3   3   6 1867.04   34.32
  -2   3   6 1425.13   24.30
  -2   3   6 1387.07   26.45
  -2   3   6 1372.04   24.19
  -2   3   6 1470.45   24.70
  -1   3   6  453.53   11.21
  -1   3   6  451.57   10.14
  -1   3   6  436.14   10.10
  -1   3   6  440.63    9.90
  -1   3   6  450.69   12.18
   0   3   6  229.50    5.58
   0   3   6  227.28    5.31
   0   3   6  228.70    7.82
   0   3   6  227.72    5.37
   0   3   6  225.36    5.64
   1   3   6  599.32   13.68
   1   3   6  620.24   11.30
   1   3   6  635.56    9.28
   2   3   6    9.64    2.35
   2   3   6    0.98    1.22
   2   3   6    1.22    0.74
   3   3   6  645.81   15.62
   3   3   6  618.58   11.34
   3   3   6  633.88   15.04
   3   3   6  641.27   11.48
   3   3   6  630.08   11.17
   3   3   6  624.67   11.17
   4   3   6  446.64   13.61
   4   3   6  418.22   10.50
   4   3   6  455.52   10.70
   4   3   6  449.45   10.65
   5   3   6  440.64   12.22
   5   3   6  445.62   15.05
   5   3   6  423.50   11.97
   5   3   6  437.33   12.22
   6   3   6 1219.02   25.10
   6   3   6 1205.73   25.08
   6   3   6 1262.36   29.22
   7   3   6  597.78   17.86
   7   3   6  628.52   18.32
   7   3   6  615.14   20.94
   8   3   6    8.09    3.56
   8   3   6   13.97    4.34
   8   3   6   10.69    4.97
  -6   4   6  145.77   11.24
  -6   4   6  155.47   14.46
  -6   4   6  140.20   10.26
  -5   4   6  381.61   14.85
  -5   4   6  378.25   14.82
  -5   4   6  354.51   15.82
  -4   4   6  960.04   25.00
  -4   4   6  946.88   22.73
  -4   4   6  940.85   22.81
  -3   4   6   23.59    4.67
  -3   4   6   19.43    3.51
  -3   4   6   19.33    3.54
  -2   4   6 1946.04   31.70
  -2   4   6 1975.41   32.19
  -2   4   6 1968.38   35.40
  -2   4   6 1955.25   31.90
  -1   4   6 1181.37   20.61
  -1   4   6 1155.75   23.74
  -1   4   6 1209.20   20.62
   0   4   6 2880.20   43.88
   0   4   6 2842.43   38.50
   0   4   6 2850.26   38.45
   0   4   6 2881.44   38.52
   1   4   6  549.84   14.41
   1   4   6  536.63   10.23
   1   4   6  557.32   10.55
   1   4   6  534.90   10.19
   2   4   6  521.03   10.42
   2   4   6  518.30   10.12
   2   4   6  504.71   14.17
   2   4   6  533.34   10.34
   2   4   6  537.10   10.45
   3   4   6  762.50   14.51
   3   4   6  765.45   14.41
   3   4   6  808.65   19.25
   3   4   6  753.00   15.31
   3   4   6  772.83   14.45
   4   4   6  759.28   15.97
   4   4   6  765.49   16.05
   4   4   6  769.96   16.11
   5   4   6  994.01   20.77
   5   4   6  985.77   20.57
   5   4   6  925.45   20.17
   5   4   6 1009.70   24.24
   6   4   6  161.03   10.08
   6   4   6  165.48    8.70
   6   4   6  165.74    8.69
   7   4   6  459.43   18.46
   7   4   6  488.78   16.39
   7   4   6  461.33   15.99
  -5   5   6  307.26   13.96
  -5   5   6  292.09   15.05
  -4   5   6   50.76    6.56
  -4   5   6   44.51    6.93
  -3   5   6  469.31   16.75
  -3   5   6  474.71   14.81
  -2   5   6 4966.61   68.55
  -2   5   6 4953.42   68.06
  -2   5   6 4886.11   73.25
  -1   5   6   54.76    4.42
  -1   5   6   66.99    4.62
  -1   5   6   54.43    6.39
  -1   5   6   58.34    4.50
   0   5   6   -0.16    1.19
   0   5   6    1.05    2.12
   0   5   6    1.22    1.39
   1   5   6  110.16    7.15
   1   5   6  102.59    4.97
   1   5   6  111.15    5.16
   2   5   6  184.80    6.66
   2   5   6  164.36    8.82
   2   5   6  168.19    6.41
   2   5   6  166.89    6.35
   3   5   6   67.59    7.08
   3   5   6   57.30    4.22
   3   5   6   53.84    4.16
   3   5   6   66.29    4.56
   4   5   6  210.02    8.37
   4   5   6  214.87   10.93
   4   5   6  203.49    8.32
   4   5   6  201.04    8.22
   5   5   6   51.87    5.55
   5   5   6   43.13    5.22
   6   5   6  141.89    8.62
   6   5   6  128.18    9.41
   6   5   6  135.82    8.30
   7   5   6  921.44   24.08
   7   5   6  846.22   26.08
   7   5   6  885.73   23.67
  -5   6   6  635.84   21.25
  -5   6   6  700.05   22.09
  -5   6   6  682.40   24.19
  -4   6   6 1749.52   36.26
  -4   6   6 1742.31   39.75
  -4   6   6 1838.28   36.78
  -3   6   6   19.05    4.94
  -3   6   6   19.60    4.01
  -2   6   6  240.45   12.16
  -2   6   6  225.54    9.98
  -1   6   6  189.91    8.49
  -1   6   6  188.59   10.43
  -1   6   6  196.83   10.17
   0   6   6  314.35   10.23
   0   6   6  291.92   10.04
   0   6   6  279.04   12.42
   1   6   6   74.36    5.11
   1   6   6   61.23    4.74
   1   6   6   74.59    5.17
   1   6   6   78.58    7.94
   2   6   6  134.50    8.85
   2   6   6  164.70    7.31
   2   6   6  164.96    7.30
   2   6   6  149.39    7.10
   3   6   6  602.06   15.33
   3   6   6  598.94   15.40
   3   6   6  643.27   19.87
   3   6   6  627.13   15.59
   4   6   6  392.03   12.83
   4   6   6  401.65   16.17
   4   6   6  402.86   13.00
   5   6   6  609.26   17.59
   5   6   6  644.19   17.81
   6   6   6  441.18   15.53
   6   6   6  391.65   14.96
  -4   7   6   19.53    4.61
  -4   7   6   27.11    6.62
  -3   7   6   26.25    4.83
  -3   7   6   19.62    5.45
  -2   7   6 2211.30   40.08
  -2   7   6 2208.89   44.86
  -1   7   6    1.63    2.00
  -1   7   6    7.02    3.57
   0   7   6  278.95   13.41
   0   7   6  258.09   10.43
   0   7   6  276.73   10.79
   1   7   6   18.86    3.54
   1   7   6   29.33    5.93
   1   7   6   21.41    3.87
   2   7   6  520.24   15.10
   2   7   6  555.59   15.56
   2   7   6  526.45   18.85
   3   7   6   10.78    3.97
   3   7   6    5.27    2.52
   3   7   6    5.09    2.52
   4   7   6  301.00   12.19
   4   7   6  295.28   12.05
   4   7   6  283.03   14.52
   5   7   6  221.67   13.78
   5   7   6  203.54   10.64
   5   7   6  202.54   10.67
   6   7   6  292.12   13.68
   6   7   6  326.97   14.22
  -3   8   6  800.79   23.47
  -3   8   6  804.42   26.89
  -2   8   6  189.90   12.68
  -2   8   6  188.73   10.74
  -1   8   6  494.31   16.50
  -1   8   6  497.64   19.83
   0   8   6  431.06   15.17
   0   8   6  462.01   15.47
   0   8   6  460.44   18.63
   1   8   6   43.68    5.61
   1   8   6   53.03    7.90
   1   8   6   34.56    5.06
   2   8   6  157.03   11.20
   2   8   6  142.50    8.68
   2   8   6  136.53    8.59
   3   8   6  131.54    8.47
   3   8   6  132.00   10.67
   3   8   6  141.78    8.88
   4   8   6   15.10    4.09
   4   8   6   16.55    4.07
   4   8   6   16.61    5.35
  -1   9   6   26.61    5.47
  -1   9   6   23.44    5.02
  -1   9   6   29.64    6.71
   0   9   6  276.01   13.03
   0   9   6  256.33   15.19
   0   9   6  277.45   13.04
   1   9   6   -1.61    2.38
   1   9   6    0.89    2.60
   1   9   6    0.42    3.85
   2   9   6  172.30   10.46
   2   9   6  190.16   13.18
   2   9   6  197.37   11.11
   1  -7   7    5.05    3.88
   2  -7   7  418.76   17.49
  -2  -6   7    3.41    3.38
  -1  -6   7   -3.82    2.20
   0  -6   7  414.92   16.25
   0  -6   7  377.44   15.65
   1  -6   7  326.11   14.13
   1  -6   7  314.81   14.15
   2  -6   7   87.16    8.74
   2  -6   7   91.59    8.78
   3  -6   7  535.41   18.77
   3  -6   7  546.94   18.89
   4  -6   7  119.95   10.58
   4  -6   7  133.96    9.72
  -3  -5   7  630.51   21.18
  -2  -5   7   55.04    7.21
  -2  -5   7   67.91    7.94
  -1  -5   7  707.38   20.85
  -1  -5   7  718.60   20.97
   0  -5   7   -1.66    2.03
   0  -5   7    0.88    2.01
   1  -5   7  141.45    8.94
   1  -5   7  149.50    9.12
   2  -5   7   30.31    5.07
   2  -5   7   14.24    3.90
   3  -5   7  565.19   17.77
   3  -5   7  585.07   18.42
   4  -5   7  673.60   20.41
   4  -5   7  680.78   20.30
   5  -5   7   56.05    7.14
   5  -5   7   38.95    6.13
   6  -5   7  205.33   12.14
   6  -5   7  206.60   12.15
  -4  -4   7   20.45    4.84
  -3  -4   7  317.14   14.01
  -3  -4   7  277.29   13.21
  -2  -4   7  140.19    9.05
  -2  -4   7  140.54    9.01
  -1  -4   7  795.61   20.98
  -1  -4   7  810.01   21.10
   0  -4   7  336.79   12.59
   0  -4   7  370.69   13.17
   1  -4   7  456.00   14.38
   1  -4   7  435.41   14.21
   2  -4   7 1064.65   23.83
   2  -4   7 1093.90   24.21
   3  -4   7  863.18   21.28
   3  -4   7  859.10   21.11
  -4   4  -7    0.52    2.64
   4  -4   7    1.54    2.21
   4  -4   7   -1.16    2.15
  -5   4  -7   28.83    5.05
   5  -4   7   21.98    4.52
   5  -4   7   19.77    4.46
  -6   4  -7  192.01   10.97
   6  -4   7  194.06   11.19
   6  -4   7  204.06   11.34
  -5  -3   7  202.04   12.36
  -4  -3   7  337.20   14.59
  -4  -3   7  313.48   14.21
  -3  -3   7  285.45   12.58
  -3  -3   7  271.69   12.29
  -2  -3   7  392.08   13.90
  -2  -3   7  414.96   14.23
  -1  -3   7 2373.55   39.97
  -1  -3   7 2369.05   40.04
   0  -3   7   40.68    4.83
   0  -3   7   53.75    5.45
   1  -3   7    2.12    1.89
   1  -3   7    5.97    2.17
   1  -3   7    2.94    2.00
   2  -3   7  458.46   13.17
   2  -3   7  465.89   13.32
   2  -3   7  452.18   12.98
  -3   3  -7    6.27    2.50
   3  -3   7    5.44    2.40
   3  -3   7    3.07    2.12
  -4   3  -7  311.98   10.43
   4  -3   7  299.23   11.22
   4  -3   7  316.22   11.63
  -5   3  -7  106.95    7.20
   5  -3   7  104.56    7.28
   5  -3   7  114.18    7.64
  -6   3  -7   12.54    3.91
   6  -3   7    8.16    3.25
   6  -3   7   16.22    3.92
  -7   3  -7   26.37    5.70
   7  -3   7   23.14    4.91
   7  -3   7   28.82    6.22
   7  -3   7   22.39    4.88
  -5  -2   7   76.08    8.67
  -5  -2   7   62.94    7.63
  -4  -2   7    2.04    2.70
  -4  -2   7    2.40    2.48
  -4  -2   7    4.81    2.95
  -3  -2   7  634.42   18.19
  -3  -2   7  637.96   18.29
  -2  -2   7  106.03    6.88
  -2  -2   7   96.15    6.56
  -1  -2   7 3415.04   50.47
  -1  -2   7 3429.26   50.36
  -1  -2   7 3420.25   50.55
   0  -2   7  191.71    7.84
   0  -2   7  199.68    7.80
   0  -2   7  198.86    7.94
   1  -2   7  144.16    6.36
   1  -2   7  140.28    6.44
   1  -2   7  143.40    6.58
   2  -2   7 3619.95   50.74
   2  -2   7 3677.86   50.57
   2  -2   7 3671.03   50.94
  -3   2  -7  743.19   14.06
   3  -2   7  725.40   16.23
   3  -2   7  766.15   16.55
   3  -2   7  774.94   16.49
  -4   2  -7  149.46    6.74
   4  -2   7  148.47    7.18
   4  -2   7  154.44    7.29
   4  -2   7  141.42    7.19
   5  -2   7  227.52    9.76
   5  -2   7  225.75    9.69
   6  -2   7  158.65   10.39
   6  -2   7  149.93    8.73
   6  -2   7  153.38    8.74
   7  -2   7  452.43   16.47
   7  -2   7  462.21   16.41
   7  -2   7  473.76   17.64
  -5  -1   7  306.68   14.07
  -5  -1   7  326.97   14.27
  -4  -1   7  168.08    9.66
  -4  -1   7  193.44    9.68
  -4  -1   7  170.93    9.69
  -3  -1   7 1687.02   32.02
  -3  -1   7 1727.43   33.57
  -3  -1   7 1688.80   32.25
  -2  -1   7   72.29    7.32
  -2  -1   7   89.03    5.73
  -2  -1   7   69.75    5.51
  -2  -1   7   75.75    5.50
  -1  -1   7    0.36    1.21
  -1  -1   7    1.99    1.43
  -1  -1   7    1.34    1.54
   0  -1   7 2308.12   34.10
   0  -1   7 2326.19   33.85
   0  -1   7 2335.36   34.19
   1  -1   7 2485.20   34.97
   1  -1   7 2482.39   34.88
   1  -1   7 2515.17   34.89
   1  -1   7 2508.89   35.16
   2  -1   7  458.32   10.16
   2  -1   7  462.15   10.33
   2  -1   7  441.61   10.12
   2  -1   7  451.54   10.30
  -3   1  -7   78.28    3.65
   3  -1   7   78.34    4.39
   3  -1   7   82.37    4.49
   3  -1   7   71.20    4.20
   4  -1   7  205.03   11.06
   4  -1   7  193.15    7.40
   4  -1   7  193.39    7.53
   4  -1   7  182.46    7.30
   5  -1   7   64.92    5.81
   5  -1   7   82.39    5.53
   5  -1   7   54.55    5.25
   5  -1   7   76.49    8.06
   5  -1   7   74.09    5.30
   6  -1   7   72.26    6.66
   6  -1   7   73.11    8.18
   6  -1   7   62.36    7.77
   6  -1   7   85.27    6.47
   7  -1   7    5.31    2.84
   7  -1   7    4.82    2.95
   7  -1   7    6.47    3.51
   7  -1   7    7.70    3.71
   8  -1   7  910.35   28.30
   8  -1   7  880.69   24.55
   8  -1   7  880.49   24.55
  -6   0   7  569.57   20.12
  -5   0   7    4.75    2.91
  -5   0   7    8.37    3.63
  -4   0   7   17.67    3.91
  -4   0   7    9.78    3.19
  -4   0   7    9.36    3.14
  -3   0   7   42.77    5.08
  -3   0   7   37.72    5.39
  -3   0   7   39.35    4.88
  -2   0   7  326.16   10.45
  -2   0   7  331.16   10.57
  -2   0   7  337.21   12.86
  -2   0   7  338.76   10.53
  -1   0   7   28.58    3.23
  -1   0   7   25.49    2.15
  -1   0   7   22.42    4.32
  -1   0   7   28.78    3.16
  -1   0   7   23.96    2.90
   0   0   7  459.93    9.68
   0   0   7  466.93    9.89
   0   0   7  463.06    9.86
   0   0   7  460.53   15.42
   0   0   7  484.58   10.10
   1   0   7 1128.51   16.72
   1   0   7 1080.59   25.52
   1   0   7 1116.30   16.21
   1   0   7 1097.09   16.56
   1   0   7 1089.73   16.07
   2   0   7 1728.35   23.23
   2   0   7 1733.69   23.85
   2   0   7 1767.83   34.65
   2   0   7 1722.05   23.26
   2   0   7 1742.32   23.80
   3   0   7  368.03    8.52
   3   0   7  364.00   14.16
   3   0   7  391.63    8.45
   3   0   7  375.46    8.39
   4   0   7 1301.29   26.61
   4   0   7 1324.63   29.31
   4   0   7 1317.15   21.91
   4   0   7 1300.73   21.97
   4   0   7 1324.19   22.05
   5   0   7   12.30    2.59
   5   0   7   21.76    4.59
   5   0   7   21.50    4.28
   5   0   7   14.84    2.74
   5   0   7   20.88    3.37
   6   0   7  562.28   15.81
   6   0   7  576.87   15.83
   6   0   7  593.32   18.88
   6   0   7  559.17   18.70
   7   0   7  166.92    9.45
   7   0   7  171.42   10.16
   7   0   7  168.66   11.30
   7   0   7  169.98    9.34
   8   0   7   97.77   10.60
   8   0   7   91.55    8.91
   8   0   7   89.69    8.61
  -6   1   7   34.29    6.33
  -6   1   7   26.96    5.48
  -5   1   7   -1.22    2.40
  -5   1   7   -3.48    1.75
  -4   1   7 1052.45   23.45
  -4   1   7 1026.17   24.00
  -4   1   7 1027.32   24.14
  -3   1   7   39.28    4.74
  -3   1   7   37.06    5.31
  -3   1   7   44.30    5.22
  -2   1   7  491.29   12.79
  -2   1   7  500.70   12.59
  -2   1   7  516.72   12.30
  -2   1   7  515.03   13.00
  -2   1   7  502.81   15.74
  -1   1   7  488.52    9.93
  -1   1   7  484.85   10.72
  -1   1   7  478.53   10.78
  -1   1   7  488.21   10.79
  -1   1   7  488.02   15.79
  -1   1   7  508.39   11.12
   0   1   7 1237.21   17.57
   0   1   7 1223.20   27.23
   0   1   7 1231.47   18.07
   0   1   7 1236.89   18.18
   0   1   7 1252.32   17.70
   1   1   7  144.72    8.72
   2   1   7 1522.46   31.65
   3   1   7  827.47   12.88
   3   1   7  786.04   11.99
   3   1   7  801.07   17.46
   3   1   7  813.29   21.81
   3   1   7  816.10   12.17
   4   1   7 1740.29   26.14
   4   1   7 1719.25   25.70
   4   1   7 1701.68   25.70
   4   1   7 1734.48   25.76
   4   1   7 1707.61   34.93
   4   1   7 1771.57   31.77
   5   1   7  883.85   23.19
   5   1   7  898.20   22.16
   5   1   7  865.22   17.78
   5   1   7  872.15   17.79
   5   1   7  873.31   17.84
   6   1   7    1.15    2.45
   6   1   7    0.63    1.88
   6   1   7   -1.38    2.23
   6   1   7    2.13    1.90
   7   1   7    0.82    2.26
   7   1   7    3.12    2.34
   7   1   7    6.37    3.38
   7   1   7    0.74    2.47
   8   1   7   30.38    5.26
   8   1   7   26.84    6.24
   8   1   7   38.86    6.00
  -6   2   7  227.24   12.65
  -6   2   7  250.16   13.25
  -5   2   7  410.94   15.51
  -5   2   7  433.63   15.90
  -4   2   7   89.19    6.80
  -4   2   7   86.10    6.89
  -3   2   7  580.10   15.40
  -3   2   7  573.83   15.50
  -3   2   7  581.27   15.89
  -2   2   7  567.73   13.69
  -2   2   7  553.33   17.08
  -2   2   7  587.93   14.26
  -2   2   7  571.97   13.78
  -2   2   7  567.30   13.45
  -1   2   7  318.34    8.24
  -1   2   7  301.19    8.09
  -1   2   7  307.59    8.76
  -1   2   7  335.75   12.90
  -1   2   7  311.91    8.29
  -1   2   7  317.41    8.11
   0   2   7   25.71    4.72
   0   2   7   20.00    1.81
   0   2   7   20.70    2.36
   0   2   7   21.19    1.52
   0   2   7   22.64    1.65
   0   2   7   24.69    1.94
   1   2   7   27.12    4.91
   1   2   7   29.40    2.65
   2   2   7  130.58    8.54
   2   2   7  129.72    5.49
   3   2   7 1542.30   32.60
   3   2   7 1574.62   27.09
   3   2   7 1579.75   20.83
   3   2   7 1567.17   20.92
   4   2   7  725.40   13.30
   4   2   7  687.37   17.47
   4   2   7  703.85   13.41
   4   2   7  692.34   13.14
   4   2   7  701.41   20.40
   5   2   7   10.82    3.91
   5   2   7   14.03    2.54
   5   2   7    9.99    2.36
   5   2   7    9.63    2.39
   5   2   7    8.84    3.31
   6   2   7  158.44    9.96
   6   2   7  176.08    8.23
   6   2   7  135.85    7.47
   7   2   7   48.67    5.81
   7   2   7   45.19    7.01
   7   2   7   40.64    5.40
   8   2   7  116.53   11.91
   8   2   7  111.39    8.58
   8   2   7  127.85    9.11
  -6   3   7  250.59   14.09
  -6   3   7  262.40   13.83
  -6   3   7  259.01   13.55
  -5   3   7   78.20    7.88
  -5   3   7   80.42    8.83
  -5   3   7   72.85    7.70
  -4   3   7  570.05   17.11
  -4   3   7  592.75   18.47
  -4   3   7  592.45   17.57
  -3   3   7  661.58   16.81
  -3   3   7  621.99   17.50
  -3   3   7  633.54   16.47
  -2   3   7    0.37    1.40
  -2   3   7    2.33    1.84
  -2   3   7   -0.04    1.26
  -2   3   7    0.80    1.78
  -1   3   7  109.23    5.08
  -1   3   7  118.61    6.06
  -1   3   7  101.98    4.77
  -1   3   7  104.76    4.76
   0   3   7  425.22    8.24
   0   3   7  432.30    8.17
   0   3   7  429.85    8.48
   0   3   7  432.43   11.13
   0   3   7  441.47    8.76
   1   3   7  119.97    4.12
   1   3   7  125.11    5.67
   1   3   7  118.33    8.33
   2   3   7   45.84    4.45
   2   3   7   48.68    3.58
   2   3   7   33.99    5.32
   3   3   7  196.64    4.84
   3   3   7  201.30    5.27
   3   3   7  197.37    4.88
   3   3   7  219.43    8.31
   3   3   7  206.28    5.33
   4   3   7  318.78    8.39
   4   3   7  335.47   11.69
   4   3   7  315.39    8.36
   4   3   7  308.66    8.39
   5   3   7  559.82   17.25
   5   3   7  584.36   14.03
   5   3   7  595.20   14.12
   5   3   7  587.21   14.08
   6   3   7  597.50   15.99
   6   3   7  621.32   19.60
   6   3   7  608.29   16.06
   7   3   7  487.13   18.64
   7   3   7  479.99   15.73
   7   3   7  513.05   16.18
  -5   4   7  325.56   15.20
  -5   4   7  347.61   14.65
  -5   4   7  337.01   14.33
  -4   4   7  189.45    9.95
  -4   4   7  192.28   10.13
  -4   4   7  204.64   11.24
  -3   4   7  170.32    9.50
  -3   4   7  169.26    8.51
  -3   4   7  159.89    8.38
  -2   4   7  242.62    8.91
  -2   4   7  239.35    9.17
  -2   4   7  248.78    9.21
  -2   4   7  230.23   10.25
  -1   4   7  954.18   18.04
  -1   4   7  948.14   17.88
  -1   4   7  935.90   18.11
  -1   4   7  969.23   21.12
   0   4   7  265.39    7.25
   0   4   7  276.11    7.27
   0   4   7  279.13    8.86
   0   4   7  257.82    9.62
   1   4   7  444.52    9.58
   1   4   7  440.09    8.64
   1   4   7  432.22    8.60
   1   4   7  460.20   13.00
   1   4   7  433.22    8.87
   2   4   7  303.21    6.98
   2   4   7  298.02    6.72
   2   4   7  307.25    9.13
   2   4   7  301.75    7.03
   2   4   7  292.74   10.49
   2   4   7  297.21    6.67
   3   4   7 3144.09   46.69
   3   4   7 3122.61   41.60
   3   4   7 3110.29   41.37
   3   4   7 3121.90   48.62
   4   4   7  261.76   10.69
   4   4   7  267.37    8.35
   4   4   7  258.28    8.27
   4   4   7  263.37    8.29
   5   4   7  181.56    7.83
   5   4   7  154.95    7.36
   5   4   7  167.73    7.54
   5   4   7  168.24    9.40
   6   4   7  127.48    7.51
   6   4   7  115.11    7.25
   6   4   7  113.81    8.82
   7   4   7  137.60    8.85
   7   4   7  151.03    8.97
   7   4   7  138.60   10.46
  -5   5   7  376.11   15.82
  -5   5   7  379.79   17.25
  -4   5   7  921.54   23.75
  -4   5   7  911.55   25.90
  -3   5   7  538.39   16.23
  -3   5   7  553.83   18.50
  -2   5   7   24.96    4.96
  -2   5   7   33.25    4.39
  -1   5   7  232.25   10.58
  -1   5   7  251.33    8.85
  -1   5   7  238.78    8.74
   0   5   7 1937.53   35.04
   0   5   7 1878.23   29.72
   0   5   7 1932.88   29.69
   1   5   7 1197.28   20.11
   1   5   7 1155.60   24.95
   1   5   7 1172.17   19.84
   2   5   7 1010.49   17.85
   2   5   7 1004.90   18.05
   2   5   7 1022.36   17.98
   2   5   7  993.95   23.01
   3   5   7  141.55    6.06
   3   5   7  155.73    6.29
   3   5   7  143.70    8.63
   3   5   7  144.73    6.21
   4   5   7  365.21   10.92
   4   5   7  343.48   10.59
   4   5   7  355.03   14.09
   4   5   7  358.21   10.80
   5   5   7  451.06   13.46
   5   5   7  431.22   13.20
   5   5   7  459.85   16.08
   6   5   7  736.49   22.62
   6   5   7  734.34   19.51
   6   5   7  780.13   20.08
   7   5   7  861.76   22.90
   7   5   7  854.25   22.84
   7   5   7  832.75   26.02
  -4   6   7    5.87    3.34
  -4   6   7    6.25    3.22
  -4   6   7   10.12    4.69
  -3   6   7    1.30    3.20
  -3   6   7    3.72    2.40
  -3   6   7    5.99    2.98
  -2   6   7   23.89    4.10
  -2   6   7   15.71    4.42
  -1   6   7  674.74   16.91
  -1   6   7  660.63   19.93
   0   6   7  212.49   10.97
   0   6   7  238.45    9.00
   0   6   7  241.88    8.95
   1   6   7  264.38    9.21
   1   6   7  296.99   12.63
   1   6   7  270.75    9.30
   1   6   7  281.34    9.39
   2   6   7   43.85    4.43
   2   6   7   45.79    6.31
   2   6   7   38.62    4.20
   2   6   7   36.28    4.15
   3   6   7 1897.17   31.61
   3   6   7 1813.07   37.51
   3   6   7 1907.96   31.61
   3   6   7 1913.30   31.66
   4   6   7   60.29    5.79
   4   6   7   66.48    5.40
   4   6   7   73.05    8.25
   5   6   7  818.92   20.29
   5   6   7  826.72   20.29
   6   6   7   42.73    5.75
   6   6   7   58.65    8.02
   6   6   7   42.88    5.87
  -3   7   7 1410.40   31.42
  -3   7   7 1372.70   34.65
  -2   7   7  779.72   24.24
  -2   7   7  766.25   20.70
  -1   7   7    8.04    2.85
  -1   7   7    1.38    2.94
   0   7   7  265.06   13.11
   0   7   7  226.53    9.83
   1   7   7  244.86    9.93
   1   7   7  213.05   11.89
   1   7   7  255.85   10.12
   2   7   7   -0.28    1.71
   2   7   7   -3.46    2.28
   2   7   7    0.40    1.76
   3   7   7   94.11    9.57
   3   7   7   94.09    6.60
   3   7   7   99.99    6.79
   4   7   7  248.49   10.76
   4   7   7  231.57   13.22
   4   7   7  249.12   10.91
   5   7   7 1670.19   33.39
   5   7   7 1693.00   33.78
  -2   8   7  211.37   11.45
  -2   8   7  212.46   13.42
  -1   8   7   65.85    8.50
  -1   8   7   74.21    7.56
   0   8   7   40.62    5.50
   0   8   7   44.35    5.82
   0   8   7   41.02    7.14
   1   8   7   19.75    4.05
   1   8   7   25.16    4.32
   1   8   7   14.92    4.72
   2   8   7  141.63   10.78
   2   8   7  152.62    8.93
   2   8   7  166.38    9.05
   3   8   7  427.23   15.06
   3   8   7  432.47   14.98
   3   8   7  431.44   18.54
   4   8   7  628.26   19.14
   4   8   7  613.13   18.73
   4   8   7  646.52   23.54
   1   9   7  179.80   13.15
   1   9   7  201.01   11.03
   1   9   7  198.95   10.87
   0  -6   8  338.86   15.31
   0  -6   8  371.28   16.14
   1  -6   8  101.76    9.66
   1  -6   8  104.30    9.81
   2  -6   8    7.95    3.73
   2  -6   8    6.07    3.47
   3  -6   8  165.25   11.01
   3  -6   8  192.41   11.69
  -2  -5   8  231.68   12.75
  -2  -5   8  234.94   12.79
  -1  -5   8 1032.39   26.78
  -1  -5   8  987.81   26.31
   0  -5   8  130.85    9.21
   0  -5   8  125.48    9.08
   1  -5   8   11.56    3.71
   1  -5   8   12.54    3.88
   2  -5   8  290.72   12.91
   2  -5   8  324.81   13.64
   3  -5   8  332.18   14.10
   3  -5   8  312.95   13.62
   4  -5   8    5.75    3.08
   4  -5   8    1.65    2.69
   5  -5   8   65.17    8.01
   5  -5   8   59.63    7.63
  -3  -4   8  980.52   26.92
  -3  -4   8 1022.00   27.20
  -2  -4   8   -0.18    2.72
  -2  -4   8    0.85    2.53
  -1  -4   8  549.52   17.70
  -1  -4   8  566.66   17.89
   0  -4   8  101.46    7.52
   0  -4   8  116.08    7.88
   1  -4   8  691.13   19.03
   1  -4   8  669.65   18.65
   2  -4   8   27.13    4.47
   2  -4   8   33.03    4.99
   3  -4   8   83.83    6.69
   3  -4   8   80.80    7.48
   4  -4   8  111.79    7.96
   4  -4   8  111.42    7.89
   5  -4   8  565.96   18.38
   5  -4   8  562.63   18.28
   6  -4   8  217.07   11.83
   6  -4   8  189.41   11.11
  -4  -3   8   30.43    5.78
  -4  -3   8   31.59    5.89
  -3  -3   8   53.62    7.02
  -3  -3   8   41.59    6.29
  -2  -3   8  237.95   11.22
  -2  -3   8  229.96   11.12
  -1  -3   8  726.68   19.20
  -1  -3   8  703.27   19.00
   0  -3   8    0.03    1.86
   0  -3   8   -0.24    1.83
   1  -3   8  166.83    8.29
   1  -3   8  181.46    8.62
   2  -3   8  785.97   19.05
   2  -3   8  805.28   18.98
   3  -3   8 1739.05   31.71
   3  -3   8 1714.36   31.50
   4  -3   8    3.14    2.16
   4  -3   8    4.47    2.46
   5  -3   8   83.22    7.82
   5  -3   8   63.25    6.75
   6  -3   8   53.07    6.52
   6  -3   8   49.97    6.41
  -4  -2   8   48.81    6.79
  -4  -2   8   38.97    6.12
  -4  -2   8   43.29    6.54
  -3  -2   8  185.71   10.17
  -3  -2   8  194.08   11.30
  -3  -2   8  182.77   10.10
  -2  -2   8   32.41    5.02
  -2  -2   8   32.84    4.74
  -1  -2   8   23.60    3.74
  -1  -2   8   25.25    4.03
   0  -2   8  312.89   10.61
   0  -2   8  328.71   10.73
   0  -2   8  310.14   10.63
   1  -2   8 9897.47  123.62
   1  -2   8 9999.00  123.80
   1  -2   8 9876.72  123.28
   2  -2   8   -1.70    1.59
   2  -2   8   -1.17    1.47
   2  -2   8   -1.48    1.73
   3  -2   8  147.36    7.15
   3  -2   8  148.83    7.05
   3  -2   8  170.42    7.56
   4  -2   8  135.89    7.24
   4  -2   8  123.54    7.37
   4  -2   8  133.09    7.16
   5  -2   8    0.91    1.90
   5  -2   8    0.75    2.08
   6  -2   8   16.48    4.86
   6  -2   8   10.60    3.33
   6  -2   8   16.28    3.89
   7  -2   8  130.03    9.12
   7  -2   8  141.42   10.66
   7  -2   8  145.05    9.51
  -5  -1   8  320.17   14.81
  -5  -1   8  297.95   14.49
  -4  -1   8   20.57    4.56
  -4  -1   8   13.14    3.91
  -4  -1   8   17.02    4.23
  -3  -1   8  125.03    8.08
  -3  -1   8  112.67    7.66
  -3  -1   8  134.31    8.99
  -2  -1   8   -0.65    1.75
  -2  -1   8    3.31    2.22
  -2  -1   8   -2.73    2.22
  -1  -1   8 2329.15   36.77
  -1  -1   8 2322.81   43.96
  -1  -1   8 2222.70   36.51
  -1  -1   8 2320.93   36.41
   0  -1   8  824.03   17.07
   0  -1   8  839.63   16.91
   0  -1   8  854.14   17.26
   1  -1   8  388.03    9.90
   1  -1   8  377.72   10.09
   1  -1   8  379.48   10.00
   2  -1   8  342.29    9.20
   2  -1   8  343.10    9.28
   2  -1   8  337.62    9.04
   3  -1   8  430.41   10.91
   3  -1   8  402.87   16.38
   3  -1   8  426.07   10.91
   3  -1   8  420.22   10.65
   4  -1   8   12.88    2.54
   4  -1   8    8.84    4.11
   4  -1   8   13.15    2.65
   4  -1   8   19.03    2.98
   5  -1   8  267.25   10.97
   5  -1   8  261.03   13.39
   5  -1   8  246.13    9.61
   5  -1   8  264.69   11.02
   5  -1   8  250.81    9.76
   6  -1   8   20.49    5.06
   6  -1   8    9.88    3.18
   6  -1   8    9.62    3.02
   7  -1   8   53.45    6.51
   7  -1   8   44.39    5.90
   7  -1   8   54.53    7.78
  -5   0   8   96.70    9.47
  -5   0   8  107.38   10.18
  -4   0   8  132.30    8.73
  -4   0   8  140.38    9.02
  -4   0   8  132.79    8.65
  -3   0   8   26.81    4.45
  -3   0   8   22.77    3.87
  -3   0   8   29.56    5.25
  -2   0   8    5.75    2.39
  -2   0   8    2.78    1.91
  -2   0   8    8.71    3.44
  -2   0   8    3.01    1.88
  -1   0   8  341.14   10.11
  -1   0   8  350.47   10.21
  -1   0   8  332.47    9.89
  -1   0   8  355.41   14.28
   0   0   8  409.78    9.75
   0   0   8  388.79   15.35
   0   0   8  404.63    9.87
   0   0   8  393.05    9.66
   1   0   8 3927.80   50.12
   1   0   8 3874.18   63.19
   1   0   8 3933.76   49.62
   1   0   8 3897.36   49.43
   1   0   8 3905.80   49.86
   2   0   8  240.28    6.30
   2   0   8  232.70    6.01
   2   0   8  230.66    6.18
   2   0   8  238.00    5.97
   2   0   8  224.64   11.89
   3   0   8 1247.17   19.80
   3   0   8 1309.26   19.70
   3   0   8 1203.55   19.29
   3   0   8 1222.80   29.70
   4   0   8  237.24    7.70
   4   0   8  245.74    7.68
   4   0   8  239.03   12.38
   4   0   8  238.55    7.78
   5   0   8  147.37    6.97
   5   0   8  145.85   10.16
   5   0   8  130.23    8.47
   5   0   8  148.69    6.90
   5   0   8  156.86    7.16
   6   0   8   82.86    6.11
   6   0   8   68.22    6.28
   6   0   8   65.90    8.27
   6   0   8   65.06    7.83
   7   0   8  145.38    8.94
   7   0   8  165.56   10.89
   7   0   8  156.61    9.06
   7   0   8  169.47   11.31
  -5   1   8    1.48    2.76
  -5   1   8    1.68    2.58
  -4   1   8  178.36    9.94
  -4   1   8  184.36   10.06
  -4   1   8  186.44   10.00
  -3   1   8  252.72   10.42
  -3   1   8  272.49   10.83
  -3   1   8  268.38   12.26
  -3   1   8  266.98    9.96
  -2   1   8   38.53    4.25
  -2   1   8   36.36    4.30
  -2   1   8   36.60    5.63
  -2   1   8   40.44    4.44
  -2   1   8   40.51    4.17
  -1   1   8  886.33   16.65
  -1   1   8  879.41   16.98
  -1   1   8  870.19   16.84
  -1   1   8  890.36   23.70
   0   1   8 1573.21   22.71
   0   1   8 1596.73   23.21
   0   1   8 1571.56   33.74
   0   1   8 1549.09   22.99
   0   1   8 1564.74   22.85
   1   1   8    6.21    3.33
   1   1   8   13.76    1.48
   1   1   8   12.30    1.44
   2   1   8  235.96   12.12
   3   1   8  510.20   13.52
   3   1   8  501.51    9.25
   3   1   8  519.09   18.18
   4   1   8   40.52    3.14
   4   1   8   42.65    3.25
   4   1   8   45.53    3.14
   4   1   8   63.30    8.09
   4   1   8   46.45    5.42
   5   1   8  129.95    8.30
   5   1   8  137.61    6.39
   5   1   8  130.39    6.26
   5   1   8  140.37    6.30
   5   1   8  139.98    9.82
   6   1   8  101.94    9.74
   6   1   8   79.75    5.90
   6   1   8   93.91    6.25
   6   1   8   90.01    9.30
   7   1   8   47.80    5.87
   7   1   8   57.07    7.68
   7   1   8   56.76    7.88
   7   1   8   46.17    5.52
  -5   2   8   17.17    4.52
  -5   2   8    9.11    3.52
  -5   2   8    9.43    3.82
  -4   2   8    7.08    3.11
  -4   2   8    4.47    2.71
  -4   2   8    9.71    3.20
  -3   2   8   17.69    3.58
  -3   2   8   24.37    3.98
  -3   2   8   25.76    4.14
  -2   2   8 1631.95   27.73
  -2   2   8 1561.42   27.74
  -2   2   8 1628.83   34.20
  -2   2   8 1607.24   27.89
  -2   2   8 1615.30   27.58
  -1   2   8  129.12    5.62
  -1   2   8  119.34    8.73
  -1   2   8  113.97    5.14
  -1   2   8  125.42    5.45
  -1   2   8  125.38    5.36
   0   2   8  955.26   14.65
   0   2   8  966.89   15.14
   0   2   8  985.14   14.81
   0   2   8  955.80   15.26
   0   2   8  936.15   15.32
   0   2   8  952.37   25.01
   1   2   8  805.22   22.84
   1   2   8  828.98   13.12
   2   2   8  644.41   13.46
   2   2   8  634.16   20.13
   3   2   8 1112.06   27.90
   3   2   8 1058.32   21.09
   4   2   8  500.03   10.34
   4   2   8  546.98   15.33
   4   2   8  536.56   10.65
   4   2   8  520.21   18.51
   4   2   8  517.92   10.75
   5   2   8   -2.80    2.23
   5   2   8    3.34    1.81
   5   2   8    1.25    1.49
   5   2   8   -0.72    1.26
   5   2   8   -1.59    1.76
   6   2   8  178.80    8.32
   6   2   8  185.53   11.46
   6   2   8  197.44    8.63
   6   2   8  182.36   10.50
   7   2   8  408.23   14.04
   7   2   8  407.04   16.97
   7   2   8  395.90   14.02
  -5   3   8   21.77    5.33
  -5   3   8   16.21    4.22
  -5   3   8   16.96    4.39
  -4   3   8  834.16   22.23
  -4   3   8  788.52   21.23
  -4   3   8  772.01   21.04
  -3   3   8    1.45    2.11
  -3   3   8    1.56    2.18
  -3   3   8    1.88    1.99
  -2   3   8  192.82    8.12
  -2   3   8  184.07    7.72
  -2   3   8  201.79    8.79
  -2   3   8  189.82    7.98
  -1   3   8  444.11   10.77
  -1   3   8  443.53   12.07
  -1   3   8  454.94   11.11
  -1   3   8  455.10   11.07
   0   3   8 1981.33   30.62
   0   3   8 1981.12   40.00
   0   3   8 1989.19   27.62
   0   3   8 2011.57   27.23
   0   3   8 1984.78   27.99
   0   3   8 2019.86   27.16
   1   3   8  113.47    5.31
   1   3   8  108.96    8.63
   2   3   8  546.57   12.82
   2   3   8  519.32   18.53
   2   3   8  544.33   11.99
   3   3   8  494.49    8.62
   3   3   8  469.09   12.83
   3   3   8  513.87   18.46
   3   3   8  492.64    8.59
   4   3   8  409.45    9.31
   4   3   8  412.96    9.36
   4   3   8  427.71   13.39
   4   3   8  402.64    9.45
   5   3   8   78.89    4.98
   5   3   8   74.17    4.82
   5   3   8   70.26    4.71
   5   3   8   70.52    7.33
   6   3   8   80.20    5.86
   6   3   8   99.94    9.62
   6   3   8   79.26    5.77
   7   3   8    2.88    2.76
   7   3   8    2.64    3.36
   7   3   8   10.20    3.21
  -5   4   8  105.13   10.67
  -5   4   8   92.79    9.50
  -5   4   8  109.83   10.07
  -4   4   8  244.14   11.64
  -4   4   8  280.67   13.17
  -4   4   8  242.05   11.74
  -3   4   8    1.45    2.15
  -3   4   8    0.62    1.87
  -3   4   8    1.27    2.47
  -2   4   8 1367.15   25.62
  -2   4   8 1343.54   25.63
  -2   4   8 1383.84   28.13
  -2   4   8 1335.92   25.51
  -1   4   8   14.18    2.60
  -1   4   8   21.00    3.77
  -1   4   8   22.26    3.04
  -1   4   8   21.28    2.99
   0   4   8   92.29    4.35
   0   4   8   83.34    4.13
   0   4   8   77.31    3.92
   0   4   8   85.03    5.62
   1   4   8  120.43    4.00
   1   4   8  119.09    3.95
   1   4   8  114.82    6.46
   2   4   8 5069.02   69.31
   2   4   8 5114.50   60.62
   2   4   8 5046.83   60.52
   2   4   8 4958.91   61.63
   2   4   8 4984.74   65.40
   3   4   8    0.31    0.95
   3   4   8    0.21    1.13
   3   4   8   -0.83    1.61
   3   4   8   -1.13    0.99
   3   4   8   -1.85    1.78
   4   4   8  402.54   10.15
   4   4   8  406.22   10.19
   4   4   8  416.40   10.29
   4   4   8  410.85   13.48
   5   4   8  473.95   12.64
   5   4   8  483.81   16.11
   5   4   8  489.27   12.85
   5   4   8  482.61   12.90
   6   4   8   12.89    3.25
   6   4   8    7.72    2.73
   6   4   8   16.16    4.17
   7   4   8  670.36   22.39
   7   4   8  620.00   18.16
   7   4   8  619.06   18.38
  -4   5   8  804.76   24.25
  -4   5   8  791.34   22.16
  -3   5   8   20.99    4.17
  -3   5   8   23.31    5.04
  -2   5   8    4.53    2.17
  -2   5   8    3.30    2.63
  -1   5   8   46.65    4.50
  -1   5   8   43.10    5.65
  -1   5   8   38.56    4.24
   0   5   8 2988.70   42.22
   0   5   8 3005.10   47.97
   0   5   8 2926.02   42.19
   0   5   8 2997.98   42.34
   1   5   8  349.74    9.01
   1   5   8  340.99    8.98
   1   5   8  347.73   12.64
   2   5   8  486.52   10.80
   2   5   8  500.72   11.05
   2   5   8  504.27   12.60
   2   5   8  497.08   10.89
   2   5   8  470.13   15.01
   3   5   8   98.97    6.31
   3   5   8   97.45    7.26
   3   5   8   95.61    4.90
   3   5   8   85.65    4.70
   3   5   8   95.24    4.82
   4   5   8   21.11    3.18
   4   5   8   25.00    4.52
   4   5   8   25.57    3.34
   4   5   8   20.98    3.16
   5   5   8  322.39   13.44
   5   5   8  324.25   16.57
   5   5   8  318.84   10.92
   5   5   8  310.84   10.86
   6   5   8  583.81   17.01
   6   5   8  601.60   16.99
   6   5   8  612.73   20.64
  -3   6   8   41.87    6.64
  -3   6   8   31.45    5.13
  -3   6   8   33.59    5.36
  -2   6   8 1115.05   24.66
  -2   6   8 1130.88   28.13
  -2   6   8 1101.55   24.70
  -1   6   8   92.03    6.17
  -1   6   8   82.11    8.39
   0   6   8    9.77    2.52
   0   6   8   13.42    3.79
   0   6   8    6.93    2.22
   1   6   8   21.35    4.53
   1   6   8   32.02    3.72
   1   6   8   26.20    3.49
   2   6   8  555.49   17.78
   2   6   8  545.57   13.41
   2   6   8  551.11   13.47
   2   6   8  545.63   13.42
   3   6   8    5.62    3.21
   3   6   8    4.96    2.04
   3   6   8    6.74    2.23
   3   6   8    3.59    2.01
   4   6   8  354.07   11.63
   4   6   8  362.90   15.31
   4   6   8  366.08   17.37
   4   6   8  345.87   11.48
   5   6   8  225.44    9.89
   5   6   8  201.67    9.45
   5   6   8  226.02   11.77
   6   6   8  307.02   12.63
   6   6   8  268.32   11.82
   6   6   8  305.64   14.70
  -3   7   8  343.18   14.68
  -3   7   8  358.92   16.88
  -2   7   8   46.72    7.45
  -2   7   8   60.62    6.93
  -1   7   8   71.36    6.79
  -1   7   8   78.89    8.89
   0   7   8  343.13   15.12
   0   7   8  333.28   12.02
   1   7   8  108.93    9.01
   1   7   8  111.17    6.76
   1   7   8  123.21    7.19
   2   7   8    4.95    2.43
   2   7   8    3.35    2.39
   2   7   8    4.93    3.26
   3   7   8   65.56    6.13
   3   7   8   49.53    5.31
   3   7   8   63.51    8.17
   4   7   8  298.89   14.89
   4   7   8  310.31   11.68
   4   7   8  289.45   11.65
   5   7   8  941.98   22.92
   5   7   8  941.21   23.28
  -1   8   8  768.50   25.32
  -1   8   8  796.06   21.76
   0   8   8  185.39    9.79
   0   8   8  179.62    9.85
   0   8   8  194.44   12.57
   1   8   8   71.41    8.88
   1   8   8   98.06    7.20
   1   8   8   81.99    7.53
   2   8   8   65.67    6.83
   2   8   8   61.87    8.58
   2   8   8   64.01    6.71
   3   8   8   20.55    4.25
   3   8   8   17.78    5.32
   3   8   8   18.90    4.14
   0  -5   9   34.19    5.79
   0  -5   9   47.89    6.77
   1  -5   9   76.85    8.32
   1  -5   9   76.77    8.29
   2  -5   9   85.55    8.89
   2  -5   9   86.83    8.64
   3  -5   9   60.20    7.34
   3  -5   9   75.28    8.18
  -2  -4   9  572.26   19.47
  -2  -4   9  551.82   19.30
  -1  -4   9   55.20    6.96
  -1  -4   9   79.18    8.26
   0  -4   9   46.23    6.31
   0  -4   9   56.04    6.57
   1  -4   9    3.12    2.61
   1  -4   9    1.38    2.39
   2  -4   9    3.65    2.55
   2  -4   9    2.46    2.21
   3  -4   9   34.71    5.28
   3  -4   9   25.23    4.76
   4  -4   9  693.28   20.49
   4  -4   9  708.27   20.37
   5  -4   9  493.38   17.29
   5  -4   9  488.23   17.39
  -3  -3   9  353.29   15.31
  -3  -3   9  363.24   15.34
  -2  -3   9  667.55   20.33
  -2  -3   9  659.92   19.97
  -1  -3   9   20.38    4.43
  -1  -3   9   21.22    4.15
   0  -3   9   -3.06    1.72
   0  -3   9    0.58    2.01
   1  -3   9   61.59    6.26
   1  -3   9   54.44    5.89
   2  -3   9  289.44   11.33
   2  -3   9  288.26   11.29
   3  -3   9   10.33    2.99
   3  -3   9    7.05    2.59
   4  -3   9  179.97    9.37
   4  -3   9  194.46    9.62
   5  -3   9   57.82    6.56
   5  -3   9   58.73    6.63
   6  -3   9  780.13   21.88
   6  -3   9  745.50   21.56
   6  -3   9  711.23   25.57
  -3  -2   9   25.70    5.81
  -3  -2   9   13.86    3.88
  -3  -2   9   25.03    4.95
  -2  -2   9   79.59    7.73
  -2  -2   9   76.41    9.29
  -2  -2   9   76.42    7.45
  -1  -2   9    2.53    2.29
  -1  -2   9    4.79    2.50
   0  -2   9  748.12   18.21
   0  -2   9  736.50   17.98
   1  -2   9    3.23    1.99
   1  -2   9    4.96    2.08
   1  -2   9    2.32    2.14
   2  -2   9   -0.36    1.61
   2  -2   9    1.54    1.57
   2  -2   9    1.74    1.96
   3  -2   9  773.30   17.67
   3  -2   9  753.91   17.70
   3  -2   9  760.07   17.77
   4  -2   9  823.78   19.38
   4  -2   9  846.67   19.43
   5  -2   9 1049.71   23.58
   5  -2   9 1022.48   23.17
   5  -2   9 1040.45   30.13
   6  -2   9    5.58    3.88
   6  -2   9    7.36    3.12
   6  -2   9    6.95    2.87
  -4  -1   9   80.55    8.39
  -4  -1   9   72.87    8.22
  -3  -1   9   65.15    7.04
  -3  -1   9   59.92    7.93
  -3  -1   9   60.73    6.82
  -2  -1   9   74.11    6.86
  -2  -1   9   79.32    9.06
  -2  -1   9   80.36    6.44
  -1  -1   9   31.81    4.17
  -1  -1   9   23.96    5.39
  -1  -1   9   33.09    4.33
   0  -1   9   37.63    6.58
   0  -1   9   43.93    4.44
   0  -1   9   37.91    4.24
   0  -1   9   42.29    4.54
   1  -1   9    6.72    2.18
   1  -1   9    3.42    3.65
   1  -1   9    6.08    1.86
   1  -1   9    9.86    2.25
   2  -1   9  649.45   14.15
   2  -1   9  656.08   14.31
   2  -1   9  665.77   14.47
   2  -1   9  634.08   22.00
   3  -1   9 1964.88   42.25
   3  -1   9 1910.89   30.24
   3  -1   9 1901.28   30.36
   3  -1   9 1901.28   30.43
   4  -1   9  142.07    6.85
   4  -1   9  122.05    6.48
   4  -1   9  140.11    6.63
   4  -1   9  128.27   10.35
   5  -1   9    7.98    2.64
   5  -1   9    5.77    3.81
   5  -1   9    8.50    2.57
   6  -1   9  140.00   11.06
   6  -1   9  145.75    8.45
   6  -1   9  156.01    8.55
   7  -1   9  234.96   14.02
   7  -1   9  228.99   11.35
   7  -1   9  220.52   11.08
  -4   0   9  102.88    8.23
  -4   0   9  118.19    8.86
  -3   0   9   63.98    6.87
  -3   0   9   54.16    6.29
  -3   0   9   58.33    7.75
  -2   0   9   -1.54    2.30
  -2   0   9    3.15    2.08
  -2   0   9    1.82    1.95
  -1   0   9  218.72    8.50
  -1   0   9  210.77    8.32
  -1   0   9  210.79    8.29
  -1   0   9  194.64   11.73
   0   0   9 1228.47   21.55
   0   0   9 1190.16   30.21
   0   0   9 1239.17   21.30
   0   0   9 1232.92   21.53
   1   0   9  959.06   16.58
   1   0   9  974.60   26.81
   1   0   9  950.22   16.68
   1   0   9  943.56   16.82
   2   0   9  302.73    7.66
   2   0   9  291.36    7.80
   2   0   9  304.18    7.60
   2   0   9  322.38   14.94
   3   0   9  254.79    7.48
   3   0   9  258.77    7.39
   3   0   9  268.10    7.39
   3   0   9  269.52   13.99
   4   0   9  297.14    8.85
   4   0   9  279.46   14.42
   4   0   9  293.64    8.70
   4   0   9  279.90    8.61
   5   0   9  165.14    7.34
   5   0   9  178.14    7.61
   5   0   9  194.49   12.32
   5   0   9  165.30    7.57
   5   0   9  166.38    7.42
   6   0   9   19.10    3.83
   6   0   9   17.54    3.59
   6   0   9   14.54    4.96
   7   0   9   65.57    7.12
   7   0   9   66.71    8.63
   7   0   9   64.30    8.51
   7   0   9   67.29    6.88
  -4   1   9  128.57    8.78
  -4   1   9  128.35    9.09
  -3   1   9  132.50    8.13
  -3   1   9  133.02    8.10
  -3   1   9  144.31    9.87
  -2   1   9  515.69   14.41
  -2   1   9  484.70   14.11
  -2   1   9  537.64   18.30
  -2   1   9  500.38   18.15
  -1   1   9  651.59   14.80
  -1   1   9  637.50   14.44
  -1   1   9  629.60   20.99
  -1   1   9  686.96   15.08
   0   1   9  239.04    7.04
   0   1   9  239.26    7.24
   0   1   9  230.70   12.70
   0   1   9  237.81    6.95
   1   1   9  358.18    7.27
   1   1   9  369.60    7.24
   1   1   9  325.02   15.12
   1   1   9  355.21    7.64
   2   1   9   45.13    6.86
   3   1   9 1346.25   33.27
   3   1   9 1403.00   19.93
   3   1   9 1370.98   19.20
   3   1   9 1351.33   19.11
   4   1   9  653.98   12.86
   4   1   9  637.31   12.81
   4   1   9  650.51   12.69
   4   1   9  641.46   21.96
   5   1   9  394.45   10.92
   5   1   9  378.89   14.39
   5   1   9  380.08   10.79
   5   1   9  384.48   10.72
   5   1   9  382.55   16.91
   6   1   9  288.03   15.02
   6   1   9  328.97   11.24
   6   1   9  270.52   13.16
   6   1   9  312.96   11.06
   7   1   9  578.17   21.30
   7   1   9  578.10   17.15
   7   1   9  591.24   21.02
   7   1   9  589.31   17.49
  -4   2   9   85.35    8.08
  -4   2   9   83.08    7.96
  -3   2   9  301.49   11.93
  -3   2   9  306.17   11.72
  -2   2   9   15.03    3.13
  -2   2   9   12.02    2.79
  -2   2   9   13.49    2.96
  -2   2   9   14.13    4.31
  -1   2   9 2197.75   44.04
  -1   2   9 2251.50   33.54
  -1   2   9 2240.77   33.89
  -1   2   9 2232.96   33.88
   0   2   9  211.93    6.35
   0   2   9  203.87    5.87
   0   2   9  215.38    6.10
   0   2   9  226.60   12.58
   1   2   9  555.95   19.80
   2   2   9 1565.27   35.96
   3   2   9  555.87   14.25
   3   2   9  571.42   20.47
   4   2   9   80.43    9.07
   4   2   9   84.45    6.30
   4   2   9   80.08    3.96
   4   2   9   88.34    3.89
   4   2   9   85.19    3.85
   5   2   9  408.66   14.69
   5   2   9  420.25   10.96
   5   2   9  397.40   17.33
   5   2   9  405.26   10.80
   5   2   9  411.64   10.97
   6   2   9   20.45    3.56
   6   2   9   19.55    3.39
   6   2   9   27.21    6.08
   6   2   9   16.17    4.44
   7   2   9   15.67    3.68
   7   2   9    6.36    2.73
   7   2   9    7.97    4.25
  -4   3   9   13.04    3.75
  -4   3   9   15.31    3.92
  -3   3   9  179.42    9.19
  -3   3   9  180.91    9.18
  -2   3   9   59.49    5.42
  -2   3   9   59.82    5.64
  -2   3   9   63.74    5.77
  -1   3   9  357.81    9.92
  -1   3   9  356.09   10.09
  -1   3   9  351.93   10.03
   0   3   9  168.90    5.41
   0   3   9  159.52   10.83
   0   3   9  166.06    5.32
   0   3   9  162.36    5.55
   1   3   9   33.16    6.44
   2   3   9   25.77    5.63
   3   3   9 1114.38   30.17
   3   3   9 1153.76   22.11
   4   3   9   45.76    5.46
   4   3   9   34.63    6.53
   4   3   9   42.98    3.05
   4   3   9   43.02    2.94
   4   3   9   41.85    2.90
   5   3   9  477.99   11.83
   5   3   9  486.34   11.91
   5   3   9  449.94   11.59
   5   3   9  437.91   15.23
   6   3   9  156.43    7.77
   6   3   9  165.46   10.30
   6   3   9  150.90    7.60
   7   3   9  432.94   17.64
   7   3   9  425.83   14.36
   7   3   9  409.89   14.31
  -4   4   9  193.51   10.69
  -4   4   9  174.34   10.47
  -3   4   9    0.41    2.06
  -3   4   9    1.18    2.11
  -3   4   9   -2.43    2.21
  -2   4   9    2.16    1.98
  -2   4   9    2.17    1.85
  -2   4   9   -0.91    1.90
  -1   4   9  285.42    9.30
  -1   4   9  292.32   10.76
  -1   4   9  306.55    9.44
  -1   4   9  288.58    9.41
   0   4   9    0.57    1.19
   0   4   9   -0.94    1.08
   0   4   9    0.63    1.90
   0   4   9    1.01    1.26
   1   4   9 1739.62   23.96
   1   4   9 1762.03   24.10
   1   4   9 1764.32   29.81
   2   4   9 1132.90   22.38
   3   4   9   22.15    3.60
   3   4   9   21.71    2.03
   3   4   9   19.17    1.95
   3   4   9   18.40    2.11
   4   4   9 1851.52   27.82
   4   4   9 1868.10   27.79
   4   4   9 1861.07   33.77
   4   4   9 1863.90   27.78
   5   4   9  396.47   11.20
   5   4   9  373.59   10.92
   5   4   9  375.09   10.92
   5   4   9  386.63   14.39
   6   4   9  480.21   17.66
   6   4   9  487.11   14.16
   6   4   9  488.80   14.30
  -3   5   9    6.81    3.69
  -3   5   9    3.57    2.60
  -2   5   9    4.59    3.03
  -2   5   9    4.13    2.29
  -1   5   9  255.72    9.27
  -1   5   9  240.15   10.85
  -1   5   9  243.45    9.16
   0   5   9  683.83   14.92
   0   5   9  714.61   18.68
   0   5   9  708.88   14.82
   1   5   9   14.44    3.46
   1   5   9    9.63    1.97
   1   5   9   10.21    1.96
   2   5   9  552.25   16.12
   2   5   9  540.80   11.29
   2   5   9  555.99   11.54
   2   5   9  555.56   11.39
   3   5   9  619.56   12.77
   3   5   9  602.09   19.94
   3   5   9  628.47   12.85
   3   5   9  602.37   17.67
   3   5   9  614.56   12.72
   4   5   9 1405.61   28.43
   4   5   9 1379.64   23.78
   4   5   9 1387.39   23.78
   4   5   9 1382.28   23.80
   5   5   9   72.87    5.35
   5   5   9   69.44    5.36
   5   5   9   77.65    5.51
   5   5   9   74.16    7.85
   6   5   9    4.69    2.53
   6   5   9    4.70    2.56
   6   5   9    2.85    3.26
  -3   6   9  113.64    8.41
  -3   6   9  100.86    9.96
  -3   6   9   92.09    8.55
  -2   6   9  389.27   13.92
  -2   6   9  379.13   13.60
  -2   6   9  394.29   15.96
  -1   6   9    2.08    2.78
  -1   6   9    1.86    2.04
   0   6   9    5.58    2.11
   0   6   9    4.94    2.16
   0   6   9    2.13    2.90
   1   6   9  561.77   17.84
   1   6   9  582.32   13.92
   1   6   9  595.03   14.03
   2   6   9 1112.46   20.55
   2   6   9 1134.02   20.86
   2   6   9 1121.95   26.55
   2   6   9 1081.30   20.58
   3   6   9   43.30    6.22
   3   6   9   44.75    4.46
   3   6   9   44.51    4.45
   3   6   9   43.04    4.33
   4   6   9  453.46   13.07
   4   6   9  473.03   15.54
   4   6   9  453.63   17.00
   4   6   9  454.70   12.99
   4   6   9  484.92   13.32
   5   6   9  587.60   16.13
   5   6   9  626.83   19.65
   5   6   9  565.43   15.78
  -1   7   9  421.95   14.34
  -1   7   9  404.06   16.82
   0   7   9  553.33   15.74
   0   7   9  556.69   19.33
   1   7   9  105.05    6.62
   1   7   9  103.17    8.74
   1   7   9  107.44    6.69
   2   7   9   99.33    8.54
   2   7   9   91.40    6.11
   2   7   9  102.04    6.49
   3   7   9   12.50    3.15
   3   7   9   12.98    4.36
   3   7   9   12.89    3.25
   4   7   9  724.12   23.66
   4   7   9  771.20   19.25
   4   7   9  784.09   19.05
   0  -4  10  339.82   14.63
   0  -4  10  350.72   14.71
   1  -4  10  168.22   10.07
   1  -4  10  166.93   10.12
   2  -4  10    0.18    2.38
   2  -4  10   -1.15    2.19
   3  -4  10  386.40   15.11
   3  -4  10  387.82   15.02
  -1  -3  10    6.48    2.98
  -1  -3  10    2.92    2.57
   0  -3  10    8.18    3.13
   0  -3  10    6.84    3.09
   1  -3  10  509.97   16.20
   1  -3  10  504.47   15.95
   2  -3  10   30.94    4.76
   2  -3  10   21.36    4.29
   3  -3  10   34.12    5.03
   3  -3  10   50.20    5.98
   4  -3  10  123.40    8.33
   4  -3  10  136.81    8.53
  -2  -2  10  215.16   11.09
  -2  -2  10  208.30   11.04
  -2  -2  10  224.61   13.92
  -1  -2  10  286.56   11.91
  -1  -2  10  256.11   15.03
  -1  -2  10  289.39   12.00
   0  -2  10  730.48   25.48
   0  -2  10  749.01   19.11
   0  -2  10  754.37   19.27
   1  -2  10    3.68    2.16
   1  -2  10    4.70    2.40
   2  -2  10    7.50    2.60
   2  -2  10    9.71    2.88
   3  -2  10 2088.53   35.50
   3  -2  10 2058.52   35.77
   3  -2  10 2149.91   47.72
   4  -2  10  116.08    7.26
   4  -2  10  113.38    7.27
   4  -2  10   88.31   10.73
   5  -2  10  545.34   16.61
   5  -2  10  564.68   22.87
   5  -2  10  574.97   16.66
  -3  -1  10  590.03   18.94
  -3  -1  10  574.87   19.07
  -3  -1  10  632.80   22.28
  -2  -1  10  160.82   11.70
  -2  -1  10  165.03    9.22
  -2  -1  10  147.21    8.79
  -1  -1  10   27.93    4.30
  -1  -1  10   22.21    3.95
  -1  -1  10   19.19    5.50
   0  -1  10    1.59    1.84
   0  -1  10    1.42    1.99
   0  -1  10   -0.28    3.15
   0  -1  10    0.39    1.72
   1  -1  10  683.14   15.93
   1  -1  10  693.82   15.76
   1  -1  10  659.09   23.46
   1  -1  10  671.64   15.73
   2  -1  10  522.28   13.32
   2  -1  10  506.35   20.54
   2  -1  10  538.44   13.15
   2  -1  10  508.01   13.16
   3  -1  10  271.79    9.16
   3  -1  10  264.30    9.26
   3  -1  10  263.68    9.18
   3  -1  10  265.93   14.94
   4  -1  10   70.18    9.57
   4  -1  10   76.88    5.44
   4  -1  10   67.42    5.06
   4  -1  10   75.48    5.39
   5  -1  10    2.35    2.18
   5  -1  10    0.80    3.48
   5  -1  10    2.77    2.09
   6  -1  10   52.08    6.03
   6  -1  10   49.54    5.90
   6  -1  10   46.40    8.13
  -3   0  10   58.41    6.85
  -3   0  10   47.28    5.99
  -3   0  10   54.84    8.08
  -2   0  10  304.69   11.83
  -2   0  10  310.68   12.06
  -2   0  10  304.88   15.45
  -1   0  10   67.93    6.07
  -1   0  10   61.60    5.66
  -1   0  10   67.60    8.62
   0   0  10  443.23   11.94
   0   0  10  418.00   18.16
   0   0  10  443.81   11.79
   0   0  10  450.77   12.03
   1   0  10    2.53    1.41
   1   0  10    1.14    1.47
   1   0  10    2.41    3.37
   1   0  10   -0.34    1.25
   2   0  10   51.37    7.90
   2   0  10   71.83    4.12
   2   0  10   71.52    4.05
   2   0  10   74.00    4.26
   3   0  10  202.84    6.97
   3   0  10  215.22   13.43
   3   0  10  204.68    6.83
   3   0  10  206.72    6.91
   4   0  10  334.04    9.80
   4   0  10  335.27   16.75
   4   0  10  344.57    9.74
   4   0  10  345.86    9.87
   5   0  10  146.55    7.21
   5   0  10  155.58   11.99
   5   0  10  143.39    7.18
   5   0  10  165.18    7.48
   6   0  10  204.09    9.46
   6   0  10  214.53    9.52
   6   0  10  245.47   14.84
  -3   1  10   33.40    5.21
  -3   1  10   46.43    5.91
  -3   1  10   50.89    7.81
  -2   1  10  345.58   12.10
  -2   1  10  340.61   12.23
  -2   1  10  341.06   16.00
  -1   1  10   48.71    4.87
  -1   1  10   41.92    4.36
  -1   1  10   45.78    4.67
  -1   1  10   46.46    7.29
   0   1  10  214.42    7.40
   0   1  10  211.45    7.28
   0   1  10  208.93    7.17
   0   1  10  205.54   12.94
   1   1  10    7.14    1.69
   1   1  10    6.69    1.50
   1   1  10    6.66    1.58
   1   1  10    3.09    3.61
   2   1  10 1120.91   16.54
   2   1  10 1134.15   31.35
   2   1  10 1129.62   17.14
   3   1  10  586.86   10.94
   3   1  10  578.17   10.50
   3   1  10  576.73   21.94
   3   1  10  583.55   10.60
   4   1  10   42.21    3.33
   4   1  10   37.41    6.88
   4   1  10   39.53    3.16
   4   1  10   42.99    3.35
   5   1  10    7.82    4.44
   5   1  10   10.59    2.53
   5   1  10    9.91    2.49
   5   1  10    9.20    2.28
   6   1  10  272.44   10.23
   6   1  10  263.95   15.35
   6   1  10  262.27   10.29
   6   1  10  275.27   13.38
  -3   2  10  179.74    9.74
  -3   2  10  193.45    9.76
  -2   2  10  139.67    7.66
  -2   2  10  143.05    7.69
  -2   2  10  136.45   10.67
  -1   2  10  178.73    7.49
  -1   2  10  180.46    7.32
  -1   2  10  164.63    7.23
  -1   2  10  192.47   12.32
   0   2  10 1118.83   18.91
   0   2  10 1085.32   30.27
   0   2  10 1068.51   18.53
   0   2  10 1107.33   18.48
   1   2  10  605.47   22.08
   1   2  10  612.67   10.67
   2   2  10   -2.13    3.22
   3   2  10   29.08    6.55
   4   2  10   47.75    3.12
   4   2  10   46.59    7.43
   4   2  10   49.83    3.11
   4   2  10   43.47    2.93
   4   2  10   57.51    6.04
   5   2  10  298.26    9.05
   5   2  10  317.97    9.31
   5   2  10  294.24   15.95
   5   2  10  298.24    9.10
   5   2  10  289.00   12.50
   6   2  10   34.40    4.43
   6   2  10   47.99    5.08
   6   2  10   51.55    8.21
   6   2  10   34.09    5.98
  -3   3  10    6.42    2.91
  -3   3  10    3.02    2.38
  -2   3  10  476.82   14.16
  -2   3  10  476.48   14.20
  -1   3  10  184.61    7.35
  -1   3  10  187.44    7.61
  -1   3  10  179.78    7.49
   0   3  10  246.94   14.15
   0   3  10  254.29    7.36
   0   3  10  256.61    7.59
   0   3  10  271.81    7.46
   1   3  10  139.39   11.09
   1   3  10  141.78    4.24
   2   3  10 1410.90   36.13
   3   3  10  583.89   22.28
   4   3  10  118.96   12.53
   4   3  10   96.46    6.74
   4   3  10   98.26    3.97
   4   3  10   95.00    3.98
   4   3  10  104.50    4.27
   5   3  10  104.04    5.30
   5   3  10   96.97    5.19
   5   3  10  100.36    5.27
   5   3  10  100.72    7.68
   6   3  10   92.33    6.05
   6   3  10   82.43    8.96
   6   3  10   86.37    5.90
  -3   4  10   19.77    4.30
  -3   4  10   20.23    4.17
  -2   4  10  138.05    7.61
  -2   4  10  137.94    7.77
  -1   4  10  114.81    6.14
  -1   4  10  102.67    5.81
  -1   4  10  112.91    6.11
   0   4  10  975.84   17.43
   0   4  10  954.23   17.47
   0   4  10  966.93   17.64
   1   4  10 1437.57   20.58
   1   4  10 1425.53   20.68
   4   4  10  121.33    4.94
   4   4  10  123.36    5.00
   4   4  10  123.69    4.95
   5   4  10   45.64    4.32
   5   4  10   51.45    6.42
   5   4  10   48.34    4.41
   5   4  10   40.55    4.11
  -2   5  10  545.61   16.07
  -1   5  10    2.91    2.38
  -1   5  10    3.76    2.06
   0   5  10    2.86    1.71
   0   5  10    1.77    1.62
   1   5  10   -0.24    1.33
   1   5  10    0.17    1.23
   1   5  10   -0.55    1.17
   2   5  10  956.88   16.23
   2   5  10  962.48   16.42
   2   5  10  979.28   16.41
   3   5  10  723.12   13.67
   3   5  10  738.21   13.82
   3   5  10  720.29   13.69
   4   5  10    9.69    2.26
   4   5  10    7.50    2.02
   4   5  10    7.07    1.97
   5   5  10   86.79    5.63
   5   5  10   81.52    5.42
   5   5  10   90.59    8.86
   5   5  10   77.58    5.37
  -1   6  10   84.41    6.38
  -1   6  10   89.57    6.38
   0   6  10  357.04   11.45
   0   6  10  346.32   11.26
   1   6  10  602.22   14.15
   1   6  10  598.85   14.27
   2   6  10  166.06    6.85
   2   6  10  185.58    7.25
   2   6  10  177.22    7.06
   3   6  10  317.09    9.74
   3   6  10  312.76    9.72
   3   6  10  316.30    9.57
   4   6  10   71.63    5.16
   4   6  10   76.77    5.39
   4   6  10   85.10    5.62
   1   7  10    1.03    3.30
   1   7  10    4.19    2.41
   1   7  10   -1.40    1.76
   2   7  10    1.84    2.09
   2   7  10    4.05    2.26
   2   7  10    3.97    3.35
   0  -2  11  471.81   15.46
   0  -2  11  484.33   21.63
   0  -2  11  472.75   15.54
   1  -2  11    8.75    4.75
   1  -2  11   11.14    3.20
   1  -2  11    9.09    3.17
   2  -2  11   99.23    6.74
   2  -2  11   97.61    6.84
   2  -2  11   98.74   12.04
   3  -2  11  277.17   16.78
   3  -2  11  285.23   11.39
   3  -2  11  293.46   11.32
  -1  -1  11  211.22   10.08
  -1  -1  11  189.68    9.80
  -1  -1  11  201.75   13.74
   0  -1  11   94.62   11.40
   0  -1  11  110.95    6.94
   0  -1  11   88.09    6.43
   1  -1  11  262.88    9.99
   1  -1  11  259.94   15.74
   1  -1  11  276.41   10.14
   2  -1  11   67.14    5.15
   2  -1  11   61.12    4.98
   2  -1  11   62.58    9.89
   2  -1  11   63.18    4.96
   3  -1  11  142.81   12.16
   3  -1  11  135.53    7.04
   3  -1  11  130.87    6.79
   3  -1  11  127.87    6.66
   4  -1  11  154.09   12.70
   4  -1  11  140.26    7.43
   4  -1  11  148.19    7.53
  -2   0  11  221.07   10.80
  -2   0  11  230.84   10.81
  -2   0  11  220.26   14.10
  -1   0  11  591.60   23.10
  -1   0  11  620.54   16.85
  -1   0  11  608.55   16.44
   0   0  11  543.09   14.21
   0   0  11  525.69   14.18
   0   0  11  522.70   13.88
   0   0  11  531.97   21.90
   1   0  11  128.16    6.06
   1   0  11  127.34    6.17
   1   0  11  107.42   11.46
   1   0  11  113.07    5.89
   2   0  11   40.28    3.97
   2   0  11   41.22    3.93
   2   0  11   46.40    8.37
   2   0  11   46.45    3.67
   3   0  11  351.72    9.86
   3   0  11  340.91    9.59
   3   0  11  351.02   17.97
   3   0  11  362.25    9.97
   4   0  11   89.82    5.39
   4   0  11   96.95    5.51
   4   0  11   78.38   10.89
   4   0  11   93.43    5.38
   5   0  11   15.31    3.15
   5   0  11   20.36    6.43
   5   0  11   14.91    3.09
  -2   1  11  540.18   16.29
  -2   1  11  523.41   15.96
  -2   1  11  503.72   20.87
  -1   1  11  107.03    6.54
  -1   1  11  104.22    6.62
  -1   1  11  116.89   12.18
   0   1  11  389.65   11.01
   0   1  11  390.14   11.01
   0   1  11  389.45   18.43
   0   1  11  401.10   11.08
   1   1  11    3.23    1.51
   1   1  11    3.61    1.52
   1   1  11   -0.49    3.54
   1   1  11    3.54    1.68
   2   1  11   87.87    3.94
   2   1  11   88.06    4.14
   2   1  11   94.75    4.17
   2   1  11   94.86   11.17
   3   1  11  106.61    4.45
   3   1  11  111.22    4.59
   3   1  11  104.36    4.31
   3   1  11  112.58   11.87
   4   1  11  209.23    6.96
   4   1  11  210.81    6.92
   4   1  11  208.19   14.15
   4   1  11  209.51    6.95
   5   1  11  668.39   14.88
   5   1  11  608.39   14.54
   5   1  11  626.47   24.42
   5   1  11  631.65   14.71
  -2   2  11  197.53    9.58
  -2   2  11  213.15   13.94
  -2   2  11  208.98    9.82
  -1   2  11  281.09    9.98
  -1   2  11  297.00   10.28
  -1   2  11  295.79   10.05
  -1   2  11  308.14   16.42
   0   2  11  190.10   13.16
   0   2  11  193.03    6.97
   0   2  11  209.37    7.35
   0   2  11  193.22    7.10
   1   2  11  158.78    5.18
   1   2  11  166.13    5.47
   1   2  11  158.23    5.10
   1   2  11  171.80   12.71
   2   2  11   31.68    6.80
   3   2  11   -0.59    2.90
   4   2  11 1134.02   17.78
   4   2  11 1104.38   17.61
   4   2  11 1085.13   32.72
   4   2  11 1108.85   17.54
   5   2  11  199.74    7.27
   5   2  11  204.80    7.38
   5   2  11  185.08   13.83
   5   2  11  184.59    7.00
  -2   3  11  220.37    9.92
  -2   3  11  212.49    9.75
  -1   3  11   13.28    2.83
  -1   3  11   21.02    3.53
  -1   3  11   14.64    2.96
   0   3  11   41.63    8.07
   0   3  11   30.41    3.17
   0   3  11   20.35    2.79
   0   3  11   28.37    3.27
   1   3  11   40.48    7.51
   2   3  11 1433.31   38.13
   3   3  11    9.84    4.78
   4   3  11  136.41   12.05
   5   3  11  133.52    5.89
   5   3  11  137.00    5.90
   5   3  11  128.08    5.77
  -1   4  11   21.28    3.55
  -1   4  11   13.03    2.89
  -1   4  11   16.46    3.13
   0   4  11  417.32   10.71
   0   4  11  414.51   10.71
   0   4  11  425.28   10.81
   1   4  11  261.76    6.71
   1   4  11  260.35    6.75
   4   4  11  650.96   12.23
   4   4  11  668.93   12.37
   4   4  11  670.89   12.41
   0   5  11   57.06    4.46
   0   5  11   56.16    4.37
   1   5  11  522.98   11.65
   1   5  11  515.17   11.44
   2   5  11 1745.21   25.50
   2   5  11 1770.73   25.56
   3   5  11   95.56    4.29
   3   5  11  101.77    4.36
   3   5  11   95.15    4.24
   1   0  12   24.26    6.40
   1   0  12   17.80    3.21
   1   0  12   17.17    3.17
   1   0  12   23.02    3.45
   2   0  12    2.16    3.80
   2   0  12    0.01    1.59
   2   0  12    1.19    1.71
   2   0  12    1.26    1.50
   1   1  12   39.90    3.83
   1   1  12   34.41    3.68
   1   1  12   43.60    4.15
   1   1  12   28.26    7.00
   2   1  12   16.01    2.44
   2   1  12   15.06    2.33
   2   1  12   12.40    2.19
   2   1  12    5.79    4.48
   3   1  12   20.70    6.20
   3   1  12   19.98    2.71
   3   1  12   22.31    2.66
   3   1  12   22.10    2.65
   0   2  12   13.97    5.31
   0   2  12   16.35    2.84
   0   2  12   16.21    2.95
   0   2  12   18.70    3.01
   1   2  12    1.46    1.50
   1   2  12    0.67    1.25
   1   2  12    1.96    1.34
   1   2  12    0.25    3.74
   2   2  12   71.56   10.00
   3   2  12  310.97   17.85
   1   3  12  297.01    7.48
   1   3  12  302.00    7.69
   1   3  12  302.94    7.71
   1   3  12  336.31   18.48
   2   3  12   18.00    6.26
   3   3  12  153.10   13.26


 _exptl_absorpt_process_details 'SADABS 2014/4'
 _exptl_absorpt_correction_type   multiscan
 _exptl_absorpt_correction_T_max  0.9485
 _exptl_absorpt_correction_T_min  0.9251
 _exptl_special_details
)
 The following wavelength and cell were deduced by SADABS from the
 direction cosines etc. They are given here for emergency use only:
 CELL 0.71077    7.210    7.962    9.815   80.202   78.589   89.536
)

_computing_structure_solution     'SHELXT 2014/4 (Sheldrick, 2014)'
;
_shelx_hkl_checksum              11070
loop_
_space_group_symop_operation_xyz
'x, y, z'
'-x, -y, -z'
loop_
_atom_site_label
_atom_site_type_symbol
_atom_site_fract_x
_atom_site_fract_y
_atom_site_fract_z
_atom_site_U_iso_or_equiv
_atom_site_adp_type
_atom_site_occupancy
_atom_site_site_symmetry_order
_atom_site_calc_flag
_atom_site_refinement_flags_posn
_atom_site_refinement_flags_adp
C1 C 0.24237(18) 0.05251(16) 0.05788(14) 0.0159(3) Uani 1 1 d . .
H1A H 0.3190 0.0145 0.1293 0.024 Uiso 1 1 calc R U
H1B H 0.3262 0.0901 -0.0341 0.024 Uiso 1 1 calc R U
H1C H 0.1600 -0.0422 0.0514 0.024 Uiso 1 1 calc R U
C2 C 0.26744(17) 0.38924(15) 0.10833(13) 0.0111(2) Uani 1 1 d . .
H2A H 0.3520 0.4165 0.0141 0.013 Uiso 1 1 calc R U
H2B H 0.1971 0.4933 0.1265 0.013 Uiso 1 1 calc R U
C3 C 0.38659(17) 0.34065(15) 0.21926(13) 0.0111(2) Uani 1 1 d . .
C4 C 0.55006(18) 0.26306(17) 0.18949(14) 0.0160(3) Uani 1 1 d . .
H4A H 0.6190 0.2256 0.2620 0.019 Uiso 1 1 calc R U
H4B H 0.5980 0.2450 0.0957 0.019 Uiso 1 1 calc R U
C5 C 0.31030(17) 0.36951(16) 0.36672(13) 0.0117(2) Uani 1 1 d . .
C6 C 0.25564(19) 0.22644(17) 0.47149(14) 0.0173(3) Uani 1 1 d . .
H6 H 0.2657 0.1160 0.4464 0.021 Uiso 1 1 calc R U
C7 C 0.1869(2) 0.24180(19) 0.61166(14) 0.0209(3) Uani 1 1 d . .
H7 H 0.1516 0.1422 0.6809 0.025 Uiso 1 1 calc R U
C8 C 0.16954(19) 0.40147(19) 0.65098(14) 0.0198(3) Uani 1 1 d . .
H8 H 0.1222 0.4113 0.7469 0.024 Uiso 1 1 calc R U
C9 C 0.22123(18) 0.54641(18) 0.55034(14) 0.0162(3) Uani 1 1 d . .
H9 H 0.2087 0.6565 0.5761 0.019 Uiso 1 1 calc R U
C10 C 0.29179(17) 0.52871(16) 0.41099(13) 0.0124(2) Uani 1 1 d . .
N1 N 0.35552(15) 0.68758(14) 0.31194(11) 0.0142(2) Uani 1 1 d . .
O1 O 0.00058(13) 0.28308(11) -0.00551(10) 0.0156(2) Uani 1 1 d . .
O2 O -0.00774(13) 0.17112(12) 0.24712(10) 0.0164(2) Uani 1 1 d . .
O3 O 0.42066(14) 0.68020(12) 0.18721(10) 0.0183(2) Uani 1 1 d . .
O4 O 0.34502(18) 0.82228(13) 0.35732(11) 0.0311(3) Uani 1 1 d . .
S1 S 0.10231(4) 0.22338(4) 0.10636(3) 0.01023(10) Uani 1 1 d . .
loop_
_atom_site_aniso_label
_atom_site_aniso_U_11
_atom_site_aniso_U_22
_atom_site_aniso_U_33
_atom_site_aniso_U_23
_atom_site_aniso_U_13
_atom_site_aniso_U_12
C1 0.0152(6) 0.0113(6) 0.0229(7) -0.0065(5) -0.0048(5) 0.0019(5)
C2 0.0119(6) 0.0099(5) 0.0116(6) -0.0019(4) -0.0020(4) -0.0012(4)
C3 0.0120(6) 0.0092(5) 0.0126(6) -0.0028(4) -0.0026(5) -0.0020(4)
C4 0.0149(6) 0.0171(6) 0.0180(6) -0.0068(5) -0.0049(5) 0.0010(5)
C5 0.0091(5) 0.0143(6) 0.0123(6) -0.0026(5) -0.0035(4) 0.0004(4)
C6 0.0185(6) 0.0156(6) 0.0175(6) -0.0013(5) -0.0047(5) -0.0002(5)
C7 0.0204(7) 0.0241(7) 0.0154(6) 0.0040(5) -0.0030(5) -0.0024(5)
C8 0.0158(6) 0.0323(8) 0.0110(6) -0.0042(5) -0.0018(5) 0.0021(5)
C9 0.0135(6) 0.0223(7) 0.0156(6) -0.0083(5) -0.0048(5) 0.0037(5)
C10 0.0106(6) 0.0141(6) 0.0130(6) -0.0020(5) -0.0040(5) 0.0010(4)
N1 0.0157(5) 0.0126(5) 0.0159(5) -0.0046(4) -0.0051(4) 0.0010(4)
O1 0.0161(4) 0.0156(4) 0.0168(5) -0.0022(4) -0.0079(4) 0.0006(3)
O2 0.0137(4) 0.0193(5) 0.0146(5) -0.0013(4) -0.0001(4) -0.0029(4)
O3 0.0243(5) 0.0152(5) 0.0137(5) -0.0027(4) 0.0006(4) -0.0021(4)
O4 0.0568(8) 0.0127(5) 0.0245(6) -0.0093(4) -0.0047(5) 0.0009(5)
S1 0.00958(15) 0.00996(16) 0.01146(16) -0.00217(11) -0.00256(11) 0.00016(10)
loop_
_atom_type_symbol
_atom_type_description
_atom_type_scat_dispersion_real
_atom_type_scat_dispersion_imag
_atom_type_scat_source
C C 0.0033 0.0016 'International Tables Vol C Tables 4.2.6.8 and 6.1.1.4'
S S 0.1246 0.1234 'International Tables Vol C Tables 4.2.6.8 and 6.1.1.4'
O O 0.0106 0.0060 'International Tables Vol C Tables 4.2.6.8 and 6.1.1.4'
H H 0.0000 0.0000 'International Tables Vol C Tables 4.2.6.8 and 6.1.1.4'
N N 0.0061 0.0033 'International Tables Vol C Tables 4.2.6.8 and 6.1.1.4'
loop_
_geom_angle_atom_site_label_1
_geom_angle_atom_site_label_2
_geom_angle_atom_site_label_3
_geom_angle
S1 C1 H1A 109.5
S1 C1 H1B 109.5
H1A C1 H1B 109.5
S1 C1 H1C 109.5
H1A C1 H1C 109.5
H1B C1 H1C 109.5
C3 C2 S1 112.59(8)
C3 C2 H2A 109.1
S1 C2 H2A 109.1
C3 C2 H2B 109.1
S1 C2 H2B 109.1
H2A C2 H2B 107.8
C4 C3 C5 120.26(11)
C4 C3 C2 120.87(11)
C5 C3 C2 118.72(10)
C3 C4 H4A 120.0
C3 C4 H4B 120.0
H4A C4 H4B 120.0
C6 C5 C10 116.29(11)
C6 C5 C3 117.89(11)
C10 C5 C3 125.81(11)
C7 C6 C5 121.56(13)
C7 C6 H6 119.2
C5 C6 H6 119.2
C8 C7 C6 120.40(13)
C8 C7 H7 119.8
C6 C7 H7 119.8
C9 C8 C7 119.85(12)
C9 C8 H8 120.1
C7 C8 H8 120.1
C8 C9 C10 119.02(12)
C8 C9 H9 120.5
C10 C9 H9 120.5
C9 C10 C5 122.87(12)
C9 C10 N1 115.87(11)
C5 C10 N1 121.20(11)
O4 N1 O3 122.35(11)
O4 N1 C10 118.66(11)
O3 N1 C10 118.97(10)
O2 S1 O1 117.58(5)
O2 S1 C1 108.90(6)
O1 S1 C1 107.92(6)
O2 S1 C2 109.16(6)
O1 S1 C2 107.39(6)
C1 S1 C2 105.19(6)
loop_
_geom_bond_atom_site_label_1
_geom_bond_atom_site_label_2
_geom_bond_distance
C1 S1 1.7592(13)
C1 H1A 0.9800
C1 H1B 0.9800
C1 H1C 0.9800
C2 C3 1.5101(16)
C2 S1 1.7867(12)
C2 H2A 0.9900
C2 H2B 0.9900
C3 C4 1.3277(18)
C3 C5 1.4956(17)
C4 H4A 0.9500
C4 H4B 0.9500
C5 C6 1.3960(18)
C5 C10 1.4031(17)
C6 C7 1.3897(19)
C6 H6 0.9500
C7 C8 1.386(2)
C7 H7 0.9500
C8 C9 1.382(2)
C8 H8 0.9500
C9 C10 1.3892(18)
C9 H9 0.9500
C10 N1 1.4697(16)
N1 O4 1.2237(15)
N1 O3 1.2299(14)
O1 S1 1.4464(9)
O2 S1 1.4414(9)
