#------------------------------------------------------------------------------
#$Date: 2017-11-07 02:39:52 +0200 (Tue, 07 Nov 2017) $
#$Revision: 202672 $
#$URL: file:///home/coder/svn-repositories/cod/cif/4/03/28/4032870.cif $
#------------------------------------------------------------------------------
#
# This file is available in the Crystallography Open Database (COD),
# http://www.crystallography.net/
#
# All data on this site have been placed in the public domain by the
# contributors.
#
data_4032870
loop_
_publ_author_name
'Ahmed, Basil M.'
'Rudell, Nicholas A.'
'Soto, Ixtlazihuatl'
'Mezei, Gellert'
_publ_section_title
;
 Reaction of Amines with Aldehydes and Ketones Revisited: Access To a
 Class of Non-Scorpionate Tris(pyrazolyl)methane and Related Ligands.
;
_journal_issue                   19
_journal_name_full               'The Journal of organic chemistry'
_journal_page_first              10549
_journal_page_last               10562
_journal_paper_doi               10.1021/acs.joc.7b02070
_journal_volume                  82
_journal_year                    2017
_chemical_formula_sum            'C10 H12 N8'
_chemical_formula_weight         244.28
_space_group_crystal_system      triclinic
_space_group_IT_number           2
_space_group_name_Hall           '-P 1'
_space_group_name_H-M_alt        'P -1'
_symmetry_space_group_name_Hall  '-P 1'
_symmetry_space_group_name_H-M   'P -1'
_atom_sites_solution_hydrogens   mixed
_audit_creation_method           SHELXL-2014/6
_cell_angle_alpha                80.792(2)
_cell_angle_beta                 86.831(2)
_cell_angle_gamma                76.742(2)
_cell_formula_units_Z            2
_cell_length_a                   4.71400(10)
_cell_length_b                   9.5506(3)
_cell_length_c                   12.6537(3)
_cell_measurement_reflns_used    2831
_cell_measurement_temperature    297(2)
_cell_measurement_theta_max      28.19
_cell_measurement_theta_min      2.94
_cell_volume                     547.26(3)
_computing_cell_refinement       'Bruker SAINT'
_computing_data_collection       'Bruker APEX2'
_computing_data_reduction        'Bruker SAINT'
_computing_molecular_graphics    'Bruker SHELXTL'
_computing_publication_material  'Bruker SHELXTL'
_computing_structure_refinement  'SHELXL-2014 (Sheldrick 2014)'
_computing_structure_solution    'SHELXS-97 (Sheldrick 2008)'
_diffrn_ambient_temperature      297(2)
_diffrn_measured_fraction_theta_full 0.999
_diffrn_measured_fraction_theta_max 0.994
_diffrn_measurement_device_type  'Bruker APEX-II CCD'
_diffrn_measurement_method       '\f and \w scans'
_diffrn_radiation_type           MoK\a
_diffrn_radiation_wavelength     0.71073
_diffrn_reflns_av_R_equivalents  0.0243
_diffrn_reflns_av_unetI/netI     0.0245
_diffrn_reflns_Laue_measured_fraction_full 0.999
_diffrn_reflns_Laue_measured_fraction_max 0.994
_diffrn_reflns_limit_h_max       6
_diffrn_reflns_limit_h_min       -6
_diffrn_reflns_limit_k_max       12
_diffrn_reflns_limit_k_min       -12
_diffrn_reflns_limit_l_max       16
_diffrn_reflns_limit_l_min       -16
_diffrn_reflns_number            9379
_diffrn_reflns_point_group_measured_fraction_full 0.999
_diffrn_reflns_point_group_measured_fraction_max 0.994
_diffrn_reflns_theta_full        25.242
_diffrn_reflns_theta_max         28.312
_diffrn_reflns_theta_min         2.216
_exptl_absorpt_coefficient_mu    0.102
_exptl_absorpt_correction_T_max  0.7457
_exptl_absorpt_correction_T_min  0.7049
_exptl_absorpt_correction_type   multi-scan
_exptl_absorpt_process_details   sadabs
_exptl_crystal_colour            colourless
_exptl_crystal_density_diffrn    1.482
_exptl_crystal_description       prism
_exptl_crystal_F_000             256
_exptl_crystal_size_max          0.240
_exptl_crystal_size_mid          0.180
_exptl_crystal_size_min          0.030
_refine_diff_density_max         0.233
_refine_diff_density_min         -0.206
_refine_diff_density_rms         0.049
_refine_ls_extinction_method     none
_refine_ls_goodness_of_fit_ref   1.074
_refine_ls_hydrogen_treatment    mixed
_refine_ls_matrix_type           full
_refine_ls_number_parameters     191
_refine_ls_number_reflns         2711
_refine_ls_number_restraints     7
_refine_ls_restrained_S_all      1.075
_refine_ls_R_factor_all          0.0550
_refine_ls_R_factor_gt           0.0395
_refine_ls_shift/su_max          0.000
_refine_ls_shift/su_mean         0.000
_refine_ls_structure_factor_coef Fsqd
_refine_ls_weighting_details
'w=1/[\s^2^(Fo^2^)+(0.0598P)^2^+0.1486P] where P=(Fo^2^+2Fc^2^)/3'
_refine_ls_weighting_scheme      calc
_refine_ls_wR_factor_gt          0.1025
_refine_ls_wR_factor_ref         0.1228
_reflns_Friedel_coverage         0.000
_reflns_number_gt                2112
_reflns_number_total             2711
_reflns_threshold_expression     'I > 2\s(I)'
_cod_data_source_file            jo7b02070_si_002.cif
_cod_data_source_block           2a
_cod_depositor_comments          'Adding full bibliography for 4032870.cif.'
_cod_database_code               4032870
_shelx_space_group_comment
;
The symmetry employed for this shelxl refinement is uniquely defined
by the following loop, which should always be used as a source of
symmetry information in preference to the above space-group names.
They are only intended as comments.
;
_shelx_estimated_absorpt_t_min   0.976
_shelx_estimated_absorpt_t_max   0.997
_shelxl_version_number           2014/6
_shelx_res_file
;
TITL GMNAR01_0m in P-1
CELL 0.71073 4.7140 9.5506 12.6537 80.792 86.831 76.742
ZERR 2.00 0.0001 0.0003 0.0003 0.002 0.002 0.002
LATT 1
SFAC C  H  N
UNIT 20  24  16
L.S. 12
ACTA
BOND $H
FMAP 2
PLAN 5
CONF
SIZE 0.030 0.180 0.240
DFIX 0.86 N2 H2N N3 H3A N3 H3B N5 H5N N6 H6A N6 H6B N8 H8N
TEMP 24.000
WGHT    0.059800    0.148600
FVAR       0.40656
N1    3   -0.176557    0.153357    0.077710    11.00000    0.04466    0.03743 =
         0.02770   -0.00709   -0.00139   -0.01405
N2    3   -0.211357    0.193752   -0.029162    11.00000    0.04530    0.04547 =
         0.02898   -0.01181   -0.00479   -0.00958
H2N   2   -0.323275    0.158943   -0.063987    11.00000    0.05774
N3    3    0.509137   -0.081998    0.182876    11.00000    0.03520    0.02824 =
         0.03788   -0.01227    0.00622   -0.00225
H3A   2    0.651906   -0.158228    0.209338    11.00000    0.06435
H3B   2    0.571680   -0.001930    0.158720    11.00000    0.05314
N4    3    0.227201   -0.177188    0.325058    11.00000    0.03856    0.02169 =
         0.03418   -0.00465    0.00011   -0.00035
N5    3   -0.002698   -0.119464    0.386719    11.00000    0.04443    0.02522 =
         0.03170   -0.00051    0.00521   -0.00375
H5N   2   -0.072197   -0.179434    0.438857    11.00000    0.05204
N6    3    0.213581    0.313570    0.438172    11.00000    0.03535    0.02584 =
         0.02947   -0.00724   -0.00359   -0.00113
H6A   2    0.240639    0.376134    0.479960    11.00000    0.05625
H6B   2    0.378799    0.287511    0.402611    11.00000    0.04820
N7    3   -0.205284    0.500381    0.390733    11.00000    0.03670    0.02433 =
         0.03248   -0.01005   -0.00296   -0.00071
N8    3   -0.395212    0.535616    0.308499    11.00000    0.03568    0.02246 =
         0.03690   -0.00854   -0.00440    0.00316
H8N   2   -0.539979    0.611048    0.309642    11.00000    0.04636
C1    1   -0.058590    0.292100   -0.069783    11.00000    0.04205    0.03784 =
         0.02665   -0.00174    0.00207    0.00189
AFIX  43
H1    2   -0.051395    0.334669   -0.141032    11.00000   -1.20000
AFIX   0
C2    1    0.085118    0.318354    0.013105    11.00000    0.04271    0.03171 =
         0.03258   -0.00162    0.00262   -0.00931
AFIX  43
H2    2    0.209709    0.381645    0.010148    11.00000   -1.20000
AFIX   0
C3    1    0.004867    0.229658    0.103490    11.00000    0.02913    0.01984 =
         0.02674   -0.00647    0.00234   -0.00090
C4    1    0.097664    0.217726    0.217466    11.00000    0.02846    0.01968 =
         0.02686   -0.00634    0.00021   -0.00355
AFIX  13
H4    2    0.300163    0.228141    0.213713    11.00000   -1.20000
AFIX   0
C5    1   -0.081370    0.025588    0.361644    11.00000    0.03771    0.02415 =
         0.03045   -0.00556    0.00331    0.00066
AFIX  43
H5    2   -0.231943    0.086486    0.394039    11.00000   -1.20000
AFIX   0
C6    1    0.098289    0.069002    0.279935    11.00000    0.03010    0.02006 =
         0.02379   -0.00599   -0.00288   -0.00154
C7    1    0.288296   -0.062379    0.261414    11.00000    0.02987    0.02146 =
         0.02652   -0.00709   -0.00287   -0.00289
C8    1   -0.323961    0.443396    0.236397    11.00000    0.03623    0.02206 =
         0.02990   -0.00564   -0.00296   -0.00384
AFIX  43
H8    2   -0.423681    0.447741    0.174137    11.00000   -1.20000
AFIX   0
C9    1   -0.077290    0.341473    0.271122    11.00000    0.03123    0.01735 =
         0.02664   -0.00526    0.00047   -0.00420
C10   1   -0.012939    0.383561    0.367610    11.00000    0.03068    0.01885 =
         0.02632   -0.00509    0.00092   -0.00420
HKLF 4 1 1 0 0 0 1 0 0 0 1

REM  GMNAR01_0m in P-1
REM R1 =  0.0395 for    2112 Fo > 4sig(Fo)  and  0.0550 for all    2711 data
REM    191 parameters refined using      7 restraints

END

WGHT      0.0598      0.1486

REM Highest difference peak  0.233,  deepest hole -0.206,  1-sigma level  0.049
Q1    1   0.0527  0.2206  0.1605  11.00000  0.05    0.23
Q2    1  -0.0015  0.2830  0.2462  11.00000  0.05    0.21
Q3    1   0.1136  0.1407  0.2524  11.00000  0.05    0.20
Q4    1  -0.1780  0.4009  0.4019  11.00000  0.05    0.20
Q5    1   0.0109  0.3027  0.0668  11.00000  0.05    0.20
;
_shelx_res_checksum              78139
_shelx_hkl_file
;
  -1   0   0  671.84    7.21
   1   0   0  677.72    7.29
   1   0   0  668.43    7.05
  -2   0   0    3.96    0.22
  -2   0   0    4.88    0.26
  -2   0   0    4.88    0.27
   2   0   0    4.22    0.19
   2   0   0    4.29    0.25
   2   0   0    4.54    0.26
   2   0   0    4.67    0.25
  -3   0   0    0.39    0.13
  -3   0   0   -0.01    0.09
  -3   0   0    0.10    0.12
   3   0   0    0.11    0.12
   3   0   0    0.06    0.07
   3   0   0    0.11    0.11
   3   0   0   -0.07    0.08
  -4   0   0    8.73    0.47
  -4   0   0    7.45    0.49
  -4   0   0    8.85    0.53
   4   0   0    7.55    0.50
   4   0   0    8.53    0.52
  -5   0   0    0.08    0.21
  -5   0   0    0.05    0.18
   5   0   0    0.06    0.20
   5   0   0    0.70    0.23
  -6   0   0    0.13    0.23
   5  -1   0    7.98    0.59
  -5   1   0    8.21    0.58
  -5   1   0    8.19    0.58
  -5   1   0    8.68    0.58
   4  -1   0    2.82    0.37
  -4   1   0    2.26    0.30
  -4   1   0    2.62    0.36
  -4   1   0    3.06    0.38
   3  -1   0    0.35    0.14
   3  -1   0    0.19    0.13
   3  -1   0    0.24    0.13
  -3   1   0    0.18    0.12
  -3   1   0    0.19    0.13
  -3   1   0    0.25    0.13
   2  -1   0    1.66    0.20
   2  -1   0    1.53    0.19
   2  -1   0    1.81    0.20
   2  -1   0    1.69    0.14
  -2   1   0    2.01    0.22
  -2   1   0    1.61    0.19
  -2   1   0    1.45    0.19
   1  -1   0    4.61    0.21
   1  -1   0    4.61    0.16
  -1   1   0    4.42    0.20
  -1   1   0    4.74    0.21
   0  -1   0    0.00    0.02
   1   1   0  116.52    1.49
   1   1   0  113.37    1.37
  -2  -1   0   13.34    0.35
  -2  -1   0   14.18    0.45
  -2  -1   0   13.39    0.44
   2   1   0   13.88    0.45
   2   1   0   14.40    0.37
   2   1   0   13.06    0.42
   2   1   0   13.78    0.45
  -3  -1   0   32.97    0.87
  -3  -1   0   34.38    0.88
  -3  -1   0   32.92    0.73
   3   1   0   33.57    0.70
   3   1   0   32.05    0.85
   3   1   0   34.59    0.87
   3   1   0   33.52    0.87
  -4  -1   0    1.54    0.23
  -4  -1   0    1.17    0.26
  -4  -1   0    1.24    0.26
   4   1   0    1.19    0.26
   4   1   0    1.56    0.27
  -5  -1   0    3.47    0.47
  -5  -1   0    3.16    0.44
   5   1   0    2.41    0.38
   5   1   0    2.45    0.40
  -6  -1   0    0.32    0.26
   6   1   0    0.73    0.31
   5  -2   0    1.05    0.32
  -5   2   0    0.85    0.28
  -5   2   0    1.01    0.28
   4  -2   0    4.33    0.46
  -4   2   0    4.27    0.45
  -4   2   0    4.76    0.47
  -4   2   0    4.64    0.46
   3  -2   0   41.21    1.03
   3  -2   0   42.27    0.95
  -3   2   0   41.61    0.96
  -3   2   0   40.81    1.02
  -3   2   0   40.58    1.01
   2  -2   0    0.17    0.10
   2  -2   0    0.17    0.09
   2  -2   0    0.16    0.07
  -2   2   0    0.03    0.10
  -2   2   0    0.01    0.09
   1  -2   0  592.88    6.20
  -1   2   0  597.67    6.23
  -1   2   0  620.31    6.21
   1   2   0   13.80    0.36
   1   2   0   14.16    0.38
  -2  -2   0    0.33    0.11
  -2  -2   0    0.27    0.06
   2   2   0    0.20    0.10
   2   2   0    0.19    0.09
   2   2   0    0.19    0.09
  -3  -2   0   39.39    0.96
  -3  -2   0   40.98    0.75
  -3  -2   0   40.68    0.99
   3   2   0   39.97    0.98
   3   2   0   41.31    0.84
   3   2   0   40.60    0.96
  -4  -2   0   32.25    1.00
  -4  -2   0   29.17    0.95
   4   2   0   31.58    0.96
   4   2   0   31.64    0.98
  -5  -2   0    2.33    0.38
  -5  -2   0    2.13    0.40
   5   2   0    1.71    0.35
   5   2   0    1.96    0.36
  -6  -2   0    0.51    0.30
  -6  -2   0    1.08    0.30
   6   2   0    0.55    0.30
   5  -3   0    5.38    0.60
  -5   3   0    5.63    0.63
   4  -3   0    7.25    0.52
  -4   3   0    7.48    0.54
  -4   3   0    7.29    0.53
   3  -3   0    8.10    0.46
   3  -3   0    7.92    0.40
  -3   3   0    7.92    0.47
  -3   3   0    7.87    0.47
  -3   3   0    7.80    0.50
   2  -3   0   45.78    0.82
   2  -3   0   44.60    0.82
   2  -3   0   45.99    0.99
  -2   3   0   43.39    0.96
  -2   3   0   42.56    0.98
  -2   3   0   45.49    0.80
  -2   3   0   44.49    0.81
   1  -3   0    3.66    0.24
  -1   3   0    3.56    0.24
  -1   3   0    3.91    0.25
  -1   3   0    3.31    0.20
   0  -3   0   35.65    0.67
   0   3   0   35.79    0.69
  -1  -3   0  118.01    1.55
   1   3   0  119.65    1.60
   1   3   0  119.80    1.62
  -2  -3   0   69.25    1.17
   2   3   0   68.75    1.15
   2   3   0   68.56    1.22
  -3  -3   0    1.32    0.23
   3   3   0    1.18    0.21
   3   3   0    1.10    0.21
  -4  -3   0    2.44    0.36
  -4  -3   0    1.90    0.33
   4   3   0    2.54    0.37
   4   3   0    2.44    0.33
  -5  -3   0   12.47    0.73
  -5  -3   0   12.18    0.71
   5   3   0   13.04    0.70
   5   3   0   12.48    0.71
  -6  -3   0    3.31    0.54
  -6  -3   0    3.03    0.49
   6   3   0    2.97    0.54
   6   3   0    3.71    0.56
   5  -4   0    0.15    0.23
  -5   4   0    0.30    0.23
   4  -4   0   19.32    0.86
  -4   4   0   17.01    0.79
  -4   4   0   17.34    0.84
   3  -4   0   15.65    0.68
  -3   4   0   15.63    0.70
  -3   4   0   14.90    0.68
   2  -4   0    0.01    0.12
   2  -4   0   -0.04    0.07
   2  -4   0    0.20    0.10
  -2   4   0   -0.03    0.08
  -2   4   0    0.07    0.09
  -2   4   0    0.08    0.15
  -2   4   0    0.20    0.13
   1  -4   0   19.53    0.59
  -1   4   0   19.07    0.53
  -1   4   0   19.50    0.59
  -1   4   0   19.49    0.58
   0  -4   0    0.09    0.09
   0   4   0    0.07    0.07
   0   4   0    0.32    0.12
   0   4   0   -0.09    0.06
  -1  -4   0   96.20    1.42
  -1  -4   0   99.33    1.41
   1   4   0   94.23    1.48
   1   4   0   95.06    1.48
   1   4   0   96.44    1.14
  -2  -4   0   32.81    0.76
   2   4   0   32.66    0.83
   2   4   0   33.63    0.80
  -3  -4   0   21.99    0.72
   3   4   0   21.00    0.66
   3   4   0   21.18    0.74
  -4  -4   0    2.35    0.35
  -4  -4   0    1.77    0.31
   4   4   0    2.13    0.29
   4   4   0    2.61    0.38
  -5  -4   0    0.07    0.19
  -5  -4   0    0.10    0.22
   5   4   0    0.11    0.20
  -6  -4   0    3.26    0.55
  -6  -4   0    2.66    0.47
   6   4   0    2.87    0.50
  -5   5   0    0.52    0.27
   4  -5   0    2.10    0.37
  -4   5   0    1.91    0.38
   3  -5   0   10.00    0.58
  -3   5   0   10.81    0.62
  -3   5   0   10.68    0.61
   2  -5   0    2.13    0.31
   2  -5   0    1.80    0.24
  -2   5   0    2.74    0.35
  -2   5   0    2.39    0.27
  -2   5   0    2.24    0.33
   1  -5   0    9.89    0.47
  -1   5   0    9.11    0.43
  -1   5   0   10.24    0.42
  -1   5   0    9.41    0.47
   0  -5   0   20.14    0.60
   0   5   0   20.58    0.60
   0   5   0   19.97    0.62
   0   5   0   19.43    0.54
  -1  -5   0    0.73    0.12
  -1  -5   0    0.40    0.14
   1   5   0    0.97    0.20
   1   5   0    0.68    0.10
  -2  -5   0   29.88    0.78
  -2  -5   0   30.39    0.74
   2   5   0   29.54    0.81
   2   5   0   28.89    0.83
  -3  -5   0    3.22    0.36
   3   5   0    3.13    0.37
   3   5   0    2.65    0.33
  -4  -5   0    3.58    0.44
   4   5   0    4.03    0.42
   4   5   0    4.16    0.49
  -5  -5   0   -0.15    0.15
  -5  -5   0    0.06    0.20
   5   5   0    0.43    0.24
  -6  -5   0    0.08    0.23
  -6  -5   0    0.19    0.24
   6   5   0    0.54    0.30
   4  -6   0    0.58    0.28
  -4   6   0    0.49    0.29
   3  -6   0    2.87    0.40
  -3   6   0    2.99    0.43
  -3   6   0    3.20    0.45
   2  -6   0   12.18    0.61
  -2   6   0   12.09    0.53
  -2   6   0   13.25    0.64
  -2   6   0   13.23    0.65
   1  -6   0    0.36    0.18
  -1   6   0    0.50    0.16
  -1   6   0    1.05    0.25
  -1   6   0    0.73    0.18
   0  -6   0   17.44    0.61
   0   6   0   17.66    0.56
   0   6   0   17.35    0.61
   0   6   0   16.81    0.64
  -1  -6   0   46.83    1.03
  -1  -6   0   45.19    0.78
   1   6   0   43.52    1.07
   1   6   0   46.63    0.80
  -2  -6   0   48.77    0.99
  -2  -6   0   48.22    1.10
   2   6   0   49.17    1.16
   2   6   0   48.44    1.17
  -3  -6   0   24.35    0.79
   3   6   0   24.29    0.83
   3   6   0   23.74    0.87
  -4  -6   0    4.16    0.46
   4   6   0    4.46    0.52
   4   6   0    4.80    0.47
  -5  -6   0   10.48    0.72
  -5  -6   0   10.43    0.70
   5   6   0   10.73    0.73
  -6  -6   0    0.06    0.26
  -6  -6   0    0.10    0.26
   6   6   0    0.63    0.35
   4  -7   0    4.12    0.82
  -4   7   0    3.30    0.54
   3  -7   0    2.71    0.43
  -3   7   0    3.69    0.52
  -3   7   0    2.83    0.42
   2  -7   0    5.39    0.52
  -2   7   0    5.49    0.40
  -2   7   0    4.89    0.52
  -2   7   0    4.83    0.50
   1  -7   0   11.18    0.58
  -1   7   0    9.09    0.49
  -1   7   0   10.57    0.57
  -1   7   0   10.46    0.55
   0  -7   0   22.83    0.77
   0   7   0   23.03    0.70
   0   7   0   22.53    0.76
   0   7   0   23.28    0.81
  -1  -7   0    1.68    0.27
   1   7   0    1.66    0.29
  -2  -7   0    0.66    0.21
  -2  -7   0    0.38    0.15
   2   7   0    0.46    0.20
  -3  -7   0   -0.07    0.12
  -3  -7   0    0.04    0.14
   3   7   0   -0.14    0.11
   3   7   0    0.00    0.16
  -4  -7   0   -0.06    0.19
   4   7   0   -0.01    0.17
   4   7   0   -0.01    0.16
  -5  -7   0    3.29    0.50
   5   7   0    3.05    0.51
   3  -8   0    0.57    0.25
  -3   8   0    0.63    0.28
   2  -8   0    2.56    0.39
  -2   8   0    1.93    0.37
  -2   8   0    2.56    0.42
   1  -8   0    0.67    0.26
  -1   8   0    1.04    0.25
  -1   8   0    0.93    0.24
  -1   8   0    0.92    0.27
   0  -8   0   17.46    0.73
   0   8   0   17.73    0.76
   0   8   0   17.65    0.70
  -1  -8   0   26.44    0.89
   1   8   0   25.26    0.92
  -2  -8   0   31.20    0.96
   2   8   0   29.57    1.03
  -3  -8   0   14.05    0.69
  -3  -8   0   13.19    0.60
   3   8   0   13.94    0.74
  -4  -8   0    0.81    0.25
  -4  -8   0    0.48    0.24
   4   8   0    0.66    0.26
   4   8   0    0.41    0.23
  -5  -8   0    6.45    0.67
   5   8   0    6.84    0.74
  -3   9   0   -0.03    0.20
   2  -9   0    0.23    0.20
  -2   9   0   -0.22    0.18
  -2   9   0    0.55    0.26
   1  -9   0    0.13    0.22
  -1   9   0    0.29    0.21
  -1   9   0    0.24    0.18
   0  -9   0   -0.04    0.17
   0   9   0    0.14    0.18
   0   9   0    0.42    0.20
  -1  -9   0    1.61    0.34
   1   9   0    0.86    0.26
  -2  -9   0   36.95    1.14
   2   9   0   36.52    1.22
  -3  -9   0   13.58    0.75
   3   9   0   14.33    0.80
  -4  -9   0   -0.16    0.15
  -4  -9   0    0.09    0.23
   4   9   0    0.66    0.29
  -5  -9   0    0.49    0.25
   5   9   0    0.16    0.24
   2 -10   0    1.05    0.32
  -2  10   0    1.02    0.33
   1 -10   0    6.86    0.66
  -1  10   0    7.60    0.73
  -1  10   0    5.55    0.57
   0 -10   0    0.39    0.24
   0  10   0   -0.12    0.18
  -1 -10   0    0.45    0.23
   1  10   0    0.34    0.23
  -2 -10   0    0.17    0.22
   2  10   0    1.05    0.32
  -3 -10   0    0.61    0.26
   3  10   0    0.71    0.27
  -4 -10   0    3.42    0.52
   4  10   0    3.65    0.57
   1 -11   0    1.89    0.42
  -1  11   0    2.50    0.48
   0 -11   0    2.01    0.41
   0  11   0    1.57    0.40
  -1 -11   0   23.58    1.00
   1  11   0   24.35    1.08
  -2 -11   0    0.43    0.25
   2  11   0    0.31    0.25
  -3 -11   0    0.24    0.27
   3  11   0    0.01    0.21
   4  11   0    0.37    0.21
   0  12   0   -0.07    0.22
  -1 -12   0    2.22    0.43
   1  12   0    2.55    0.49
  -2 -12   0    0.36    0.25
   2  12   0   -0.04    0.23
   3  12   0    0.59    0.28
   2  12  -1    0.54    0.27
   1  12  -1    4.54    0.61
   0  12  -1    0.10    0.23
   4  11  -1    0.21    0.23
   3  11  -1    7.40    0.78
  -3 -11   1    5.30    0.61
   2  11  -1    1.97    0.42
  -2 -11   1    1.99    0.41
   1  11  -1    2.67    0.47
  -1 -11   1    3.07    0.48
   0  11  -1    0.45    0.25
   0 -11   1   -0.06    0.22
   1 -11   1    0.92    0.35
   4  10  -1    1.03    0.35
  -4 -10   1    0.72    0.32
   3  10  -1    0.29    0.23
  -3 -10   1    0.28    0.23
   2  10  -1    0.32    0.20
  -2 -10   1    0.21    0.22
   1  10  -1    0.10    0.20
  -1 -10   1    0.81    0.27
   0  10  -1    8.47    0.61
   0 -10   1    9.76    0.65
  -1  10  -1    3.24    0.47
  -1  10  -1    2.77    0.43
   1 -10   1    3.32    0.50
  -2  10  -1    0.81    0.31
   2 -10   1    1.36    0.37
   5   9  -1    2.14    0.47
  -5  -9   1    0.65    0.30
   4   9  -1    0.21    0.22
  -4  -9   1    0.34    0.23
   3   9  -1    0.05    0.19
  -3  -9   1   -0.33    0.15
   2   9  -1    1.94    0.37
  -2  -9   1    1.38    0.31
   1   9  -1    1.64    0.32
  -1  -9   1    0.65    0.25
   0   9  -1    5.54    0.57
   0   9  -1    7.27    0.55
   0   9  -1    6.18    0.59
   0  -9   1    5.80    0.56
  -1   9  -1   13.09    0.69
  -1   9  -1   11.91    0.70
  -1   9  -1   12.74    0.68
   1  -9   1   12.92    0.72
  -2   9  -1    0.09    0.17
  -2   9  -1   -0.05    0.20
   2  -9   1    0.01    0.20
  -3   9  -1    0.16    0.22
   5   8  -1    0.08    0.24
  -5  -8   1    0.03    0.23
   4   8  -1   -0.13    0.19
  -4  -8   1   -0.18    0.15
  -4  -8   1   -0.25    0.18
   3   8  -1    0.04    0.14
  -3  -8   1    0.20    0.18
   2   8  -1    8.00    0.53
  -2  -8   1    7.01    0.50
   1   8  -1   59.11    1.40
   1   8  -1   61.74    1.47
  -1  -8   1   59.14    1.40
   0   8  -1   11.79    0.54
   0   8  -1    9.96    0.56
   0   8  -1   10.09    0.58
   0  -8   1   10.74    0.58
  -1   8  -1    3.95    0.44
  -1   8  -1    3.86    0.45
  -1   8  -1    3.59    0.44
   1  -8   1    4.31    0.48
  -2   8  -1    0.14    0.21
  -2   8  -1    0.06    0.20
  -2   8  -1    0.01    0.16
   2  -8   1   -0.03    0.16
  -3   8  -1    3.46    0.52
   3  -8   1    2.86    0.46
   5   7  -1    1.07    0.34
  -5  -7   1    0.59    0.27
  -5  -7   1    0.48    0.26
   4   7  -1   20.96    0.96
  -4  -7   1   22.51    0.89
   3   7  -1   12.01    0.67
  -3  -7   1   14.74    0.67
  -3  -7   1   12.17    0.58
   2   7  -1    0.68    0.20
  -2  -7   1    0.49    0.14
  -2  -7   1    0.48    0.20
   1   7  -1    0.83    0.20
   1   7  -1    0.90    0.22
  -1  -7   1    0.96    0.22
   0   7  -1    0.01    0.14
   0   7  -1    0.15    0.13
   0   7  -1    0.38    0.14
   0  -7   1    0.02    0.14
  -1   7  -1    4.21    0.41
  -1   7  -1    4.47    0.44
  -1   7  -1    4.53    0.45
   1  -7   1    4.64    0.46
  -2   7  -1    0.32    0.21
  -2   7  -1    0.22    0.21
  -2   7  -1    0.15    0.14
   2  -7   1    0.23    0.20
   2  -7   1    0.28    0.18
  -3   7  -1    0.00    0.19
   3  -7   1    0.13    0.20
  -4   7  -1    1.42    0.39
  -6  -6   1    0.73    0.34
   5   6  -1    0.67    0.29
  -5  -6   1    0.11    0.18
  -5  -6   1    0.19    0.22
   4   6  -1   17.31    0.83
   4   6  -1   16.49    0.72
  -4  -6   1   15.25    0.73
   3   6  -1    3.40    0.39
   3   6  -1    3.15    0.40
  -3  -6   1    4.43    0.35
   2   6  -1   13.40    0.61
  -2  -6   1   12.71    0.47
  -2  -6   1   11.95    0.54
   1   6  -1    6.84    0.29
   1   6  -1    6.81    0.38
   1   6  -1    5.92    0.40
  -1  -6   1    6.57    0.26
  -1  -6   1    6.06    0.38
   0   6  -1    8.92    0.46
   0   6  -1    9.53    0.42
   0   6  -1    8.78    0.44
   0  -6   1    9.85    0.48
  -1   6  -1   90.01    1.63
  -1   6  -1   89.32    1.59
  -1   6  -1   89.44    1.63
   1  -6   1   87.43    1.64
  -2   6  -1   73.82    1.55
  -2   6  -1   74.71    1.45
  -2   6  -1   76.15    1.64
   2  -6   1   77.29    1.62
  -3   6  -1   25.50    0.99
   3  -6   1   22.23    0.91
  -4   6  -1   -0.09    0.17
   4  -6   1    0.19    0.21
   6   5  -1    0.41    0.33
  -6  -5   1    0.40    0.25
  -6  -5   1    0.42    0.28
   5   5  -1    5.17    0.63
  -5  -5   1    4.10    0.52
  -5  -5   1    4.04    0.52
   4   5  -1    0.13    0.17
  -4  -5   1    0.01    0.14
   3   5  -1    0.42    0.18
   3   5  -1   -0.09    0.11
  -3  -5   1    0.09    0.14
   2   5  -1   50.44    1.16
  -2  -5   1   51.48    1.09
  -2  -5   1   52.14    1.00
   1   5  -1   17.08    0.55
   1   5  -1   15.81    0.40
   1   5  -1   16.93    0.58
  -1  -5   1   16.62    0.55
  -1  -5   1   15.89    0.41
   0   5  -1   15.19    0.54
   0   5  -1   14.84    0.48
   0   5  -1   15.45    0.52
   0  -5   1   15.27    0.54
  -1   5  -1    8.94    0.45
  -1   5  -1    9.61    0.45
  -1   5  -1    9.45    0.42
   1  -5   1    8.89    0.46
  -2   5  -1    7.09    0.45
  -2   5  -1    6.08    0.43
  -2   5  -1    6.02    0.35
   2  -5   1    5.59    0.41
  -3   5  -1    0.42    0.20
  -3   5  -1    0.48    0.23
   3  -5   1    0.25    0.20
  -4   5  -1    2.35    0.41
   4  -5   1    1.89    0.36
  -5   5  -1    0.35    0.26
   6   4  -1    1.31    0.38
  -6  -4   1    0.75    0.34
  -6  -4   1    0.89    0.32
   5   4  -1    8.09    0.61
  -5  -4   1    5.81    0.60
  -5  -4   1    6.51    0.54
   4   4  -1    3.86    0.45
  -4  -4   1    3.71    0.42
  -4  -4   1    3.34    0.42
   3   4  -1    7.72    0.47
   3   4  -1    6.63    0.43
  -3  -4   1    6.86    0.42
   2   4  -1   34.36    0.87
   2   4  -1   35.29    0.83
  -2  -4   1   34.85    0.48
  -2  -4   1   34.77    0.78
   1   4  -1   32.70    0.55
   1   4  -1   33.32    0.71
   1   4  -1   33.81    0.77
  -1  -4   1   31.75    0.73
   0   4  -1    1.63    0.20
   0   4  -1    1.90    0.18
   0   4  -1    1.85    0.21
   0  -4   1    1.83    0.22
  -1   4  -1  106.17    1.54
  -1   4  -1  101.36    1.61
  -1   4  -1  102.18    1.56
   1  -4   1  102.81    1.61
  -2   4  -1    1.54    0.26
  -2   4  -1    1.79    0.27
  -2   4  -1    2.05    0.23
   2  -4   1    1.83    0.29
   2  -4   1    1.36    0.24
  -3   4  -1    4.51    0.46
  -3   4  -1    4.47    0.47
   3  -4   1    4.68    0.47
  -4   4  -1    0.81    0.28
   4  -4   1    0.88    0.25
  -5   4  -1    0.22    0.25
   5  -4   1    0.86    0.31
   6   3  -1    1.51    0.41
  -6  -3   1    0.68    0.28
  -6  -3   1    0.84    0.34
   5   3  -1    6.89    0.63
   5   3  -1    6.65    0.55
  -5  -3   1    6.50    0.64
  -5  -3   1    6.38    0.64
   4   3  -1   15.42    0.71
   4   3  -1   14.86    0.67
  -4  -3   1   14.86    0.70
  -4  -3   1   15.38    0.71
   3   3  -1    2.70    0.31
   3   3  -1    3.30    0.37
   3   3  -1    2.90    0.28
  -3  -3   1    2.41    0.18
  -3  -3   1    2.65    0.32
   2   3  -1   21.87    0.59
   2   3  -1   21.05    0.56
   2   3  -1   21.36    0.63
  -2  -3   1   21.69    0.37
   1   3  -1   45.80    0.63
   1   3  -1   46.93    0.86
  -1  -3   1   47.41    0.83
   0   3  -1   40.81    0.70
   0   3  -1   42.10    0.75
   0   3  -1   40.85    0.74
   0  -3   1   40.44    0.75
  -1   3  -1   14.60    0.44
  -1   3  -1   14.87    0.48
  -1   3  -1   15.84    0.44
   1  -3   1   15.12    0.48
  -2   3  -1   34.96    0.71
  -2   3  -1   32.72    0.85
  -2   3  -1   33.75    0.81
  -2   3  -1   33.68    0.67
   2  -3   1   32.58    0.74
   2  -3   1   33.07    0.84
  -3   3  -1    5.04    0.38
  -3   3  -1    4.44    0.31
  -3   3  -1    5.08    0.39
   3  -3   1    4.82    0.45
  -4   3  -1    0.28    0.21
  -4   3  -1    0.46    0.25
   4  -3   1    0.34    0.19
  -5   3  -1    1.09    0.32
   5  -3   1    0.71    0.27
   6   2  -1    2.47    0.48
  -6  -2   1    2.97    0.49
  -6  -2   1    2.08    0.44
   5   2  -1    2.13    0.38
   5   2  -1    1.44    0.31
  -5  -2   1    1.07    0.31
  -5  -2   1    2.08    0.38
   4   2  -1    9.68    0.56
   4   2  -1   10.48    0.56
   4   2  -1   10.71    0.58
  -4  -2   1   10.82    0.60
  -4  -2   1   10.59    0.58
   3   2  -1   14.36    0.55
   3   2  -1   14.57    0.45
   3   2  -1   13.62    0.56
   3   2  -1   14.23    0.58
  -3  -2   1   13.81    0.56
  -3  -2   1   14.19    0.42
  -3  -2   1   14.85    0.58
   2   2  -1    0.85    0.15
   2   2  -1    0.74    0.14
   2   2  -1    1.22    0.15
   2   2  -1    0.98    0.17
  -2  -2   1    1.10    0.11
  -2  -2   1    0.88    0.15
   1   2  -1  393.17    3.90
   1   2  -1  392.06    4.12
   1   2  -1  400.32    4.18
  -1  -2   1  385.33    3.89
   0   2  -1  783.91    8.52
   0  -2   1  800.17    8.67
  -1   2  -1    0.44    0.12
  -1   2  -1    0.55    0.11
   1  -2   1    0.45    0.12
  -2   2  -1   26.20    0.69
  -2   2  -1   25.25    0.59
  -2   2  -1   25.98    0.65
   2  -2   1   25.60    0.59
   2  -2   1   24.90    0.67
  -3   2  -1    4.54    0.34
  -3   2  -1    4.09    0.40
   3  -2   1    4.50    0.35
   3  -2   1    4.66    0.30
  -4   2  -1   15.77    0.72
  -4   2  -1   17.45    0.72
  -4   2  -1   16.56    0.68
   4  -2   1   15.95    0.73
  -5   2  -1    0.13    0.21
   5  -2   1    0.23    0.20
   6   1  -1    1.46    0.44
  -6  -1   1    1.59    0.38
  -6  -1   1    1.54    0.39
   5   1  -1    1.21    0.31
   5   1  -1    0.88    0.31
  -5  -1   1    0.80    0.29
  -5  -1   1    1.03    0.28
   4   1  -1    2.98    0.37
   4   1  -1    3.38    0.40
   4   1  -1    2.65    0.35
  -4  -1   1    3.34    0.40
  -4  -1   1    3.60    0.35
  -4  -1   1    3.27    0.40
   3   1  -1   22.32    0.52
   3   1  -1   21.71    0.69
   3   1  -1   21.57    0.68
   3   1  -1   22.15    0.71
  -3  -1   1   22.01    0.58
  -3  -1   1   21.58    0.71
  -3  -1   1   22.47    0.72
   2   1  -1    5.13    0.20
   2   1  -1    4.91    0.26
   2   1  -1    4.54    0.27
   2   1  -1    4.91    0.27
  -2  -1   1    4.20    0.21
  -2  -1   1    4.69    0.27
  -2  -1   1    4.21    0.26
   1   1  -1  678.97    7.03
   1   1  -1  682.74    6.82
   1   1  -1  678.26    6.76
   1   1  -1  672.22    7.23
  -1  -1   1  677.03    6.83
   0   1  -1  144.33    1.54
   0  -1   1  141.79    1.54
  -1   1  -1  232.30    2.58
   1  -1   1  231.49    2.57
  -2   1  -1    1.72    0.20
  -2   1  -1    1.40    0.18
  -2   1  -1    0.99    0.16
   2  -1   1    2.04    0.21
   2  -1   1    1.42    0.16
   2  -1   1    1.72    0.20
  -3   1  -1    0.16    0.12
  -3   1  -1    0.10    0.11
  -3   1  -1   -0.11    0.08
   3  -1   1   -0.01    0.09
   3  -1   1    0.12    0.09
   3  -1   1    0.12    0.13
  -4   1  -1    0.02    0.13
  -4   1  -1    0.39    0.18
  -4   1  -1    0.23    0.17
   4  -1   1   -0.11    0.13
  -5   1  -1    1.29    0.32
  -5   1  -1    0.84    0.27
   5  -1   1    0.94    0.29
  -6   0   1    0.42    0.28
  -6   0   1    0.41    0.27
   5   0  -1    0.78    0.28
   5   0  -1    0.20    0.23
  -5   0   1    0.28    0.21
  -5   0   1    0.64    0.27
   4   0  -1    0.14    0.16
   4   0  -1   -0.14    0.11
   4   0  -1    0.02    0.12
  -4   0   1   -0.01    0.15
  -4   0   1   -0.04    0.13
  -4   0   1   -0.12    0.12
   3   0  -1   23.43    0.71
   3   0  -1   22.59    0.70
   3   0  -1   22.78    0.73
  -3   0   1   23.65    0.72
  -3   0   1   23.15    0.73
  -3   0   1   23.19    0.66
   2   0  -1   57.19    1.01
   2   0  -1   56.92    1.02
   2   0  -1   56.83    0.76
   2   0  -1   56.93    1.01
  -2   0   1   58.39    1.02
  -2   0   1   58.65    0.96
  -2   0   1   56.48    1.02
   1   0  -1    2.25    0.15
   1   0  -1    1.98    0.13
  -1   0   1    2.02    0.12
  -1   0   1    2.33    0.15
  -1   0  -1    0.26    0.07
   1   0   1    0.20    0.07
  -2   0  -1    4.83    0.25
  -2   0  -1    5.21    0.27
  -2   0  -1    4.71    0.24
   2   0   1    4.62    0.24
   2   0   1    5.32    0.28
   2   0   1    4.74    0.23
  -3   0  -1    3.32    0.26
  -3   0  -1    3.02    0.25
  -3   0  -1    2.89    0.30
   3   0   1    3.18    0.23
   3   0   1    2.69    0.28
   3   0   1    3.64    0.35
  -4   0  -1    3.98    0.39
  -4   0  -1    3.64    0.41
  -4   0  -1    3.24    0.38
   4   0   1    2.50    0.33
   4   0   1    3.21    0.38
  -5   0  -1    4.64    0.54
  -5   0  -1    3.88    0.48
   5   0   1    4.10    0.49
   5   0   1    3.66    0.49
  -6   0  -1    0.61    0.32
   5  -1  -1    3.43    0.47
  -5   1   1    5.00    0.51
  -5   1   1    5.03    0.56
  -5   1   1    4.63    0.55
   4  -1  -1   36.19    1.09
   4  -1  -1   36.48    1.05
   4  -1  -1   34.61    1.06
  -4   1   1   36.67    1.06
  -4   1   1   36.17    1.10
  -4   1   1   36.89    1.03
   3  -1  -1    2.31    0.30
   3  -1  -1    2.24    0.28
   3  -1  -1    1.89    0.26
  -3   1   1    1.91    0.26
  -3   1   1    1.68    0.26
  -3   1   1    2.24    0.27
   2  -1  -1  113.58    1.30
   2  -1  -1  109.44    1.66
   2  -1  -1  113.42    1.63
   2  -1  -1  115.76    1.60
  -2   1   1  113.99    1.68
  -2   1   1  114.66    1.61
  -2   1   1  113.29    1.62
   1  -1  -1  122.15    1.49
  -1   1   1  122.91    1.54
  -1   1   1  120.91    1.51
   0   1   1   -0.79    0.06
  -1  -1  -1  457.86    4.62
   1   1   1  469.55    4.71
   1   1   1  460.69    4.67
  -2  -1  -1    6.29    0.28
  -2  -1  -1    6.17    0.24
  -2  -1  -1    6.38    0.30
   2   1   1    5.76    0.28
   2   1   1    6.33    0.28
  -3  -1  -1   43.07    1.00
  -3  -1  -1   44.29    0.98
  -3  -1  -1   44.25    0.87
   3   1   1   43.30    1.00
   3   1   1   42.62    0.86
   3   1   1   43.66    0.98
  -4  -1  -1    0.52    0.20
  -4  -1  -1    0.04    0.12
  -4  -1  -1    0.43    0.16
   4   1   1    0.30    0.16
   4   1   1    0.34    0.16
  -5  -1  -1    6.14    0.51
  -5  -1  -1    5.73    0.59
   5   1   1    5.62    0.58
   5   1   1    5.33    0.55
  -6  -1  -1    1.92    0.45
   5  -2  -1    0.16    0.18
  -5   2   1    0.41    0.23
  -5   2   1    0.01    0.19
  -5   2   1   -0.12    0.16
   4  -2  -1   18.13    0.77
   4  -2  -1   19.59    0.75
  -4   2   1   18.28    0.74
  -4   2   1   19.52    0.78
  -4   2   1   18.68    0.79
   3  -2  -1    1.59    0.23
   3  -2  -1    1.80    0.27
  -3   2   1    1.79    0.27
  -3   2   1    2.04    0.29
  -3   2   1    1.97    0.26
   2  -2  -1   21.38    0.43
   2  -2  -1   21.86    0.56
   2  -2  -1   21.50    0.61
  -2   2   1   21.72    0.63
  -2   2   1   20.99    0.61
  -2   2   1   20.99    0.67
   1  -2  -1  509.77    5.27
  -1   2   1  506.36    5.33
  -1   2   1  504.06    5.31
   0  -2  -1   11.94    0.29
   0   2   1   11.42    0.29
   0   2   1   12.08    0.33
   1   2   1   -0.01    0.07
   1   2   1   -0.05    0.06
  -2  -2  -1    1.57    0.21
  -2  -2  -1    1.52    0.11
   2   2   1    1.41    0.19
   2   2   1    1.48    0.18
   2   2   1    1.61    0.18
  -3  -2  -1   16.99    0.61
  -3  -2  -1   16.66    0.45
  -3  -2  -1   17.17    0.60
   3   2   1   17.96    0.61
   3   2   1   17.82    0.60
  -4  -2  -1   11.84    0.59
  -4  -2  -1   12.29    0.62
   4   2   1   11.51    0.59
   4   2   1   11.13    0.58
  -5  -2  -1   -0.03    0.18
  -5  -2  -1    0.59    0.26
   5   2   1    0.06    0.20
   5   2   1    0.45    0.23
  -6  -2  -1    4.84    0.63
   6   2   1    4.62    0.65
   5  -3  -1    0.78    0.30
  -5   3   1    0.53    0.28
  -5   3   1    0.06    0.20
   4  -3  -1    0.21    0.16
   4  -3  -1    0.01    0.14
  -4   3   1    0.34    0.21
  -4   3   1    0.41    0.22
  -4   3   1   -0.02    0.14
   3  -3  -1    0.04    0.11
   3  -3  -1    0.04    0.14
  -3   3   1    0.61    0.19
  -3   3   1    0.44    0.19
   2  -3  -1    4.12    0.24
   2  -3  -1    4.36    0.22
   2  -3  -1    4.15    0.29
  -2   3   1    4.61    0.32
  -2   3   1    4.05    0.25
  -2   3   1    4.65    0.32
   1  -3  -1    1.72    0.19
  -1   3   1    1.62    0.21
  -1   3   1    1.39    0.18
   0  -3  -1    4.10    0.22
   0   3   1    4.01    0.22
   0   3   1    4.19    0.24
   1   3   1  122.14    1.64
   1   3   1  125.95    1.66
  -2  -3  -1  116.23    1.68
   2   3   1  115.52    1.66
   2   3   1  113.77    1.69
  -3  -3  -1   14.99    0.59
   3   3   1   15.76    0.57
   3   3   1   15.51    0.54
   3   3   1   16.30    0.60
  -4  -3  -1   10.71    0.59
  -4  -3  -1    9.66    0.54
   4   3   1    9.56    0.54
   4   3   1    9.98    0.49
   4   3   1   10.36    0.56
  -5  -3  -1    0.15    0.18
  -5  -3  -1    0.12    0.20
   5   3   1    0.01    0.17
   5   3   1   -0.14    0.15
  -6  -3  -1    0.45    0.29
  -6  -3  -1    0.73    0.30
   6   3   1    0.47    0.30
   6   3   1    0.45    0.29
   5  -4  -1    0.86    0.29
  -5   4   1    0.25    0.23
   4  -4  -1   17.63    0.81
  -4   4   1   17.57    0.84
  -4   4   1   19.08    0.86
   3  -4  -1   48.62    1.23
  -3   4   1   48.26    1.25
  -3   4   1   47.56    1.24
   2  -4  -1   67.39    1.32
   2  -4  -1   67.01    1.10
   2  -4  -1   65.79    1.08
  -2   4   1   68.30    1.11
  -2   4   1   66.41    1.35
  -2   4   1   66.15    1.37
  -2   4   1   65.31    1.09
   1  -4  -1    2.00    0.24
  -1   4   1    2.16    0.24
  -1   4   1    2.02    0.26
  -1   4   1    2.19    0.22
   0  -4  -1    0.74    0.14
   0   4   1    0.60    0.16
   0   4   1    0.79    0.16
  -1  -4  -1    0.46    0.12
  -1  -4  -1    0.67    0.12
   1   4   1    0.50    0.07
   1   4   1    0.68    0.15
   1   4   1    0.62    0.15
  -2  -4  -1   16.16    0.53
   2   4   1   15.75    0.55
   2   4   1   15.14    0.53
  -3  -4  -1   16.79    0.63
   3   4   1   17.20    0.61
   3   4   1   16.12    0.63
  -4  -4  -1    6.72    0.49
  -4  -4  -1    5.89    0.46
   4   4   1    6.44    0.48
  -5  -4  -1    0.39    0.22
  -5  -4  -1    0.25    0.23
   5   4   1    0.26    0.20
  -6  -4  -1    7.46    0.63
  -6  -4  -1    6.84    0.75
   6   4   1    8.96    0.68
  -5   5   1    5.64    0.67
   4  -5  -1    0.53    0.23
  -4   5   1    1.24    0.34
  -4   5   1    0.89    0.30
   3  -5  -1   10.40    0.59
  -3   5   1    9.53    0.61
  -3   5   1   11.16    0.62
   2  -5  -1    6.12    0.41
  -2   5   1    6.21    0.43
  -2   5   1    6.67    0.35
  -2   5   1    7.28    0.48
   1  -5  -1    0.26    0.15
  -1   5   1    0.22    0.14
  -1   5   1    0.28    0.11
  -1   5   1    0.23    0.13
   0  -5  -1    7.68    0.36
   0   5   1    7.66    0.39
   0   5   1    7.66    0.34
  -1  -5  -1   66.78    1.17
  -1  -5  -1   67.92    1.04
   1   5   1   68.33    0.94
   1   5   1   69.38    1.26
   1   5   1   66.67    1.27
  -2  -5  -1   52.91    1.03
   2   5   1   53.50    1.16
   2   5   1   53.67    1.14
  -3  -5  -1    0.36    0.16
   3   5   1    0.46    0.18
   3   5   1    0.37    0.15
  -4  -5  -1   18.76    0.81
   4   5   1   18.60    0.80
   4   5   1   19.83    0.75
  -5  -5  -1    7.83    0.61
  -5  -5  -1    7.43    0.59
   5   5   1    9.02    0.66
  -6  -5  -1    0.22    0.24
  -6  -5  -1   -0.09    0.20
   6   5   1    0.18    0.26
   4  -6  -1    2.08    0.40
  -4   6   1    1.61    0.38
  -4   6   1    1.15    0.36
   3  -6  -1    3.65    0.44
  -3   6   1    3.75    0.49
  -3   6   1    3.78    0.49
   2  -6  -1   45.34    1.18
  -2   6   1   44.67    1.18
  -2   6   1   44.47    1.21
   1  -6  -1   19.69    0.71
  -1   6   1   20.82    0.74
  -1   6   1   20.25    0.69
   0  -6  -1   44.37    1.00
   0   6   1   46.45    1.10
   0   6   1   45.92    0.94
  -1  -6  -1   28.40    0.61
  -1  -6  -1   27.23    0.75
   1   6   1   27.59    0.57
   1   6   1   27.85    0.81
   1   6   1   27.35    0.83
  -2  -6  -1   16.30    0.60
  -2  -6  -1   17.02    0.56
   2   6   1   16.23    0.66
   2   6   1   16.08    0.64
  -3  -6  -1    0.27    0.16
   3   6   1    0.17    0.15
   3   6   1    0.22    0.16
  -4  -6  -1    0.32    0.21
   4   6   1    0.51    0.22
   4   6   1    0.26    0.19
  -5  -6  -1    1.37    0.36
  -5  -6  -1    1.55    0.35
   5   6   1    1.30    0.36
  -6  -6  -1   -0.08    0.21
  -6  -6  -1   -0.19    0.20
   6   6   1    0.05    0.25
   4  -7  -1    0.51    0.25
  -4   7   1    0.26    0.26
   3  -7  -1    0.08    0.18
  -3   7   1    0.14    0.25
  -3   7   1    0.46    0.24
   2  -7  -1    2.89    0.39
  -2   7   1    2.69    0.40
  -2   7   1    3.04    0.42
   1  -7  -1   15.92    0.68
  -1   7   1   16.25    0.66
  -1   7   1   14.75    0.68
   0  -7  -1    1.40    0.26
   0   7   1    1.02    0.21
   0   7   1    1.29    0.26
  -1  -7  -1   17.54    0.64
   1   7   1   17.63    0.72
  -2  -7  -1   10.07    0.45
  -2  -7  -1   10.06    0.51
   2   7   1   10.80    0.58
   2   7   1    9.59    0.54
  -3  -7  -1    0.53    0.20
  -3  -7  -1    0.00    0.12
   3   7   1    0.32    0.17
   3   7   1    0.43    0.19
  -4  -7  -1   -0.15    0.16
   4   7   1    0.05    0.17
   4   7   1    0.13    0.19
  -5  -7  -1    0.07    0.20
   5   7   1    0.18    0.22
   3  -8  -1    0.34    0.25
  -3   8   1   -0.16    0.21
  -3   8   1    0.08    0.23
   2  -8  -1   25.83    0.99
  -2   8   1   24.88    0.98
  -2   8   1   24.48    0.99
   1  -8  -1    2.64    0.38
  -1   8   1    2.38    0.39
  -1   8   1    3.05    0.40
   0  -8  -1    3.41    0.40
   0   8   1    4.22    0.47
  -1  -8  -1   18.91    0.73
   1   8   1   20.90    0.84
  -2  -8  -1    2.31    0.34
   2   8   1    1.79    0.32
  -3  -8  -1    0.03    0.14
  -3  -8  -1    0.18    0.20
   3   8   1    0.19    0.19
   3   8   1   -0.11    0.14
  -4  -8  -1    0.92    0.28
  -4  -8  -1    0.79    0.29
   4   8   1    1.31    0.35
   4   8   1    1.52    0.34
  -5  -8  -1    0.25    0.23
   5   8   1    0.04    0.21
   3  -9  -1    0.05    0.25
  -3   9   1    0.21    0.24
   2  -9  -1    3.11    0.49
  -2   9   1    2.64    0.45
  -2   9   1    3.57    0.52
   1  -9  -1    0.69    0.25
  -1   9   1    0.71    0.25
  -1   9   1    0.35    0.22
   0  -9  -1    0.11    0.19
   0   9   1    0.12    0.18
  -1  -9  -1    2.49    0.37
   1   9   1    2.70    0.41
  -2  -9  -1    5.42    0.52
   2   9   1    6.12    0.51
  -3  -9  -1    2.69    0.41
   3   9   1    2.82    0.46
  -4  -9  -1    0.37    0.23
  -4  -9  -1   -0.21    0.17
   4   9   1    0.35    0.24
   4   9   1    0.20    0.22
  -5  -9  -1    0.14    0.22
  -5  -9  -1    0.23    0.27
   5   9   1   -0.12    0.21
   5   9   1    0.07    0.23
   2 -10  -1    5.08    0.61
  -2  10   1    4.88    0.62
  -2  10   1    5.64    0.63
   1 -10  -1    1.52    0.36
  -1  10   1    2.32    0.39
  -1  10   1    1.99    0.43
   0 -10  -1   20.06    0.88
   0  10   1   20.83    0.95
  -1 -10  -1    0.72    0.24
   1  10   1    0.74    0.28
  -2 -10  -1    0.32    0.23
   2  10   1   -0.16    0.18
  -3 -10  -1    5.70    0.60
   3  10   1    4.93    0.61
  -4 -10  -1    4.88    0.59
   4  10   1    4.06    0.60
   1 -11  -1    0.81    0.30
  -1  11   1    0.09    0.23
   0 -11  -1    0.32    0.26
   0  11   1    0.12    0.21
  -1 -11  -1    0.52    0.29
   1  11   1   -0.15    0.18
  -2 -11  -1    5.50    0.60
   2  11   1    4.83    0.62
  -3 -11  -1   -0.27    0.19
   3  11   1   -0.04    0.16
   4  11   1   -0.19    0.20
   0 -12  -1    0.44    0.29
   0  12   1    0.07    0.23
  -1 -12  -1    0.82    0.33
   1  12   1    1.54    0.41
  -2 -12  -1    9.74    0.72
   2  12   1   11.02    0.80
   3  12   1    0.03    0.18
   2  12  -2    3.27    0.55
   1  12  -2    3.43    0.57
   3  11  -2   -0.05    0.21
  -3 -11   2    0.22    0.25
   2  11  -2   -0.02    0.22
  -2 -11   2    0.22    0.25
   1  11  -2   -0.21    0.17
  -1 -11   2   -0.01    0.23
   0  11  -2    7.27    0.61
   0 -11   2    8.16    0.78
   4  10  -2    0.91    0.34
  -4 -10   2    0.76    0.32
   3  10  -2    0.75    0.29
  -3 -10   2    0.37    0.26
   2  10  -2    7.71    0.60
  -2 -10   2    8.72    0.62
   1  10  -2    5.40    0.60
  -1 -10   2    7.44    0.58
   0  10  -2   17.91    0.88
   0  10  -2   17.54    0.86
   0 -10   2   17.78    0.88
  -1  10  -2    3.29    0.48
  -1  10  -2    3.26    0.48
   1 -10   2    2.74    0.48
  -2  10  -2    2.21    0.44
  -2  10  -2    2.96    0.46
   5   9  -2    0.46    0.31
  -5  -9   2    0.26    0.28
   4   9  -2    2.19    0.43
  -4  -9   2    2.61    0.45
   3   9  -2    0.45    0.24
  -3  -9   2    0.29    0.22
   2   9  -2    0.62    0.23
  -2  -9   2    0.18    0.20
   1   9  -2    0.37    0.21
   1   9  -2    0.41    0.22
  -1  -9   2    0.44    0.22
   0   9  -2    2.18    0.36
   0   9  -2    2.40    0.39
   0   9  -2    2.01    0.35
   0  -9   2    1.77    0.37
  -1   9  -2    2.59    0.41
  -1   9  -2    3.59    0.46
  -1   9  -2    2.72    0.41
   1  -9   2    2.85    0.44
  -2   9  -2    0.75    0.28
  -2   9  -2    1.22    0.34
   2  -9   2    1.02    0.30
  -3   9  -2   -0.22    0.23
   5   8  -2    0.75    0.34
  -5  -8   2    1.00    0.32
   4   8  -2   -0.08    0.14
  -4  -8   2   -0.06    0.19
  -4  -8   2    0.25    0.25
   3   8  -2    8.14    0.59
  -3  -8   2    7.13    0.54
   2   8  -2    1.82    0.33
  -2  -8   2    1.82    0.32
   1   8  -2    1.79    0.31
   1   8  -2    1.63    0.30
  -1  -8   2    1.98    0.33
   0   8  -2   -0.04    0.13
   0   8  -2   -0.04    0.13
   0   8  -2   -0.16    0.14
   0  -8   2   -0.23    0.12
  -1   8  -2   27.08    0.94
  -1   8  -2   27.91    0.97
  -1   8  -2   28.30    0.97
   1  -8   2   26.07    0.97
  -2   8  -2   16.43    0.81
  -2   8  -2   16.13    0.74
   2  -8   2   16.77    0.79
   2  -8   2   17.47    0.85
  -3   8  -2    0.28    0.24
   3  -8   2    0.28    0.23
   5   7  -2    3.50    0.55
  -5  -7   2    3.97    0.53
  -5  -7   2    3.42    0.54
   4   7  -2    1.69    0.37
  -4  -7   2    1.06    0.29
   3   7  -2    0.21    0.19
  -3  -7   2   -0.04    0.16
  -3  -7   2    0.17    0.16
   2   7  -2    3.87    0.43
   2   7  -2    3.27    0.37
  -2  -7   2    3.06    0.38
   1   7  -2   26.19    0.99
   1   7  -2   25.97    0.86
   1   7  -2   25.47    0.83
  -1  -7   2   26.17    0.84
   0   7  -2   18.15    0.64
   0   7  -2   18.70    0.71
   0   7  -2   16.70    0.69
   0  -7   2   18.97    0.73
  -1   7  -2   11.16    0.58
  -1   7  -2   12.45    0.59
  -1   7  -2   12.32    0.61
   1  -7   2   11.88    0.61
  -2   7  -2    6.38    0.46
  -2   7  -2    6.24    0.50
   2  -7   2    7.36    0.52
   2  -7   2    6.34    0.50
  -3   7  -2    6.94    0.67
   3  -7   2    7.75    0.70
  -4   7  -2   -0.07    0.24
   5   6  -2    3.66    0.56
  -5  -6   2    2.83    0.46
  -5  -6   2    3.30    0.50
   4   6  -2    2.41    0.41
  -4  -6   2    1.99    0.33
   3   6  -2    0.40    0.20
  -3  -6   2    0.86    0.21
   2   6  -2    2.73    0.31
   2   6  -2    2.49    0.34
  -2  -6   2    2.68    0.27
  -2  -6   2    2.84    0.34
   1   6  -2    0.19    0.09
   1   6  -2    0.20    0.12
   1   6  -2    0.36    0.15
  -1  -6   2    0.44    0.16
   0   6  -2    4.79    0.34
   0   6  -2    4.33    0.31
   0   6  -2    4.00    0.37
   0  -6   2    4.21    0.40
  -1   6  -2    4.95    0.37
  -1   6  -2    4.36    0.34
  -1   6  -2    4.42    0.34
   1  -6   2    4.53    0.43
  -2   6  -2   24.67    0.80
  -2   6  -2   23.03    0.79
  -2   6  -2   24.68    0.89
   2  -6   2   22.15    0.84
   2  -6   2   24.27    0.84
  -3   6  -2    9.75    0.63
   3  -6   2    9.78    0.62
  -4   6  -2    0.30    0.24
   4  -6   2    0.16    0.22
   6   5  -2    0.76    0.35
  -6  -5   2    0.22    0.27
  -6  -5   2    0.78    0.30
   5   5  -2    5.13    0.61
  -5  -5   2    4.60    0.56
  -5  -5   2    4.38    0.56
   4   5  -2    3.70    0.47
  -4  -5   2    2.12    0.37
  -4  -5   2    3.48    0.43
   3   5  -2   56.88    1.37
  -3  -5   2   55.67    1.24
   2   5  -2   29.08    0.74
   2   5  -2   30.39    0.87
  -2  -5   2   29.85    0.81
  -2  -5   2   28.91    0.72
   1   5  -2   35.59    0.69
   1   5  -2   36.56    0.84
   1   5  -2   35.68    0.88
  -1  -5   2   35.86    0.65
  -1  -5   2   36.11    0.85
   0   5  -2    6.75    0.36
   0   5  -2    7.08    0.37
   0   5  -2    7.40    0.35
   0  -5   2    6.75    0.37
  -1   5  -2   16.65    0.58
  -1   5  -2   16.54    0.61
  -1   5  -2   15.35    0.55
   1  -5   2   17.22    0.62
  -2   5  -2    9.87    0.49
  -2   5  -2    8.10    0.42
  -2   5  -2    8.04    0.48
   2  -5   2    8.49    0.49
   2  -5   2    8.52    0.46
  -3   5  -2    4.50    0.48
   3  -5   2    4.94    0.50
  -4   5  -2    0.15    0.19
   4  -5   2    0.15    0.19
   6   4  -2    0.23    0.25
  -6  -4   2    0.19    0.24
  -6  -4   2    0.18    0.24
   5   4  -2    0.07    0.24
  -5  -4   2    0.72    0.29
  -5  -4   2    0.46    0.21
   4   4  -2    0.23    0.17
   4   4  -2    0.00    0.15
  -4  -4   2    0.09    0.15
  -4  -4   2   -0.05    0.13
   3   4  -2    3.39    0.35
   3   4  -2    3.73    0.41
  -3  -4   2    3.53    0.36
   2   4  -2    1.35    0.12
   2   4  -2    1.20    0.19
   2   4  -2    1.05    0.21
   2   4  -2    1.49    0.19
  -2  -4   2    1.39    0.21
  -2  -4   2    1.33    0.12
   1   4  -2    1.49    0.15
   1   4  -2    1.07    0.17
   1   4  -2    1.34    0.14
   1   4  -2    1.08    0.18
  -1  -4   2    1.05    0.16
  -1  -4   2    1.06    0.18
   0   4  -2  207.42    2.55
   0   4  -2  218.24    2.66
   0   4  -2  213.79    2.60
   0  -4   2  209.97    2.64
  -1   4  -2    2.93    0.27
  -1   4  -2    3.02    0.28
  -1   4  -2    2.43    0.27
   1  -4   2    2.77    0.29
  -2   4  -2    0.18    0.14
  -2   4  -2   -0.10    0.10
  -2   4  -2   -0.13    0.09
   2  -4   2    0.06    0.11
   2  -4   2   -0.03    0.11
  -3   4  -2    0.79    0.23
   3  -4   2    0.63    0.20
  -4   4  -2    2.04    0.37
   4  -4   2    2.10    0.37
  -5   4  -2    0.32    0.26
   5  -4   2    0.10    0.25
   6   3  -2    0.56    0.33
  -6  -3   2    0.84    0.31
  -6  -3   2    0.02    0.24
   5   3  -2    0.65    0.28
  -5  -3   2    0.58    0.29
  -5  -3   2    0.77    0.28
   4   3  -2    4.06    0.45
   4   3  -2    3.62    0.45
  -4  -3   2    3.73    0.43
  -4  -3   2    3.45    0.43
   3   3  -2   26.76    0.80
   3   3  -2   26.93    0.85
   3   3  -2   26.78    0.68
  -3  -3   2   27.20    0.58
  -3  -3   2   26.55    0.84
  -3  -3   2   24.65    0.79
   2   3  -2    0.12    0.06
   2   3  -2    0.11    0.08
   2   3  -2    0.17    0.10
   2   3  -2    0.28    0.12
  -2  -3   2    0.19    0.10
  -2  -3   2    0.32    0.07
   1   3  -2   80.54    1.24
   1   3  -2   79.79    1.04
   1   3  -2   77.72    1.15
  -1  -3   2   78.15    1.20
   0   3  -2    0.51    0.11
   0   3  -2    0.43    0.10
   0   3  -2    0.42    0.10
   0  -3   2    0.40    0.12
  -1   3  -2    0.12    0.09
  -1   3  -2   -0.11    0.07
  -1   3  -2    0.02    0.08
   1  -3   2    0.06    0.10
  -2   3  -2   48.13    0.97
  -2   3  -2   49.78    0.94
  -2   3  -2   48.13    1.07
  -2   3  -2   50.82    0.85
   2  -3   2   49.82    1.07
  -3   3  -2    4.06    0.38
  -3   3  -2    3.54    0.39
   3  -3   2    3.18    0.32
   3  -3   2    3.75    0.41
  -4   3  -2    2.67    0.38
   4  -3   2    2.71    0.38
  -5   3  -2    0.11    0.22
   5  -3   2    0.16    0.19
   6   2  -2    1.92    0.45
  -6  -2   2    1.56    0.41
  -6  -2   2    1.62    0.40
   5   2  -2    5.24    0.58
   5   2  -2    4.53    0.51
  -5  -2   2    5.66    0.60
  -5  -2   2    5.83    0.63
   4   2  -2   -0.21    0.13
   4   2  -2    0.01    0.13
   4   2  -2   -0.01    0.15
  -4  -2   2    0.22    0.17
  -4  -2   2   -0.13    0.11
   3   2  -2    3.83    0.23
   3   2  -2    4.55    0.32
   3   2  -2    4.28    0.32
   3   2  -2    4.00    0.33
  -3  -2   2    4.10    0.25
  -3  -2   2    3.97    0.33
  -3  -2   2    3.98    0.38
   2   2  -2   67.35    1.02
   2   2  -2   66.10    1.15
   2   2  -2   65.26    1.19
  -2  -2   2   69.93    1.18
  -2  -2   2   67.76    0.96
   1   2  -2  991.32   10.48
   1   2  -2  985.77   10.57
   0   2  -2   23.64    0.48
   0  -2   2   23.92    0.49
  -1   2  -2    0.08    0.08
  -1   2  -2   -0.03    0.07
  -1   2  -2    0.21    0.08
   1  -2   2    0.13    0.09
   1  -2   2    0.09    0.08
  -2   2  -2   27.32    0.60
  -2   2  -2   26.71    0.72
  -2   2  -2   27.63    0.63
  -2   2  -2   26.80    0.60
   2  -2   2   27.33    0.71
  -3   2  -2    0.70    0.17
  -3   2  -2    0.83    0.20
   3  -2   2    0.84    0.17
   3  -2   2    0.64    0.19
  -4   2  -2   14.41    0.68
  -4   2  -2   12.21    0.60
   4  -2   2   12.76    0.66
  -5   2  -2    4.44    0.53
   5  -2   2    3.66    0.49
   6   1  -2   -0.11    0.24
  -6  -1   2   -0.12    0.20
  -6  -1   2    0.19    0.28
   5   1  -2    3.15    0.44
   5   1  -2    3.67    0.50
   5   1  -2    4.39    0.52
  -5  -1   2    3.04    0.45
  -5  -1   2    2.94    0.44
   4   1  -2    0.33    0.18
   4   1  -2    0.00    0.13
   4   1  -2    0.02    0.14
  -4  -1   2    0.31    0.18
  -4  -1   2    0.16    0.13
  -4  -1   2    0.45    0.21
   3   1  -2   26.58    0.77
   3   1  -2   26.85    0.81
   3   1  -2   28.67    0.82
  -3  -1   2   27.78    0.81
  -3  -1   2   27.59    0.83
  -3  -1   2   26.61    0.67
   2   1  -2    0.35    0.12
   2   1  -2    0.32    0.11
   2   1  -2    0.35    0.08
   2   1  -2    0.23    0.10
  -2  -1   2    0.65    0.12
  -2  -1   2    0.42    0.12
  -2  -1   2    0.25    0.11
   1   1  -2   61.12    0.92
  -1  -1   2   59.11    0.82
  -1  -1   2   59.94    0.92
   0   1  -2    3.52    0.16
   0  -1   2    3.52    0.14
  -1   1  -2   52.98    0.85
   1  -1   2   52.15    0.82
   1  -1   2   53.42    0.84
  -2   1  -2    0.43    0.13
  -2   1  -2    0.47    0.11
   2  -1   2    0.64    0.15
  -3   1  -2    3.06    0.30
  -3   1  -2    3.14    0.32
  -3   1  -2    3.12    0.30
   3  -1   2    2.98    0.32
   3  -1   2    3.04    0.25
  -4   1  -2    3.83    0.41
  -4   1  -2    3.90    0.40
  -4   1  -2    3.66    0.40
   4  -1   2    3.16    0.39
  -5   1  -2    9.86    0.63
  -5   1  -2   11.59    0.66
   5  -1   2   11.37    0.70
  -6   0   2    2.40    0.47
  -6   0   2    2.55    0.48
   5   0  -2   18.67    0.86
   5   0  -2   17.44    0.88
   5   0  -2   16.66    0.83
  -5   0   2   19.04    0.89
  -5   0   2   18.98    0.90
   4   0  -2   19.52    0.76
   4   0  -2   18.91    0.80
   4   0  -2   20.38    0.79
  -4   0   2   18.35    0.78
  -4   0   2   18.28    0.69
  -4   0   2   19.52    0.79
   3   0  -2    5.19    0.37
   3   0  -2    4.73    0.35
   3   0  -2    4.73    0.33
  -3   0   2    4.80    0.36
  -3   0   2    4.69    0.31
  -3   0   2    4.97    0.35
   2   0  -2    0.51    0.06
   2   0  -2    0.27    0.12
   2   0  -2    0.48    0.13
   2   0  -2    0.52    0.12
  -2   0   2    0.43    0.12
  -2   0   2    0.57    0.14
  -2   0   2    0.63    0.13
   1   0  -2   92.29    1.17
   1   0  -2   95.76    1.27
  -1   0   2   92.01    1.19
  -1   0   2   93.51    1.25
   0   0  -2  107.15    1.24
   0   0   2  108.00    1.11
   0   0   2  109.19    1.23
  -1   0  -2   68.70    0.94
   1   0   2   69.57    0.93
   1   0   2   71.28    0.99
  -2   0  -2   48.62    0.86
  -2   0  -2   49.04    0.82
  -2   0  -2   48.47    0.90
   2   0   2   48.45    0.81
   2   0   2   48.73    0.91
  -3   0  -2   65.29    1.19
  -3   0  -2   64.91    1.19
  -3   0  -2   63.59    1.25
   3   0   2   63.89    1.27
   3   0   2   64.66    1.16
   3   0   2   64.89    1.19
  -4   0  -2    0.46    0.19
  -4   0  -2    0.23    0.15
  -4   0  -2    0.48    0.17
   4   0   2    0.45    0.18
   4   0   2    0.30    0.17
  -5   0  -2    5.64    0.59
   5   0   2    6.45    0.62
  -6   0  -2    0.02    0.26
   5  -1  -2    1.42    0.32
   5  -1  -2    0.63    0.25
  -5   1   2    0.89    0.29
  -5   1   2    1.62    0.35
  -5   1   2    1.12    0.27
   4  -1  -2    0.88    0.24
   4  -1  -2    0.80    0.25
   4  -1  -2    0.86    0.23
  -4   1   2    1.57    0.29
  -4   1   2    1.00    0.23
  -4   1   2    0.61    0.23
   3  -1  -2    0.09    0.11
   3  -1  -2    0.04    0.10
   3  -1  -2    0.37    0.16
  -3   1   2    0.14    0.12
  -3   1   2    0.10    0.11
  -3   1   2    0.15    0.14
   2  -1  -2    0.31    0.13
   2  -1  -2    0.24    0.10
   2  -1  -2    0.31    0.10
  -2   1   2    0.25    0.11
  -2   1   2    0.28    0.11
  -2   1   2    0.30    0.12
   1  -1  -2  128.31    1.55
  -1   1   2  128.50    1.62
  -1   1   2  131.80    1.67
   0  -1  -2   39.91    0.46
   0  -1  -2   40.78    0.59
   0   1   2   40.90    0.57
   0   1   2   40.55    0.59
  -1  -1  -2    0.98    0.10
   1   1   2    1.12    0.14
   1   1   2    1.11    0.11
  -2  -1  -2    3.86    0.20
  -2  -1  -2    4.60    0.24
  -2  -1  -2    4.41    0.26
   2   1   2    4.60    0.25
   2   1   2    4.52    0.25
   2   1   2    4.24    0.23
  -3  -1  -2    5.71    0.33
  -3  -1  -2    6.03    0.31
  -3  -1  -2    5.55    0.36
   3   1   2    5.57    0.35
   3   1   2    6.16    0.35
  -4  -1  -2   18.26    0.70
  -4  -1  -2   17.97    0.63
  -4  -1  -2   20.45    0.78
   4   1   2   18.65    0.73
   4   1   2   18.87    0.70
  -5  -1  -2    0.02    0.20
   5   1   2    0.22    0.18
  -6  -1  -2    0.09    0.26
   5  -2  -2    4.43    0.54
   5  -2  -2    4.19    0.51
  -5   2   2    4.68    0.55
  -5   2   2    4.58    0.57
  -5   2   2    5.32    0.55
   4  -2  -2   25.65    0.89
   4  -2  -2   25.69    0.92
  -4   2   2   28.60    1.01
  -4   2   2   26.94    0.93
  -4   2   2   26.36    0.91
   3  -2  -2   57.13    1.24
   3  -2  -2   54.50    1.17
  -3   2   2   54.87    1.21
  -3   2   2   55.30    1.27
  -3   2   2   54.16    1.17
   2  -2  -2   25.29    0.66
   2  -2  -2   26.40    0.65
   2  -2  -2   26.16    0.40
  -2   2   2   25.57    0.72
  -2   2   2   25.37    0.69
  -2   2   2   25.78    0.65
   1  -2  -2  190.14    2.22
   1  -2  -2  190.73    2.32
  -1   2   2  192.35    2.36
  -1   2   2  190.87    2.30
   0  -2  -2  844.92    9.26
   0   2   2  866.95    9.10
   0   2   2  858.08    9.06
   0   2   2  845.27    9.19
  -1  -2  -2  137.37    1.71
  -1  -2  -2  137.95    1.48
   1   2   2  139.49    1.68
   1   2   2  139.03    1.73
  -2  -2  -2   52.80    0.99
  -2  -2  -2   51.61    0.74
   2   2   2   52.06    0.92
   2   2   2   52.46    0.93
   2   2   2   51.97    0.95
  -3  -2  -2    2.04    0.28
  -3  -2  -2    2.56    0.28
  -3  -2  -2    2.31    0.21
   3   2   2    2.57    0.28
   3   2   2    1.83    0.23
   3   2   2    2.32    0.27
  -4  -2  -2    0.06    0.14
  -4  -2  -2    0.07    0.14
   4   2   2    0.03    0.13
   4   2   2    0.16    0.14
   4   2   2   -0.01    0.11
  -5  -2  -2    5.24    0.54
  -5  -2  -2    6.43    0.65
   5   2   2    6.08    0.57
   5   2   2    5.73    0.48
  -6  -2  -2    3.09    0.52
   6   2   2    2.89    0.47
   5  -3  -2    0.42    0.22
  -5   3   2    0.03    0.21
  -5   3   2   -0.19    0.15
   4  -3  -2   17.45    0.78
   4  -3  -2   17.34    0.72
  -4   3   2   16.84    0.77
  -4   3   2   17.08    0.82
  -4   3   2   16.98    0.73
   3  -3  -2    0.25    0.14
   3  -3  -2    0.29    0.15
  -3   3   2    0.56    0.19
  -3   3   2    0.22    0.17
  -3   3   2    0.20    0.14
   2  -3  -2   28.69    0.52
   2  -3  -2   29.42    0.75
   2  -3  -2   27.84    0.67
  -2   3   2   27.66    0.78
  -2   3   2   26.41    0.78
   1  -3  -2    4.29    0.25
  -1   3   2    4.40    0.29
  -1   3   2    4.34    0.27
   0   3   2   31.13    0.61
   0   3   2   32.27    0.68
   0   3   2   32.19    0.59
  -1  -3  -2   10.63    0.34
   1   3   2   10.08    0.22
   1   3   2   10.63    0.38
   1   3   2   10.70    0.37
  -2  -3  -2    4.07    0.27
  -2  -3  -2    3.89    0.13
   2   3   2    3.95    0.26
   2   3   2    3.14    0.24
  -3  -3  -2    0.79    0.16
  -3  -3  -2    0.90    0.21
   3   3   2    0.65    0.16
   3   3   2    1.12    0.20
   3   3   2    0.80    0.19
  -4  -3  -2   12.26    0.59
  -4  -3  -2   13.45    0.66
   4   3   2   13.29    0.63
   4   3   2   14.08    0.62
  -5  -3  -2    1.10    0.34
  -5  -3  -2    1.31    0.32
   5   3   2    1.62    0.33
   5   3   2    1.50    0.31
  -6  -3  -2    0.46    0.28
   6   3   2    0.35    0.24
   5  -4  -2    0.50    0.29
  -5   4   2    0.20    0.23
  -5   4   2    0.06    0.24
   4  -4  -2    0.00    0.15
  -4   4   2    0.31    0.23
  -4   4   2   -0.08    0.15
   3  -4  -2    1.80    0.29
   3  -4  -2    1.20    0.22
  -3   4   2    1.62    0.25
  -3   4   2    1.45    0.30
  -3   4   2    1.39    0.30
   2  -4  -2   40.56    0.96
   2  -4  -2   39.23    0.82
  -2   4   2   39.37    1.04
  -2   4   2   41.12    1.01
  -2   4   2   40.00    0.83
   1  -4  -2  195.27    2.31
   1  -4  -2  203.35    2.53
  -1   4   2  202.17    2.70
  -1   4   2  201.06    2.60
   0  -4  -2  225.57    2.66
   0   4   2  227.07    2.70
   0   4   2  232.36    2.84
   0   4   2  225.56    2.64
  -1  -4  -2  116.12    1.56
  -1  -4  -2  115.91    1.54
   1   4   2  114.99    1.68
   1   4   2  115.22    1.34
   1   4   2  116.11    1.69
  -2  -4  -2   13.38    0.47
   2   4   2   13.09    0.50
   2   4   2   13.84    0.50
  -3  -4  -2    4.96    0.37
   3   4   2    5.37    0.36
   3   4   2    4.94    0.36
  -4  -4  -2   11.57    0.63
   4   4   2   13.26    0.61
   4   4   2   11.98    0.61
  -5  -4  -2    1.41    0.34
  -5  -4  -2    0.91    0.28
   5   4   2    1.16    0.30
  -6  -4  -2    1.93    0.45
  -5   5   2    3.50    0.55
   4  -5  -2    1.56    0.33
  -4   5   2    1.96    0.39
  -4   5   2    1.09    0.33
   3  -5  -2   23.68    0.87
  -3   5   2   24.84    0.94
  -3   5   2   24.44    0.96
   2  -5  -2    8.06    0.46
  -2   5   2    9.03    0.54
  -2   5   2    8.47    0.50
   1  -5  -2   19.93    0.62
   1  -5  -2   20.31    0.47
  -1   5   2   19.22    0.68
  -1   5   2   18.31    0.61
   0  -5  -2    0.12    0.08
   0  -5  -2    0.19    0.11
   0   5   2    0.00    0.08
   0   5   2    0.15    0.10
   0   5   2   -0.04    0.10
  -1  -5  -2    0.36    0.13
  -1  -5  -2    0.58    0.13
   1   5   2    0.41    0.09
   1   5   2    0.43    0.15
   1   5   2    0.51    0.14
  -2  -5  -2    6.35    0.35
   2   5   2    5.69    0.37
   2   5   2    6.49    0.39
  -3  -5  -2    0.20    0.16
   3   5   2    0.17    0.14
   3   5   2    0.52    0.17
  -4  -5  -2   -0.06    0.16
   4   5   2    0.09    0.16
   4   5   2    0.07    0.13
  -5  -5  -2    0.15    0.20
  -5  -5  -2    0.32    0.24
   5   5   2    0.00    0.18
  -6  -5  -2    2.38    0.46
  -6  -5  -2    2.33    0.48
   6   5   2    1.81    0.41
   4  -6  -2    0.09    0.19
  -4   6   2   -0.21    0.20
  -4   6   2    0.34    0.25
   3  -6  -2    1.93    0.34
  -3   6   2    2.72    0.43
  -3   6   2    2.77    0.41
   2  -6  -2    0.33    0.17
  -2   6   2    0.39    0.19
  -2   6   2    0.55    0.24
   1  -6  -2    0.12    0.14
  -1   6   2   -0.05    0.10
  -1   6   2   -0.08    0.16
   0  -6  -2   92.08    1.54
   0  -6  -2   92.95    1.27
   0   6   2   93.69    1.69
   0   6   2   93.29    1.49
  -1  -6  -2    9.39    0.43
  -1  -6  -2    9.71    0.38
   1   6   2   10.15    0.33
   1   6   2    9.30    0.48
   1   6   2   10.49    0.49
  -2  -6  -2   11.17    0.47
  -2  -6  -2   11.14    0.49
   2   6   2   10.30    0.52
   2   6   2   11.67    0.55
  -3  -6  -2    5.48    0.41
   3   6   2    4.71    0.40
   3   6   2    5.09    0.40
  -4  -6  -2    0.18    0.21
   4   6   2    0.72    0.24
   4   6   2    0.53    0.21
  -5  -6  -2    0.72    0.29
  -5  -6  -2    0.84    0.29
   5   6   2    0.73    0.30
  -6  -6  -2    1.12    0.36
  -6  -6  -2    1.02    0.34
   6   6   2    0.81    0.36
   4  -7  -2    2.99    0.48
  -4   7   2    3.51    0.53
  -4   7   2    3.82    0.55
   3  -7  -2    0.34    0.20
  -3   7   2    0.48    0.25
  -3   7   2    0.46    0.26
   2  -7  -2   12.12    0.64
  -2   7   2   12.11    0.68
  -2   7   2   12.43    0.67
   1  -7  -2   24.99    0.84
  -1   7   2   26.19    0.92
  -1   7   2   24.38    0.82
   0  -7  -2   28.65    0.83
   0   7   2   28.17    0.92
   0   7   2   28.70    0.83
  -1  -7  -2   55.52    1.18
  -1  -7  -2   56.45    1.01
   1   7   2   53.62    1.26
   1   7   2   56.84    1.33
  -2  -7  -2    8.25    0.42
  -2  -7  -2    8.41    0.46
   2   7   2    8.44    0.52
   2   7   2    7.79    0.49
  -3  -7  -2    4.08    0.42
  -3  -7  -2    4.43    0.43
   3   7   2    3.18    0.41
   3   7   2    3.94    0.45
  -4  -7  -2   15.82    0.75
   4   7   2   14.53    0.74
   4   7   2   14.69    0.77
  -5  -7  -2   10.26    0.69
   5   7   2   13.13    1.30
   5   7   2   11.23    0.76
   3  -8  -2    6.26    0.62
  -3   8   2    5.82    0.68
  -3   8   2    7.03    0.70
   2  -8  -2    4.81    0.50
  -2   8   2    5.06    0.57
  -2   8   2    4.69    0.53
   1  -8  -2   16.21    0.72
  -1   8   2   17.44    0.80
  -1   8   2   16.12    0.71
   0  -8  -2   17.91    0.73
   0   8   2   18.87    0.80
  -1  -8  -2    5.31    0.40
   1   8   2    4.24    0.48
  -2  -8  -2    4.45    0.34
  -2  -8  -2    4.19    0.41
   2   8   2    3.58    0.43
   2   8   2    3.41    0.44
  -3  -8  -2   30.74    0.95
  -3  -8  -2   30.77    0.99
   3   8   2   30.96    1.07
   3   8   2   29.19    1.07
  -4  -8  -2    0.65    0.25
  -4  -8  -2    0.72    0.26
   4   8   2    0.40    0.23
   4   8   2    1.12    0.34
  -5  -8  -2    2.86    0.49
   5   8   2    2.05    0.44
   5   8   2    3.15    0.48
   3  -9  -2    3.76    0.54
  -3   9   2    3.25    0.53
  -3   9   2    4.26    0.61
   2  -9  -2    0.35    0.25
  -2   9   2    0.37    0.26
  -2   9   2   -0.01    0.18
   1  -9  -2    0.22    0.23
  -1   9   2    0.16    0.21
  -1   9   2    0.16    0.19
   0  -9  -2    9.13    0.56
   0   9   2    8.14    0.58
  -1  -9  -2    1.61    0.30
   1   9   2    1.03    0.28
  -2  -9  -2    7.64    0.52
   2   9   2    7.01    0.55
  -3  -9  -2    0.76    0.28
   3   9   2    1.19    0.32
   3   9   2    1.69    0.35
  -4  -9  -2    0.03    0.20
  -4  -9  -2   -0.12    0.19
   4   9   2    0.02    0.22
   4   9   2    0.16    0.24
  -5  -9  -2    0.62    0.26
  -5  -9  -2    0.54    0.30
   5   9   2    0.76    0.31
   5   9   2    0.54    0.32
   2 -10  -2    5.66    0.63
  -2  10   2    5.74    0.67
  -2  10   2    4.21    0.56
   1 -10  -2    0.71    0.28
  -1  10   2   -0.29    0.20
  -1  10   2    0.01    0.20
   0 -10  -2    4.10    0.51
   0  10   2    4.95    0.59
  -1 -10  -2   12.64    0.70
   1  10   2    9.83    0.67
  -2 -10  -2   42.81    1.25
   2  10   2   43.17    1.41
  -3 -10  -2    4.00    0.50
   3  10   2    3.09    0.48
  -4 -10  -2    1.76    0.37
   4  10   2    1.62    0.39
   4  10   2    1.29    0.38
   1 -11  -2    0.45    0.28
  -1  11   2    0.14    0.25
   0 -11  -2    1.90    0.38
   0  11   2    1.32    0.38
  -1 -11  -2   15.11    0.81
   1  11   2   14.81    0.88
  -2 -11  -2    0.25    0.23
   2  11   2    0.00    0.19
  -3 -11  -2   -0.21    0.22
   3  11   2    0.01    0.19
  -4 -11  -2    2.37    0.46
   4  11   2    2.18    0.48
   0 -12  -2    0.04    0.24
   0  12   2    0.32    0.27
  -1 -12  -2    0.36    0.26
   1  12   2    0.14    0.26
  -2 -12  -2   -0.15    0.21
   2  12   2   -0.14    0.16
  -3 -12  -2   -0.20    0.22
   3  12   2    0.10    0.21
   3  11  -3    1.08    0.38
   2  11  -3    1.25    0.35
  -2 -11   3    0.33    0.27
   1  11  -3    3.42    0.52
  -1 -11   3    3.20    0.51
   0  11  -3    0.62    0.25
   0 -11   3    0.72    0.33
  -1  11  -3    1.40    0.36
   4  10  -3    0.20    0.23
   3  10  -3   -0.07    0.21
  -3 -10   3   -0.03    0.24
   2  10  -3    0.24    0.23
  -2 -10   3    0.16    0.23
   1  10  -3    1.90    0.36
   1  10  -3    2.79    0.44
  -1 -10   3    1.89    0.37
   0  10  -3    0.46    0.22
   0  10  -3    0.89    0.29
   0 -10   3    0.50    0.26
  -1  10  -3    2.11    0.40
  -1  10  -3    1.97    0.39
   1 -10   3    1.99    0.41
  -2  10  -3    1.30    0.37
  -2  10  -3    1.49    0.41
   4   9  -3    0.60    0.28
  -4  -9   3    0.05    0.23
   3   9  -3    0.99    0.31
  -3  -9   3    0.77    0.30
   2   9  -3   12.74    0.69
   2   9  -3   12.21    0.71
  -2  -9   3   13.47    0.73
   1   9  -3    6.77    0.53
   1   9  -3    5.76    0.56
  -1  -9   3    6.45    0.60
   0   9  -3    1.68    0.34
   0   9  -3    1.91    0.35
   0  -9   3    1.59    0.34
  -1   9  -3    5.08    0.55
  -1   9  -3    4.17    0.50
   1  -9   3    4.13    0.52
  -2   9  -3    0.47    0.26
  -2   9  -3    0.08    0.20
   2  -9   3    0.66    0.28
   2  -9   3    0.23    0.23
   5   8  -3    0.33    0.26
  -5  -8   3   -0.35    0.19
  -5  -8   3   -0.15    0.16
   4   8  -3    0.37    0.23
  -4  -8   3    0.51    0.24
  -4  -8   3    0.09    0.19
   3   8  -3    0.64    0.24
  -3  -8   3   -0.06    0.18
   2   8  -3    0.06    0.17
   2   8  -3    0.02    0.15
  -2  -8   3    0.09    0.18
   1   8  -3    0.73    0.22
   1   8  -3    0.79    0.24
  -1  -8   3    0.65    0.23
   0   8  -3    2.46    0.35
   0   8  -3    2.92    0.39
   0   8  -3    2.34    0.32
   0  -8   3    2.43    0.36
  -1   8  -3    4.56    0.49
  -1   8  -3    3.63    0.44
   1  -8   3    3.94    0.47
  -2   8  -3    1.71    0.34
  -2   8  -3    2.39    0.41
   2  -8   3    2.52    0.41
   2  -8   3    2.21    0.39
  -3   8  -3    1.45    0.37
   3  -8   3    1.48    0.38
   5   7  -3    0.16    0.23
  -5  -7   3    0.40    0.25
  -5  -7   3    0.02    0.19
   4   7  -3    0.81    0.31
  -4  -7   3    1.02    0.27
  -4  -7   3    1.11    0.30
   3   7  -3   12.68    0.70
  -3  -7   3   13.62    0.61
  -3  -7   3   12.71    0.66
   2   7  -3    6.41    0.47
   2   7  -3    5.95    0.41
  -2  -7   3    5.60    0.43
   1   7  -3   15.25    0.60
   1   7  -3   15.21    0.67
   1   7  -3   14.84    0.64
  -1  -7   3   15.53    0.66
   0   7  -3    1.25    0.23
   0   7  -3    1.20    0.25
   0   7  -3    0.80    0.22
   0  -7   3    1.35    0.28
  -1   7  -3   22.41    0.82
  -1   7  -3   21.83    0.81
  -1   7  -3   22.42    0.78
   1  -7   3   22.25    0.83
  -2   7  -3    1.53    0.29
  -2   7  -3    1.60    0.34
   2  -7   3    1.85    0.34
   2  -7   3    1.48    0.32
  -3   7  -3    0.55    0.29
   3  -7   3    0.98    0.31
  -4   7  -3    0.72    0.30
   5   6  -3    1.59    0.40
  -5  -6   3    1.89    0.38
  -5  -6   3    0.96    0.33
   4   6  -3   30.56    1.14
  -4  -6   3   28.20    1.00
   3   6  -3   34.86    1.11
  -3  -6   3   35.97    0.99
  -3  -6   3   33.44    1.03
   2   6  -3   16.24    0.61
   2   6  -3   17.51    0.71
  -2  -6   3   17.23    0.56
  -2  -6   3   17.67    0.69
   1   6  -3   38.67    1.00
   1   6  -3   40.40    0.86
   1   6  -3   40.34    1.00
  -1  -6   3   39.80    1.00
   0   6  -3   56.65    1.19
   0   6  -3   56.92    1.24
   0   6  -3   55.48    1.15
   0  -6   3   54.14    1.22
  -1   6  -3    2.77    0.36
  -1   6  -3    2.99    0.33
  -1   6  -3    3.01    0.35
   1  -6   3    3.07    0.37
  -2   6  -3    1.60    0.31
  -2   6  -3    1.48    0.27
   2  -6   3    1.95    0.32
   2  -6   3    1.66    0.29
  -3   6  -3    0.07    0.22
   3  -6   3   -0.06    0.16
  -4   6  -3    0.35    0.25
   4  -6   3    0.74    0.31
   5   5  -3    0.19    0.20
  -5  -5   3   -0.08    0.19
  -5  -5   3   -0.12    0.16
   4   5  -3   14.22    0.76
   4   5  -3   15.09    0.72
  -4  -5   3   15.64    0.75
  -4  -5   3   15.62    0.78
   3   5  -3    2.64    0.33
   3   5  -3    2.54    0.36
  -3  -5   3    2.80    0.33
   2   5  -3    1.92    0.28
   2   5  -3    1.53    0.22
  -2  -5   3    1.63    0.25
  -2  -5   3    1.41    0.15
  -2  -5   3    1.69    0.23
   1   5  -3   26.30    0.74
   1   5  -3   26.66    0.62
   1   5  -3   25.82    0.55
   1   5  -3   26.71    0.74
  -1  -5   3   27.08    0.75
  -1  -5   3   26.55    0.56
   0   5  -3    0.95    0.18
   0   5  -3    0.68    0.17
   0   5  -3    0.42    0.13
   0  -5   3    0.56    0.16
  -1   5  -3    0.72    0.20
  -1   5  -3    1.35    0.23
  -1   5  -3    0.73    0.17
   1  -5   3    0.84    0.22
  -2   5  -3    2.31    0.33
  -2   5  -3    1.68    0.26
   2  -5   3    2.03    0.30
   2  -5   3    2.11    0.32
  -3   5  -3    4.70    0.51
   3  -5   3    4.68    0.50
  -4   5  -3    8.77    0.65
   4  -5   3    9.40    0.65
   6   4  -3    0.08    0.22
  -6  -4   3    0.18    0.25
  -6  -4   3    0.28    0.26
   5   4  -3    5.01    0.61
  -5  -4   3    5.04    0.60
  -5  -4   3    4.35    0.56
   4   4  -3    0.07    0.15
   4   4  -3    0.42    0.23
  -4  -4   3    0.49    0.21
  -4  -4   3    0.39    0.20
   3   4  -3    1.84    0.26
   3   4  -3    1.80    0.29
  -3  -4   3    2.49    0.31
   2   4  -3  189.28    2.37
   2   4  -3  189.82    2.64
   2   4  -3  188.63    2.19
   2   4  -3  184.54    2.44
  -2  -4   3  186.11    2.45
  -2  -4   3  185.39    2.19
   1   4  -3  187.77    2.21
   1   4  -3  188.95    2.47
   1   4  -3  192.43    2.43
   1   4  -3  188.94    2.27
  -1  -4   3  188.61    2.45
  -1  -4   3  185.65    2.21
   0   4  -3    0.32    0.11
   0   4  -3    0.18    0.10
   0   4  -3    0.34    0.12
   0  -4   3    0.30    0.13
  -1   4  -3   30.33    0.69
  -1   4  -3   29.28    0.79
  -1   4  -3   30.04    0.76
   1  -4   3   30.59    0.79
  -2   4  -3    2.03    0.26
  -2   4  -3    2.43    0.31
  -2   4  -3    2.45    0.28
   2  -4   3    2.18    0.28
   2  -4   3    2.75    0.33
  -3   4  -3    8.83    0.56
   3  -4   3    8.67    0.53
  -4   4  -3    0.11    0.18
   4  -4   3   -0.11    0.18
  -5   4  -3    0.40    0.27
   6   3  -3    0.22    0.30
  -6  -3   3    0.45    0.27
  -6  -3   3    0.04    0.24
   5   3  -3    8.92    0.63
   5   3  -3    7.56    0.60
  -5  -3   3    5.58    0.63
  -5  -3   3    6.49    0.64
   4   3  -3    7.84    0.54
   4   3  -3    6.50    0.48
  -4  -3   3    8.05    0.54
  -4  -3   3    8.06    0.54
   3   3  -3    0.15    0.13
   3   3  -3    0.38    0.18
  -3  -3   3    0.31    0.10
  -3  -3   3    0.18    0.13
  -3  -3   3    0.28    0.15
   2   3  -3  160.83    1.93
   2   3  -3  156.68    1.96
   2   3  -3  159.89    2.17
   2   3  -3  156.89    2.26
  -2  -3   3  162.35    2.18
  -2  -3   3  161.77    1.93
   1   3  -3   25.90    0.54
   1   3  -3   26.11    0.64
   1   3  -3   26.26    0.60
  -1  -3   3   26.37    0.55
  -1  -3   3   25.36    0.61
   0   3  -3    1.61    0.19
   0   3  -3    1.78    0.19
   0   3  -3    1.89    0.16
   0  -3   3    1.98    0.21
  -1   3  -3    0.61    0.12
  -1   3  -3    0.73    0.15
  -1   3  -3    0.66    0.14
   1  -3   3    0.30    0.12
   1  -3   3    0.53    0.14
  -2   3  -3    1.88    0.19
  -2   3  -3    1.44    0.24
  -2   3  -3    1.72    0.22
  -2   3  -3    1.33    0.19
   2  -3   3    1.52    0.23
   2  -3   3    1.97    0.26
  -3   3  -3    0.83    0.22
   3  -3   3    1.18    0.24
  -4   3  -3    1.01    0.26
   4  -3   3    0.34    0.20
  -5   3  -3   19.08    0.92
   5  -3   3   16.61    0.88
   6   2  -3    1.11    0.38
  -6  -2   3    1.23    0.36
  -6  -2   3    0.96    0.35
   5   2  -3    5.13    0.61
   5   2  -3    5.92    0.61
   5   2  -3    6.94    0.62
  -5  -2   3    5.65    0.61
  -5  -2   3    6.05    0.62
   4   2  -3   10.30    0.57
   4   2  -3   10.38    0.58
   4   2  -3    9.81    0.59
  -4  -2   3    9.76    0.59
  -4  -2   3    9.13    0.56
   3   2  -3    1.72    0.26
   3   2  -3    1.45    0.26
   3   2  -3    1.71    0.25
  -3  -2   3    1.77    0.28
  -3  -2   3    1.88    0.29
  -3  -2   3    2.09    0.22
   2   2  -3   45.20    0.98
   2   2  -3   45.54    0.94
   2   2  -3   44.74    0.79
  -2  -2   3   45.61    0.97
  -2  -2   3   45.72    0.94
  -2  -2   3   45.87    0.80
   1   2  -3   -0.06    0.05
   1   2  -3   -0.01    0.08
  -1  -2   3    0.03    0.07
   0   2  -3   10.63    0.34
   0   2  -3   10.28    0.34
   0  -2   3   10.62    0.33
  -1   2  -3    0.16    0.09
  -1   2  -3    0.34    0.10
   1  -2   3    0.29    0.10
   1  -2   3    0.11    0.09
  -2   2  -3   16.38    0.45
  -2   2  -3   16.12    0.56
  -2   2  -3   16.01    0.46
  -2   2  -3   16.42    0.49
   2  -2   3   16.75    0.55
   2  -2   3   16.51    0.55
  -3   2  -3    0.88    0.17
  -3   2  -3    0.88    0.20
   3  -2   3    0.96    0.22
  -4   2  -3    0.54    0.23
   4  -2   3    0.51    0.21
  -5   2  -3    0.10    0.20
   5  -2   3    0.14    0.20
   6   1  -3    3.70    0.61
  -6  -1   3    3.09    0.51
  -6  -1   3    3.79    0.61
   5   1  -3    6.67    0.64
   5   1  -3    7.16    0.74
   5   1  -3    7.63    0.57
  -5  -1   3    7.93    0.63
  -5  -1   3    6.44    0.64
   4   1  -3    4.09    0.47
   4   1  -3    3.65    0.42
   4   1  -3    3.23    0.39
  -4  -1   3    4.08    0.38
  -4  -1   3    3.62    0.44
  -4  -1   3    3.58    0.42
   3   1  -3   35.49    0.90
   3   1  -3   33.87    0.94
   3   1  -3   35.62    0.94
  -3  -1   3   35.57    0.95
  -3  -1   3   35.13    0.81
  -3  -1   3   34.23    0.97
   2   1  -3   53.14    0.97
   2   1  -3   52.61    1.02
   2   1  -3   53.22    1.06
  -2  -1   3   53.58    0.91
  -2  -1   3   53.24    1.06
  -2  -1   3   53.81    1.03
   1   1  -3    1.01    0.14
   1   1  -3    0.91    0.12
   1   1  -3    1.07    0.15
  -1  -1   3    1.03    0.13
  -1  -1   3    1.04    0.14
   0   1  -3    7.09    0.26
   0  -1   3    7.27    0.27
   0  -1   3    7.18    0.22
  -1   1  -3    9.90    0.35
  -1   1  -3   10.71    0.39
   1  -1   3   10.11    0.36
   1  -1   3    9.54    0.31
  -2   1  -3   94.08    1.49
  -2   1  -3   96.38    1.28
  -2   1  -3   96.36    1.36
   2  -1   3   95.66    1.48
   2  -1   3   97.16    1.49
  -3   1  -3   16.85    0.59
  -3   1  -3   15.91    0.60
  -3   1  -3   16.85    0.50
  -3   1  -3   18.12    0.56
   3  -1   3   18.58    0.65
  -4   1  -3   28.41    0.91
  -4   1  -3   32.50    0.98
   4  -1   3   31.18    1.00
  -5   1  -3    0.37    0.24
  -5   1  -3    0.27    0.20
   5  -1   3    0.08    0.18
  -6   0   3    0.21    0.27
   5   0  -3    3.36    0.47
   5   0  -3    2.80    0.44
   5   0  -3    3.91    0.55
  -5   0   3    3.49    0.50
  -5   0   3    3.11    0.45
   4   0  -3    0.30    0.20
   4   0  -3    0.19    0.15
   4   0  -3    0.00    0.13
  -4   0   3    0.04    0.16
  -4   0   3    0.00    0.13
  -4   0   3   -0.09    0.13
   3   0  -3    6.20    0.42
   3   0  -3    6.69    0.38
   3   0  -3    6.84    0.41
  -3   0   3    7.56    0.43
  -3   0   3    6.92    0.39
  -3   0   3    7.21    0.45
   2   0  -3   51.99    1.04
   2   0  -3   52.19    0.95
   2   0  -3   51.66    1.00
  -2   0   3   53.17    0.96
  -2   0   3   52.62    1.01
  -2   0   3   50.79    1.04
   1   0  -3  124.31    1.59
   1   0  -3  120.41    1.54
   1   0  -3  121.00    1.58
  -1   0   3  121.02    1.34
  -1   0   3  123.53    1.60
  -1   0   3  122.24    1.54
   0   0  -3  412.29    4.29
   0   0   3  420.86    4.28
   0   0   3  415.22    4.18
   1   0   3  232.99    2.52
   1   0   3  233.10    2.68
  -2   0  -3   11.06    0.40
  -2   0  -3   10.54    0.32
  -2   0  -3   10.71    0.38
   2   0   3   10.16    0.39
   2   0   3    9.82    0.37
   2   0   3   10.40    0.31
  -3   0  -3    0.08    0.09
  -3   0  -3   -0.04    0.10
  -3   0  -3    0.36    0.14
  -3   0  -3    0.07    0.09
   3   0   3    0.22    0.11
   3   0   3    0.25    0.12
  -4   0  -3    0.82    0.23
  -4   0  -3    0.82    0.22
   4   0   3    0.87    0.23
  -5   0  -3    1.07    0.32
   5   0   3    0.61    0.24
  -6   0  -3    5.17    0.62
   5  -1  -3   14.51    0.80
   5  -1  -3   13.82    0.75
  -5   1   3   12.67    0.77
  -5   1   3   13.83    0.73
  -5   1   3   16.26    0.83
   4  -1  -3   15.21    0.75
   4  -1  -3   15.50    0.70
   4  -1  -3   14.80    0.69
  -4   1   3   15.49    0.76
  -4   1   3   16.88    0.70
  -4   1   3   15.36    0.70
   3  -1  -3    3.16    0.34
   3  -1  -3    3.13    0.37
   3  -1  -3    2.89    0.32
  -3   1   3    3.30    0.37
  -3   1   3    2.44    0.31
  -3   1   3    2.83    0.31
   2  -1  -3   17.89    0.59
   2  -1  -3   17.47    0.53
   2  -1  -3   17.33    0.51
  -2   1   3   17.64    0.59
  -2   1   3   17.32    0.53
  -2   1   3   16.28    0.53
   1  -1  -3   42.30    0.76
  -1   1   3   42.54    0.80
  -1   1   3   42.53    0.76
   0  -1  -3    8.84    0.27
   0   1   3    8.49    0.26
  -1  -1  -3  984.42   10.80
  -1  -1  -3  980.94   10.12
   1   1   3 1000.00   10.18
   1   1   3  990.76   11.01
  -2  -1  -3   10.71    0.40
  -2  -1  -3   10.27    0.34
   2   1   3   10.97    0.38
   2   1   3   10.91    0.41
   2   1   3   11.13    0.34
  -3  -1  -3    4.26    0.28
  -3  -1  -3    4.32    0.39
  -3  -1  -3    4.14    0.28
   3   1   3    4.22    0.31
   3   1   3    3.81    0.27
   3   1   3    4.55    0.31
  -4  -1  -3    0.08    0.15
  -4  -1  -3    0.07    0.13
  -4  -1  -3    0.00    0.13
   4   1   3    0.10    0.14
   4   1   3    0.13    0.14
   4   1   3   -0.05    0.12
  -5  -1  -3    4.07    0.51
   5   1   3    2.98    0.43
  -6  -1  -3    3.24    0.51
   5  -2  -3    0.05    0.19
   5  -2  -3    0.00    0.17
  -5   2   3    0.22    0.19
  -5   2   3   -0.12    0.17
  -5   2   3   -0.13    0.17
   4  -2  -3    0.74    0.22
   4  -2  -3    0.22    0.17
  -4   2   3    0.50    0.20
  -4   2   3    0.34    0.21
  -4   2   3    0.73    0.24
   3  -2  -3   11.94    0.53
   3  -2  -3   12.34    0.55
  -3   2   3   11.02    0.52
  -3   2   3   12.37    0.60
  -3   2   3   12.93    0.58
   2  -2  -3    0.68    0.14
   2  -2  -3    0.49    0.13
  -2   2   3    0.55    0.14
  -2   2   3    0.44    0.14
  -2   2   3    0.49    0.16
   1  -2  -3   38.55    0.73
  -1   2   3   39.27    0.81
  -1   2   3   37.32    0.53
  -1   2   3   37.60    0.76
   0  -2  -3    3.39    0.19
   0  -2  -3    3.62    0.13
   0   2   3    3.66    0.22
   0   2   3    3.61    0.19
   0   2   3    3.77    0.19
  -1  -2  -3  496.20    5.03
  -1  -2  -3  500.19    5.25
   1   2   3  496.09    5.28
   1   2   3  501.92    5.13
  -2  -2  -3  107.23    1.36
  -2  -2  -3  109.69    1.62
   2   2   3  106.83    1.49
   2   2   3  107.12    1.49
   2   2   3  106.88    1.61
  -3  -2  -3    0.36    0.11
  -3  -2  -3    0.34    0.13
  -3  -2  -3    0.57    0.17
   3   2   3    0.33    0.13
   3   2   3    0.41    0.13
   3   2   3    0.38    0.15
  -4  -2  -3    3.59    0.38
  -4  -2  -3    3.69    0.43
   4   2   3    2.89    0.35
   4   2   3    2.27    0.32
  -5  -2  -3   13.07    0.76
   5   2   3   13.18    0.70
  -6  -2  -3    0.17    0.24
   6   2   3    0.00    0.25
   5  -3  -3    0.68    0.27
   5  -3  -3    1.77    0.36
  -5   3   3    1.45    0.36
  -5   3   3    1.61    0.37
   4  -3  -3    6.48    0.47
   4  -3  -3    8.03    0.55
  -4   3   3    7.21    0.56
  -4   3   3    8.20    0.57
  -4   3   3    6.53    0.46
   3  -3  -3   16.33    0.62
   3  -3  -3   15.53    0.64
  -3   3   3   15.25    0.66
  -3   3   3   16.72    0.64
  -3   3   3   14.22    0.68
   2  -3  -3  212.13    2.70
   2  -3  -3  213.41    2.74
  -2   3   3  210.86    2.69
  -2   3   3  212.32    2.93
  -2   3   3  214.05    2.86
   1  -3  -3  319.36    3.53
   1  -3  -3  315.92    3.54
  -1   3   3  318.94    3.77
  -1   3   3  318.80    3.68
   0  -3  -3   18.59    0.40
   0  -3  -3   18.60    0.45
   0   3   3   19.32    0.47
   0   3   3   19.11    0.46
   0   3   3   18.55    0.52
  -1  -3  -3    4.95    0.19
  -1  -3  -3    4.81    0.25
   1   3   3    4.87    0.19
   1   3   3    5.10    0.28
   1   3   3    5.16    0.26
  -2  -3  -3    1.38    0.20
  -2  -3  -3    1.19    0.11
   2   3   3    1.00    0.18
   2   3   3    0.85    0.15
  -3  -3  -3   18.74    0.46
  -3  -3  -3   18.96    0.67
   3   3   3   18.64    0.61
   3   3   3   20.11    0.67
   3   3   3   19.04    0.62
  -4  -3  -3    0.05    0.18
  -4  -3  -3   -0.04    0.11
   4   3   3   -0.03    0.12
   4   3   3    0.07    0.13
   4   3   3    0.05    0.13
  -5  -3  -3    6.26    0.63
   5   3   3    6.57    0.52
   5   3   3    6.86    0.53
  -6  -3  -3    1.15    0.39
   6   3   3    0.75    0.26
   5  -4  -3    0.12    0.24
  -5   4   3    0.02    0.21
  -5   4   3    0.31    0.28
   4  -4  -3    4.79    0.52
  -4   4   3    3.93    0.50
  -4   4   3    3.41    0.47
   3  -4  -3    6.80    0.45
   3  -4  -3    6.50    0.40
  -3   4   3    6.85    0.50
  -3   4   3    6.30    0.47
   2  -4  -3   33.02    0.86
   2  -4  -3   33.01    0.78
  -2   4   3   34.82    0.99
  -2   4   3   32.22    0.91
   1  -4  -3    1.52    0.20
   1  -4  -3    1.93    0.20
  -1   4   3    1.79    0.27
  -1   4   3    1.47    0.21
   0  -4  -3   15.53    0.43
   0   4   3   15.30    0.53
   0   4   3   15.16    0.44
   0   4   3   15.31    0.46
  -1  -4  -3    5.55    0.28
   1   4   3    6.42    0.33
   1   4   3    5.57    0.21
   1   4   3    6.02    0.32
  -2  -4  -3    0.81    0.08
  -2  -4  -3    1.00    0.19
   2   4   3    0.70    0.16
   2   4   3    0.49    0.15
   2   4   3    0.72    0.07
  -3  -4  -3    1.79    0.27
   3   4   3    1.21    0.23
   3   4   3    1.35    0.25
  -4  -4  -3    2.92    0.41
   4   4   3    3.11    0.38
   4   4   3    3.46    0.40
  -5  -4  -3    0.28    0.20
  -5  -4  -3    0.41    0.24
   5   4   3    0.28    0.19
   5   4   3    0.51    0.22
  -6  -4  -3    1.77    0.44
  -5   5   3    0.21    0.25
   4  -5  -3    1.02    0.28
  -4   5   3    0.81    0.29
  -4   5   3    1.15    0.31
   3  -5  -3   39.91    1.13
  -3   5   3   42.33    1.24
  -3   5   3   40.60    1.27
   2  -5  -3   44.88    0.93
   2  -5  -3   44.30    1.06
  -2   5   3   45.28    1.15
  -2   5   3   45.13    1.23
  -2   5   3   45.61    0.95
   1  -5  -3   -0.07    0.11
   1  -5  -3    0.30    0.09
  -1   5   3    0.22    0.13
  -1   5   3    0.14    0.15
   0  -5  -3    1.73    0.20
   0  -5  -3    1.79    0.19
   0   5   3    1.63    0.20
   0   5   3    1.92    0.23
   0   5   3    2.01    0.27
  -1  -5  -3   32.35    0.71
  -1  -5  -3   33.08    0.73
   1   5   3   33.52    0.84
   1   5   3   32.88    0.61
   1   5   3   32.84    0.85
  -2  -5  -3    4.21    0.31
   2   5   3    4.43    0.33
   2   5   3    5.36    0.36
  -3  -5  -3    1.99    0.30
   3   5   3    2.12    0.31
   3   5   3    2.11    0.30
  -4  -5  -3   11.43    0.62
   4   5   3   11.13    0.61
   4   5   3   10.50    0.59
  -5  -5  -3    2.74    0.44
  -5  -5  -3    2.17    0.42
   5   5   3    1.56    0.35
  -6  -5  -3    0.45    0.34
   4  -6  -3    0.17    0.19
  -4   6   3    0.15    0.24
  -4   6   3    0.29    0.25
   3  -6  -3   33.24    1.09
  -3   6   3   33.41    1.14
  -3   6   3   31.28    1.17
   2  -6  -3    4.29    0.42
  -2   6   3    3.14    0.44
  -2   6   3    3.85    0.42
   1  -6  -3   23.28    0.72
  -1   6   3   21.13    0.72
  -1   6   3   22.01    0.81
   0  -6  -3   26.71    0.72
   0  -6  -3   26.74    0.61
   0   6   3   26.71    0.75
   0   6   3   25.00    0.81
   0   6   3   25.80    0.69
  -1  -6  -3    3.71    0.27
  -1  -6  -3    3.13    0.24
   1   6   3    3.76    0.31
   1   6   3    3.79    0.38
   1   6   3    4.14    0.23
  -2  -6  -3   14.02    0.52
  -2  -6  -3   13.95    0.54
   2   6   3   13.61    0.60
   2   6   3   13.50    0.60
  -3  -6  -3   47.53    1.17
   3   6   3   48.30    1.23
   3   6   3   46.66    1.22
  -4  -6  -3    9.66    0.60
   4   6   3   10.41    0.63
   4   6   3   10.04    0.59
  -5  -6  -3    0.51    0.29
   5   6   3    0.60    0.28
   5   6   3    0.54    0.26
  -6  -6  -3    0.20    0.31
   4  -7  -3    3.56    0.50
  -4   7   3    3.38    0.54
  -4   7   3    2.79    0.52
   3  -7  -3    6.26    0.60
  -3   7   3    7.26    0.68
  -3   7   3    6.50    0.69
   2  -7  -3    4.45    0.46
  -2   7   3    3.72    0.50
  -2   7   3    3.83    0.46
   1  -7  -3    2.52    0.34
  -1   7   3    2.85    0.41
  -1   7   3    3.85    0.42
   0  -7  -3    0.72    0.21
   0   7   3    0.61    0.21
   0   7   3    0.50    0.16
  -1  -7  -3    4.23    0.29
  -1  -7  -3    3.82    0.36
   1   7   3    2.91    0.37
   1   7   3    3.40    0.36
  -2  -7  -3   54.39    1.16
  -2  -7  -3   57.48    1.21
   2   7   3   55.35    1.34
   2   7   3   53.37    1.32
  -3  -7  -3    2.57    0.33
  -3  -7  -3    2.77    0.38
   3   7   3    3.08    0.41
   3   7   3    1.75    0.33
  -4  -7  -3    3.43    0.44
   4   7   3    4.39    0.53
   4   7   3    4.92    0.53
  -5  -7  -3    0.40    0.30
   5   7   3    1.08    0.35
   5   7   3    0.86    0.31
   3  -8  -3    1.37    0.35
  -3   8   3    1.42    0.37
  -3   8   3    1.34    0.35
   2  -8  -3    5.56    0.54
  -2   8   3    4.16    0.50
  -2   8   3    5.01    0.58
   1  -8  -3   31.57    0.99
  -1   8   3   33.50    1.03
  -1   8   3   32.79    1.11
   0  -8  -3    7.66    0.47
   0   8   3    6.25    0.61
   0   8   3    6.96    0.51
  -1  -8  -3    0.78    0.22
   1   8   3    0.84    0.22
   1   8   3    1.28    0.29
  -2  -8  -3    8.85    0.49
  -2  -8  -3    8.66    0.47
   2   8   3    9.07    0.57
   2   8   3    8.81    0.55
  -3  -8  -3    4.42    0.46
  -3  -8  -3    3.19    0.39
   3   8   3    3.47    0.46
   3   8   3    2.93    0.43
  -4  -8  -3    0.88    0.29
  -4  -8  -3    1.08    0.30
   4   8   3    0.83    0.29
   4   8   3    0.76    0.29
  -5  -8  -3    1.49    0.39
   5   8   3    2.86    0.47
   5   8   3    2.70    0.49
   3  -9  -3    4.17    0.56
  -3   9   3    4.13    0.59
  -3   9   3    2.97    0.54
   2  -9  -3    1.70    0.35
  -2   9   3    1.75    0.37
  -2   9   3    2.22    0.44
   1  -9  -3    5.38    0.52
  -1   9   3    4.67    0.49
  -1   9   3    5.58    0.61
   0  -9  -3   14.50    0.68
   0   9   3   14.37    0.77
  -1  -9  -3   62.48    1.43
   1   9   3   63.87    1.62
  -2  -9  -3    2.50    0.34
   2   9   3    1.58    0.35
   2   9   3    2.31    0.40
  -3  -9  -3    5.83    0.55
  -3  -9  -3    6.97    0.48
   3   9   3    6.29    0.63
   3   9   3    7.27    0.58
  -4  -9  -3    1.61    0.36
  -4  -9  -3    1.76    0.35
   4   9   3    2.31    0.43
   4   9   3    2.91    0.48
  -5  -9  -3    0.76    0.32
  -5  -9  -3    1.16    0.34
   5   9   3    0.86    0.31
   5   9   3    0.65    0.29
   2 -10  -3    0.31    0.26
  -2  10   3    0.26    0.25
  -2  10   3    0.09    0.25
   1 -10  -3   -0.02    0.18
  -1  10   3   -0.28    0.18
  -1  10   3    0.09    0.21
   0 -10  -3    1.21    0.30
   0  10   3    1.40    0.35
  -1 -10  -3   -0.19    0.18
   1  10   3   -0.08    0.17
  -2 -10  -3    0.65    0.25
   2  10   3    1.08    0.31
  -3 -10  -3   15.94    0.79
   3  10   3   12.40    0.78
   3  10   3   15.67    0.87
  -4 -10  -3    4.80    0.58
   4  10   3    3.59    0.54
   4  10   3    5.00    0.66
   1 -11  -3    1.26    0.36
  -1  11   3    1.51    0.41
   0 -11  -3    0.29    0.26
   0  11   3    0.00    0.23
  -1 -11  -3    0.96    0.33
   1  11   3    1.05    0.34
  -2 -11  -3    0.15    0.24
   2  11   3   -0.05    0.18
  -3 -11  -3    0.15    0.23
   3  11   3    0.33    0.24
  -4 -11  -3    1.91    0.41
   4  11   3    3.10    0.55
   4  11   3    2.22    0.47
   0 -12  -3    3.92    0.54
   0  12   3    6.04    0.74
  -1 -12  -3    9.65    0.69
   1  12   3    8.56    0.88
  -2 -12  -3    4.83    0.59
   2  12   3    3.78    0.59
  -3 -12  -3   -0.28    0.23
   3  12   3    0.20    0.25
   3  11  -4    0.01    0.25
   2  11  -4    0.06    0.24
  -2 -11   4   -0.49    0.20
   1  11  -4    0.25    0.30
   1  11  -4   -0.23    0.15
  -1 -11   4    0.07    0.29
   0  11  -4    1.52    0.38
   4  10  -4    1.72    0.42
   3  10  -4   -0.12    0.24
  -3 -10   4   -0.04    0.23
   2  10  -4    0.21    0.24
   2  10  -4    0.11    0.19
  -2 -10   4   -0.09    0.17
   1  10  -4    0.24    0.20
   1  10  -4    0.58    0.26
  -1 -10   4   -0.04    0.21
   0  10  -4    2.72    0.45
   0 -10   4    1.79    0.38
  -1  10  -4    0.12    0.22
  -1  10  -4    0.23    0.23
   1 -10   4    0.10    0.25
   4   9  -4    0.38    0.25
  -4  -9   4    0.26    0.26
   3   9  -4    0.20    0.22
  -3  -9   4    0.87    0.30
   2   9  -4    9.40    0.61
   2   9  -4    8.22    0.60
  -2  -9   4    7.89    0.60
   1   9  -4    0.05    0.16
   1   9  -4    0.84    0.24
  -1  -9   4    0.93    0.29
   0   9  -4    9.96    0.63
   0  -9   4   10.50    0.69
  -1   9  -4   25.48    1.02
  -1   9  -4   25.40    1.00
   1  -9   4   25.79    1.05
  -2   9  -4    1.47    0.35
  -2   9  -4    2.10    0.41
   2  -9   4    1.45    0.36
   2  -9   4    1.62    0.37
   5   8  -4   -0.10    0.15
  -5  -8   4    0.01    0.19
  -5  -8   4    0.21    0.23
   4   8  -4   13.35    0.82
  -4  -8   4   14.46    0.80
   3   8  -4    9.54    0.66
  -3  -8   4    9.57    0.65
   2   8  -4   14.61    0.70
   2   8  -4   13.50    0.70
  -2  -8   4   14.70    0.72
   1   8  -4   34.14    1.07
   1   8  -4   35.57    1.08
  -1  -8   4   33.85    1.08
   0   8  -4   40.06    1.11
   0   8  -4   40.99    1.20
   0   8  -4   40.55    1.15
   0  -8   4   44.86    1.25
  -1   8  -4    2.78    0.41
  -1   8  -4    2.42    0.38
   1  -8   4    3.37    0.46
  -2   8  -4    0.25    0.20
  -2   8  -4    0.17    0.20
   2  -8   4    0.14    0.21
   2  -8   4   -0.06    0.18
  -3   8  -4    0.86    0.34
   3  -8   4    0.85    0.31
   5   7  -4   -0.02    0.22
  -5  -7   4    0.05    0.19
  -5  -7   4    0.06    0.23
   4   7  -4    1.42    0.36
  -4  -7   4    1.18    0.29
  -4  -7   4    1.38    0.32
   3   7  -4    0.50    0.22
  -3  -7   4    0.48    0.19
  -3  -7   4    0.77    0.26
   2   7  -4    0.87    0.23
   2   7  -4    1.52    0.30
  -2  -7   4    0.80    0.24
   1   7  -4    2.07    0.32
   1   7  -4    2.15    0.32
   1   7  -4    1.88    0.26
  -1  -7   4    1.69    0.30
   0   7  -4   34.01    0.96
   0   7  -4   31.85    0.99
   0   7  -4   34.05    0.96
   0  -7   4   31.65    0.99
  -1   7  -4    0.15    0.18
  -1   7  -4    0.09    0.16
   1  -7   4    0.05    0.18
  -2   7  -4    4.19    0.46
  -2   7  -4    4.75    0.52
   2  -7   4    3.36    0.45
   2  -7   4    3.39    0.44
  -3   7  -4   -0.34    0.14
   3  -7   4    0.04    0.19
   5   6  -4    1.74    0.42
  -5  -6   4    1.46    0.35
  -5  -6   4    0.71    0.29
   4   6  -4    0.40    0.21
   4   6  -4    0.56    0.24
  -4  -6   4    0.55    0.24
  -4  -6   4    0.42    0.20
   3   6  -4    0.17    0.15
   3   6  -4    0.00    0.15
   3   6  -4    0.01    0.11
  -3  -6   4    0.18    0.16
  -3  -6   4    0.08    0.12
   2   6  -4   20.35    0.63
   2   6  -4   20.47    0.71
   2   6  -4   20.09    0.77
  -2  -6   4   19.64    0.74
  -2  -6   4   20.41    0.63
   1   6  -4   -0.07    0.09
   1   6  -4    0.01    0.11
   1   6  -4    0.16    0.14
  -1  -6   4    0.11    0.12
   0   6  -4    0.75    0.17
   0   6  -4    0.36    0.17
   0   6  -4    0.61    0.17
   0  -6   4    0.42    0.17
  -1   6  -4    3.52    0.39
  -1   6  -4    3.84    0.41
   1  -6   4    3.41    0.39
  -2   6  -4   27.90    0.92
  -2   6  -4   30.60    1.03
   2  -6   4   28.78    0.98
   2  -6   4   29.95    1.00
  -3   6  -4   19.66    0.92
   3  -6   4   19.34    0.87
  -4   6  -4    0.37    0.27
   4  -6   4    1.73    0.39
   5   5  -4    0.02    0.21
  -5  -5   4   -0.05    0.17
  -5  -5   4    0.02    0.20
   4   5  -4   -0.09    0.17
   4   5  -4    0.17    0.20
  -4  -5   4    0.00    0.17
  -4  -5   4    0.34    0.21
   3   5  -4   73.05    1.50
   3   5  -4   71.81    1.63
  -3  -5   4   74.55    1.52
   2   5  -4   58.97    1.17
   2   5  -4   61.02    1.33
  -2  -5   4   57.95    1.13
  -2  -5   4   58.60    1.00
  -2  -5   4   57.40    1.24
   1   5  -4    2.72    0.30
   1   5  -4    2.66    0.19
   1   5  -4    3.45    0.34
   1   5  -4    2.80    0.27
  -1  -5   4    2.83    0.19
  -1  -5   4    2.68    0.31
   0   5  -4    3.61    0.35
   0   5  -4    3.90    0.29
   0   5  -4    3.49    0.27
   0  -5   4    4.18    0.38
  -1   5  -4   19.90    0.69
  -1   5  -4   21.01    0.61
  -1   5  -4   20.80    0.71
   1  -5   4   19.88    0.74
   1  -5   4   20.50    0.71
  -2   5  -4    2.96    0.35
  -2   5  -4    3.20    0.39
   2  -5   4    2.74    0.35
   2  -5   4    3.62    0.41
  -3   5  -4    4.52    0.48
  -3   5  -4    4.93    0.54
   3  -5   4    5.39    0.52
   3  -5   4    6.46    0.50
  -4   5  -4   13.33    0.82
   4  -5   4   12.99    0.77
   5   4  -4    0.49    0.25
   5   4  -4   -0.15    0.19
  -5  -4   4    0.50    0.24
  -5  -4   4    0.54    0.27
   4   4  -4    0.56    0.23
   4   4  -4    0.82    0.24
  -4  -4   4    0.75    0.24
  -4  -4   4    0.56    0.22
   3   4  -4    3.41    0.36
   3   4  -4    2.97    0.39
  -3  -4   4    3.06    0.39
  -3  -4   4    2.76    0.34
   2   4  -4   18.26    0.49
   2   4  -4   18.34    0.55
   2   4  -4   18.46    0.66
   2   4  -4   18.17    0.58
  -2  -4   4   17.86    0.49
  -2  -4   4   17.47    0.57
   1   4  -4    7.60    0.38
   1   4  -4    7.48    0.30
   1   4  -4    6.82    0.35
  -1  -4   4    7.99    0.38
  -1  -4   4    7.89    0.31
   0   4  -4   28.63    0.66
   0   4  -4   26.92    0.73
   0   4  -4   28.39    0.72
   0  -4   4   27.21    0.71
  -1   4  -4    2.05    0.21
  -1   4  -4    1.90    0.25
  -1   4  -4    2.22    0.27
   1  -4   4    2.18    0.30
   1  -4   4    1.99    0.26
  -2   4  -4    6.30    0.38
  -2   4  -4    5.01    0.46
   2  -4   4    4.61    0.42
   2  -4   4    4.62    0.37
  -3   4  -4    7.04    0.51
  -3   4  -4    7.16    0.43
   3  -4   4    6.85    0.47
   3  -4   4    7.18    0.49
  -4   4  -4    0.12    0.19
   4  -4   4   -0.03    0.18
  -5   4  -4    1.39    0.39
  -6  -3   4    3.14    0.55
   5   3  -4    2.21    0.40
   5   3  -4    3.69    0.52
  -5  -3   4    3.96    0.53
  -5  -3   4    4.15    0.54
   4   3  -4   11.76    0.64
   4   3  -4   11.50    0.67
  -4  -3   4   11.42    0.66
  -4  -3   4   12.87    0.66
   3   3  -4    0.48    0.19
   3   3  -4    0.24    0.14
  -3  -3   4    0.36    0.16
  -3  -3   4    0.46    0.17
  -3  -3   4    0.35    0.12
   2   3  -4    3.59    0.27
   2   3  -4    4.53    0.25
   2   3  -4    4.61    0.25
   2   3  -4    4.04    0.31
  -2  -3   4    3.55    0.27
  -2  -3   4    4.05    0.24
   1   3  -4   24.35    0.63
   1   3  -4   23.72    0.60
  -1  -3   4   25.49    0.57
  -1  -3   4   25.47    0.63
   0   3  -4  137.29    1.89
   0   3  -4  139.31    1.89
   0   3  -4  137.44    1.72
   0  -3   4  136.44    1.84
  -1   3  -4   73.20    1.03
  -1   3  -4   71.36    1.30
  -1   3  -4   72.01    1.25
   1  -3   4   72.46    1.33
   1  -3   4   72.17    1.25
  -2   3  -4   19.32    0.61
  -2   3  -4   18.96    0.68
   2  -3   4   18.82    0.65
   2  -3   4   18.31    0.66
  -3   3  -4   35.95    1.07
  -3   3  -4   36.27    0.90
   3  -3   4   36.57    1.04
   3  -3   4   36.11    1.01
  -4   3  -4    0.81    0.25
   4  -3   4    0.90    0.24
  -5   3  -4    0.00    0.22
   5  -3   4    0.10    0.20
   6   2  -4    1.79    0.46
  -6  -2   4    2.44    0.49
  -6  -2   4    1.66    0.41
   5   2  -4   -0.11    0.16
   5   2  -4    0.06    0.19
   5   2  -4    0.16    0.22
  -5  -2   4    0.74    0.27
  -5  -2   4    0.18    0.23
   4   2  -4    0.16    0.16
   4   2  -4    0.10    0.14
   4   2  -4    0.03    0.16
  -4  -2   4    0.42    0.20
  -4  -2   4   -0.02    0.13
   3   2  -4    0.26    0.15
   3   2  -4    0.51    0.18
  -3  -2   4    0.56    0.19
  -3  -2   4    0.68    0.20
  -3  -2   4    0.53    0.14
   2   2  -4   15.16    0.56
   2   2  -4   15.81    0.54
  -2  -2   4   16.55    0.57
  -2  -2   4   15.37    0.46
  -2  -2   4   15.99    0.54
   1   2  -4   32.85    0.67
   1   2  -4   32.43    0.65
   1   2  -4   32.79    0.67
   1   2  -4   32.44    0.70
  -1  -2   4   33.46    0.67
   0   2  -4   11.81    0.39
   0   2  -4   11.90    0.31
   0   2  -4   11.78    0.40
   0  -2   4   12.21    0.43
   0  -2   4   11.48    0.36
  -1   2  -4   36.28    0.81
  -1   2  -4   36.32    0.77
   1  -2   4   35.75    0.82
   1  -2   4   36.15    0.75
  -2   2  -4    3.42    0.23
  -2   2  -4    3.49    0.26
  -2   2  -4    3.46    0.34
  -2   2  -4    3.53    0.23
   2  -2   4    3.43    0.34
   2  -2   4    3.55    0.27
  -3   2  -4   21.38    0.64
  -3   2  -4   19.22    0.74
  -3   2  -4   20.75    0.65
   3  -2   4   20.91    0.74
   3  -2   4   20.66    0.72
  -4   2  -4    1.29    0.29
   4  -2   4    1.16    0.28
  -5   2  -4   -0.03    0.19
   5  -2   4   -0.18    0.18
   5   1  -4    0.54    0.27
   5   1  -4    0.61    0.24
   5   1  -4    0.85    0.31
  -5  -1   4    0.39    0.23
  -5  -1   4    0.95    0.31
   4   1  -4   -0.09    0.12
   4   1  -4   -0.12    0.13
   4   1  -4    0.19    0.15
  -4  -1   4    0.08    0.15
  -4  -1   4    0.00    0.13
  -4  -1   4    0.00    0.14
   3   1  -4    6.52    0.38
   3   1  -4    6.35    0.42
   3   1  -4    7.07    0.42
  -3  -1   4    6.58    0.43
  -3  -1   4    6.99    0.44
  -3  -1   4    6.97    0.36
   2   1  -4    8.77    0.39
   2   1  -4    8.56    0.42
   2   1  -4    8.38    0.36
  -2  -1   4    7.91    0.41
  -2  -1   4    8.32    0.35
  -2  -1   4    9.33    0.41
   1   1  -4    2.62    0.19
   1   1  -4    2.77    0.21
   1   1  -4    2.80    0.20
  -1  -1   4    2.29    0.18
  -1  -1   4    2.90    0.21
   0   1  -4   57.61    0.92
   0   1  -4   56.77    0.94
   0  -1   4   57.42    0.81
   0  -1   4   58.13    0.95
  -1   1  -4    6.29    0.30
  -1   1  -4    6.53    0.29
   1  -1   4    6.34    0.26
   1  -1   4    6.12    0.31
  -2   1  -4   68.53    1.23
  -2   1  -4   70.56    1.16
  -2   1  -4   70.15    1.04
   2  -1   4   67.25    1.19
   2  -1   4   69.67    1.27
  -3   1  -4    0.20    0.13
  -3   1  -4    0.24    0.14
  -3   1  -4    0.23    0.13
   3  -1   4    0.16    0.13
   3  -1   4    0.31    0.16
  -4   1  -4    1.42    0.27
  -4   1  -4    1.88    0.31
   4  -1   4    1.37    0.27
  -5   1  -4    0.14    0.20
   5  -1   4    0.61    0.25
   5   0  -4    8.74    0.62
   5   0  -4    8.45    0.66
   5   0  -4    8.37    0.60
  -5   0   4    7.06    0.68
  -5   0   4    8.79    0.67
   4   0  -4    6.57    0.48
   4   0  -4    7.25    0.51
   4   0  -4    6.99    0.54
  -4   0   4    6.83    0.52
  -4   0   4    8.32    0.54
  -4   0   4    6.46    0.44
   3   0  -4    9.41    0.46
   3   0  -4    9.91    0.53
   3   0  -4    9.59    0.49
  -3   0   4    8.93    0.48
  -3   0   4    9.75    0.45
  -3   0   4    8.51    0.50
   2   0  -4   36.17    0.85
   2   0  -4   36.69    0.88
   2   0  -4   36.24    0.78
  -2   0   4   36.18    0.87
  -2   0   4   37.03    0.85
  -2   0   4   36.38    0.80
   1   0  -4   19.69    0.51
   1   0  -4   19.84    0.42
   1   0  -4   19.62    0.50
   1   0  -4   20.07    0.52
  -1   0   4   20.24    0.52
  -1   0   4   20.71    0.52
  -1   0   4   20.38    0.40
   0   0  -4    0.22    0.09
   0   0  -4    0.27    0.09
   0   0   4    0.34    0.06
   0   0   4    0.35    0.10
  -1   0  -4   48.70    0.84
  -1   0  -4   49.18    0.86
   1   0   4   49.51    0.74
   1   0   4   49.28    0.90
  -2   0  -4   43.70    0.89
  -2   0  -4   46.41    0.78
  -2   0  -4   45.20    0.90
   2   0   4   42.65    0.94
   2   0   4   44.96    0.86
   2   0   4   45.67    0.76
  -3   0  -4    1.03    0.21
  -3   0  -4    1.05    0.21
  -3   0  -4    1.11    0.17
   3   0   4    0.93    0.20
   3   0   4    0.83    0.18
   3   0   4    1.06    0.17
  -4   0  -4   22.56    0.81
  -4   0  -4   21.84    0.76
   4   0   4   21.83    0.82
  -5   0  -4   24.30    0.98
   5   0   4   25.31    1.01
   5  -1  -4    2.89    0.45
   5  -1  -4    2.39    0.41
  -5   1   4    2.84    0.47
  -5   1   4    3.38    0.50
  -5   1   4    2.70    0.39
   4  -1  -4    1.25    0.28
   4  -1  -4    1.72    0.30
   4  -1  -4    1.93    0.35
  -4   1   4    1.47    0.27
  -4   1   4    1.54    0.32
  -4   1   4    1.23    0.27
   3  -1  -4    0.33    0.15
   3  -1  -4    0.43    0.18
   3  -1  -4    0.51    0.17
  -3   1   4    0.32    0.16
  -3   1   4    0.43    0.16
  -3   1   4    0.62    0.20
   2  -1  -4   83.32    1.43
   2  -1  -4   84.81    1.50
   2  -1  -4   84.99    1.34
  -2   1   4   86.86    1.43
  -2   1   4   83.72    1.49
   1  -1  -4    9.27    0.36
   1  -1  -4    9.07    0.27
   1  -1  -4    8.42    0.34
  -1   1   4    8.88    0.22
  -1   1   4    9.16    0.36
  -1   1   4    8.52    0.34
   0  -1  -4   17.55    0.44
   0  -1  -4   15.81    0.43
   0   1   4   16.43    0.41
   0   1   4   17.26    0.40
   0   1   4   17.20    0.44
  -1  -1  -4   43.30    0.80
  -1  -1  -4   43.16    0.75
   1   1   4   42.89    0.82
   1   1   4   43.58    0.62
  -2  -1  -4  143.12    1.88
  -2  -1  -4  147.19    2.02
   2   1   4  143.96    1.88
   2   1   4  147.97    2.06
   2   1   4  145.92    1.75
  -3  -1  -4   31.71    0.73
  -3  -1  -4   29.50    0.84
  -3  -1  -4   31.82    0.77
   3   1   4   29.35    0.80
   3   1   4   30.60    0.85
   3   1   4   31.28    0.73
  -4  -1  -4    2.00    0.33
  -4  -1  -4    2.62    0.31
   4   1   4    2.40    0.32
   4   1   4    2.58    0.35
  -5  -1  -4    0.32    0.24
   5   1   4    0.28    0.20
  -6  -1  -4    1.78    0.43
   5  -2  -4    0.48    0.22
   5  -2  -4    0.85    0.28
  -5   2   4    1.43    0.35
  -5   2   4    1.32    0.34
  -5   2   4    0.09    0.22
   4  -2  -4    0.44    0.19
   4  -2  -4    1.33    0.29
  -4   2   4    0.63    0.22
  -4   2   4    1.05    0.28
  -4   2   4    0.59    0.21
   3  -2  -4   24.87    0.78
   3  -2  -4   24.37    0.79
  -3   2   4   25.79    0.83
  -3   2   4   24.52    0.87
  -3   2   4   24.44    0.79
   2  -2  -4    0.04    0.08
   2  -2  -4    0.00    0.07
  -2   2   4   -0.03    0.10
  -2   2   4   -0.08    0.09
   1  -2  -4    0.38    0.11
   1  -2  -4    0.62    0.10
  -1   2   4    0.40    0.13
  -1   2   4    0.24    0.11
  -1   2   4    0.31    0.06
   0  -2  -4  153.89    1.90
   0  -2  -4  155.23    1.93
   0  -2  -4  151.29    1.59
   0   2   4  153.01    1.89
   0   2   4  150.31    1.84
   0   2   4  155.11    1.92
  -1  -2  -4   23.35    0.58
  -1  -2  -4   24.21    0.50
   1   2   4   23.45    0.49
   1   2   4   24.56    0.61
  -2  -2  -4   49.16    1.00
  -2  -2  -4   49.55    0.82
   2   2   4   50.20    0.86
   2   2   4   47.92    1.00
   2   2   4   49.68    0.87
  -3  -2  -4   27.02    0.70
  -3  -2  -4   26.88    0.64
  -3  -2  -4   25.85    0.80
   3   2   4   26.58    0.69
   3   2   4   28.23    0.81
   3   2   4   27.17    0.74
  -4  -2  -4    0.32    0.18
   4   2   4    0.26    0.26
   4   2   4    0.27    0.17
   4   2   4    0.13    0.14
  -5  -2  -4    0.44    0.25
   5   2   4    0.43    0.22
  -6  -2  -4    1.76    0.45
   6   2   4    1.34    0.39
   5  -3  -4    0.82    0.26
   5  -3  -4    1.31    0.35
  -5   3   4    1.16    0.31
  -5   3   4    0.98    0.33
  -5   3   4    1.00    0.31
   4  -3  -4   -0.23    0.13
   4  -3  -4    0.20    0.16
  -4   3   4    0.20    0.21
  -4   3   4    0.27    0.17
  -4   3   4    0.21    0.16
   3  -3  -4   44.24    1.11
   3  -3  -4   45.04    1.11
  -3   3   4   44.20    1.17
  -3   3   4   45.53    1.25
  -3   3   4   45.60    1.11
   2  -3  -4    3.64    0.26
   2  -3  -4    3.27    0.31
  -2   3   4    2.66    0.33
  -2   3   4    3.36    0.35
   1  -3  -4   34.72    0.76
   1  -3  -4   35.89    0.84
  -1   3   4   36.58    0.61
  -1   3   4   35.03    0.85
  -1   3   4   34.38    0.80
   0  -3  -4    9.71    0.26
   0   3   4   10.10    0.34
   0   3   4   10.45    0.40
   0   3   4   10.46    0.36
  -1  -3  -4   34.94    0.63
  -1  -3  -4   35.25    0.75
   1   3   4   34.30    0.63
   1   3   4   34.03    0.77
   1   3   4   34.87    0.72
  -2  -3  -4   14.33    0.37
  -2  -3  -4   15.24    0.54
   2   3   4   14.33    0.53
   2   3   4   14.61    0.46
  -3  -3  -4   11.23    0.37
  -3  -3  -4   11.20    0.54
   3   3   4   12.47    0.54
   3   3   4   12.08    0.48
   3   3   4   11.71    0.48
  -4  -3  -4    0.01    0.16
  -4  -3  -4    0.19    0.14
   4   3   4    0.27    0.15
   4   3   4    0.58    0.19
   4   3   4    0.19    0.18
  -5  -3  -4    4.51    0.55
   5   3   4    4.08    0.48
  -6  -3  -4   -0.09    0.25
   6   3   4   -0.02    0.20
   5  -4  -4    1.66    0.37
  -5   4   4    1.53    0.38
  -5   4   4    1.63    0.41
   4  -4  -4    2.80    0.39
   4  -4  -4    3.13    0.42
  -4   4   4    3.60    0.52
  -4   4   4    2.18    0.35
  -4   4   4    2.75    0.43
   3  -4  -4    6.55    0.43
   3  -4  -4    7.17    0.43
  -3   4   4    6.81    0.50
  -3   4   4    6.69    0.42
  -3   4   4    6.17    0.49
   2  -4  -4   10.31    0.44
   2  -4  -4   10.62    0.48
  -2   4   4   11.09    0.53
  -2   4   4   10.66    0.57
   1  -4  -4   19.66    0.56
  -1   4   4   19.29    0.61
  -1   4   4   19.76    0.48
  -1   4   4   19.00    0.67
   0  -4  -4   63.48    1.07
   0  -4  -4   63.12    0.97
   0   4   4   63.90    1.19
   0   4   4   65.16    1.09
   0   4   4   64.78    1.08
  -1  -4  -4    2.64    0.18
  -1  -4  -4    2.78    0.17
  -1  -4  -4    2.74    0.26
   1   4   4    2.91    0.28
   1   4   4    2.64    0.26
   1   4   4    2.76    0.17
  -2  -4  -4   23.32    0.45
  -2  -4  -4   24.41    0.71
   2   4   4   23.75    0.46
   2   4   4   23.39    0.66
   2   4   4   24.10    0.73
  -3  -4  -4    8.93    0.49
   3   4   4    7.75    0.46
   3   4   4    8.34    0.43
  -4  -4  -4    3.40    0.44
   4   4   4    2.94    0.37
   4   4   4    2.96    0.37
   4   4   4    2.79    0.34
  -5  -4  -4    4.83    0.57
   5   4   4    5.29    0.53
  -6  -4  -4   -0.15    0.27
   4  -5  -4   10.81    0.65
  -4   5   4   11.10    0.73
  -4   5   4   10.50    0.74
   3  -5  -4    0.23    0.16
  -3   5   4   -0.14    0.15
  -3   5   4   -0.02    0.15
   2  -5  -4    2.35    0.29
   2  -5  -4    2.38    0.27
  -2   5   4    2.96    0.42
  -2   5   4    2.09    0.31
   1  -5  -4    1.82    0.22
   1  -5  -4    2.36    0.26
  -1   5   4    2.05    0.31
  -1   5   4    1.88    0.26
   0  -5  -4    8.40    0.35
   0   5   4    8.95    0.39
   0   5   4    8.39    0.44
   0   5   4    8.10    0.36
  -1  -5  -4    4.22    0.28
  -1  -5  -4    5.05    0.28
   1   5   4    4.52    0.31
   1   5   4    4.05    0.31
   1   5   4    4.40    0.23
  -2  -5  -4   26.55    0.76
   2   5   4   26.54    0.82
   2   5   4   25.25    0.76
  -3  -5  -4    0.13    0.16
   3   5   4    0.41    0.18
   3   5   4    0.23    0.17
  -4  -5  -4    0.48    0.24
   4   5   4    0.08    0.16
   4   5   4    0.25    0.20
  -5  -5  -4    0.42    0.38
  -5  -5  -4    0.63    0.27
   5   5   4   -0.08    0.19
   5   5   4    0.38    0.22
  -6  -5  -4    0.54    0.36
   4  -6  -4    1.74    0.37
  -4   6   4    1.46    0.38
  -4   6   4    2.00    0.43
   3  -6  -4    0.44    0.21
  -3   6   4    0.26    0.21
  -3   6   4    0.01    0.20
   2  -6  -4    2.32    0.31
  -2   6   4    2.54    0.36
  -2   6   4    3.14    0.45
   1  -6  -4    1.25    0.22
   1  -6  -4    1.56    0.21
  -1   6   4    1.57    0.31
  -1   6   4    1.19    0.23
   0  -6  -4   18.12    0.63
   0  -6  -4   18.65    0.54
   0   6   4   18.17    0.59
   0   6   4   19.10    0.62
   0   6   4   19.18    0.72
  -1  -6  -4   11.83    0.47
   1   6   4   12.60    0.55
   1   6   4   11.32    0.54
   1   6   4   11.83    0.40
  -2  -6  -4    7.55    0.39
  -2  -6  -4    7.97    0.44
   2   6   4    7.61    0.45
   2   6   4    7.21    0.45
  -3  -6  -4    0.34    0.19
   3   6   4   -0.04    0.14
   3   6   4    0.12    0.15
  -4  -6  -4    0.05    0.18
   4   6   4   -0.08    0.17
   4   6   4   -0.09    0.14
  -5  -6  -4    0.17    0.23
   5   6   4    0.15    0.21
   5   6   4   -0.07    0.20
  -6  -6  -4    0.39    0.27
   4  -7  -4   12.71    0.76
  -4   7   4   13.45    0.87
  -4   7   4   12.09    0.89
   3  -7  -4    6.68    0.61
  -3   7   4    7.89    0.73
  -3   7   4    7.98    0.66
   2  -7  -4    0.45    0.19
  -2   7   4    0.43    0.20
  -2   7   4    0.35    0.24
   1  -7  -4   22.26    0.75
  -1   7   4   22.72    0.90
  -1   7   4   24.01    0.83
   0  -7  -4    8.33    0.44
   0  -7  -4    8.84    0.44
   0   7   4    8.49    0.53
   0   7   4    8.57    0.47
   0   7   4    8.51    0.43
  -1  -7  -4    2.16    0.26
  -1  -7  -4    1.92    0.26
   1   7   4    1.89    0.29
   1   7   4    2.03    0.33
  -2  -7  -4    5.95    0.39
  -2  -7  -4    6.17    0.40
   2   7   4    5.66    0.43
   2   7   4    5.68    0.44
  -3  -7  -4    6.04    0.45
  -3  -7  -4    5.91    0.42
   3   7   4    5.56    0.44
   3   7   4    6.10    0.49
  -4  -7  -4    1.35    0.35
   4   7   4    0.43    0.23
   4   7   4    1.34    0.31
  -5  -7  -4    9.75    0.73
   5   7   4   10.59    0.71
   5   7   4   10.43    0.72
   3  -8  -4    3.76    0.48
  -3   8   4    4.40    0.58
  -3   8   4    3.11    0.52
   2  -8  -4    2.13    0.36
  -2   8   4    0.70    0.29
  -2   8   4    1.00    0.29
   1  -8  -4    8.84    0.52
  -1   8   4    8.10    0.59
  -1   8   4    7.51    0.51
   0  -8  -4   62.34    1.34
   0   8   4   62.10    1.31
   0   8   4   62.63    1.56
  -1  -8  -4   12.11    0.56
   1   8   4   11.38    0.64
   1   8   4   11.76    0.61
  -2  -8  -4    2.01    0.30
  -2  -8  -4    1.66    0.28
   2   8   4    1.47    0.31
   2   8   4    1.65    0.32
  -3  -8  -4    1.45    0.28
  -3  -8  -4    1.34    0.29
   3   8   4    2.68    0.40
   3   8   4    1.43    0.30
  -4  -8  -4    1.56    0.34
  -4  -8  -4    1.33    0.32
   4   8   4    2.21    0.43
   4   8   4    1.85    0.37
  -5  -8  -4    0.91    0.38
   5   8   4    1.32    0.36
   5   8   4    1.94    0.43
   3  -9  -4    3.86    0.52
  -3   9   4    3.49    0.59
  -3   9   4    3.68    0.55
   2  -9  -4    0.44    0.26
  -2   9   4    0.39    0.24
  -2   9   4    0.81    0.31
   1  -9  -4   18.98    0.81
  -1   9   4   17.81    0.80
  -1   9   4   17.99    0.90
   0  -9  -4    0.55    0.22
   0   9   4    0.23    0.19
   0   9   4    0.63    0.26
  -1  -9  -4    0.19    0.18
   1   9   4    0.77    0.27
   1   9   4    0.41    0.23
  -2  -9  -4   15.20    0.67
   2   9   4   13.45    0.75
   2   9   4   13.54    0.72
  -3  -9  -4    1.47    0.32
  -3  -9  -4    1.29    0.30
   3   9   4    1.41    0.34
   3   9   4    1.43    0.36
  -4  -9  -4    0.89    0.28
  -4  -9  -4    0.54    0.28
   4   9   4    0.50    0.27
   4   9   4    0.51    0.26
  -5  -9  -4    0.75    0.30
  -5  -9  -4    0.35    0.32
   5   9   4   -0.43    0.19
   5   9   4   -0.26    0.21
   2 -10  -4    1.19    0.33
  -2  10   4    1.10    0.36
  -2  10   4    1.25    0.37
   1 -10  -4   -0.02    0.21
  -1  10   4    0.23    0.22
  -1  10   4    0.06    0.19
   0 -10  -4    9.54    0.60
   0  10   4    9.44    0.70
  -1 -10  -4    4.22    0.48
   1  10   4    4.30    0.55
  -2 -10  -4    0.36    0.20
   2  10   4    0.17    0.21
   2  10   4    0.30    0.24
  -3 -10  -4   12.89    0.71
   3  10   4   12.66    0.79
   3  10   4   12.66    0.80
  -4 -10  -4   -0.35    0.21
  -4 -10  -4    0.02    0.23
   4  10   4    0.03    0.24
   4  10   4    0.20    0.20
   1 -11  -4   11.21    0.71
  -1  11   4   11.19    0.82
   0 -11  -4   10.93    0.66
   0  11   4   10.99    0.81
  -1 -11  -4    1.69    0.34
   1  11   4    2.54    0.48
  -2 -11  -4    0.55    0.28
   2  11   4    0.44    0.27
  -3 -11  -4    0.51    0.29
   3  11   4    0.44    0.28
   3  11   4    0.09    0.25
  -4 -11  -4    1.35    0.37
   4  11   4    1.37    0.42
   4  11   4    1.83    0.46
   0 -12  -4    0.74    0.35
   0  12   4    0.58    0.31
  -1 -12  -4    3.59    0.51
   1  12   4    5.04    0.69
  -2 -12  -4   10.78    0.72
   2  12   4   11.74    0.84
   3  12   4    2.82    0.54
   2  11  -5    0.57    0.30
   1  11  -5    9.88    0.72
   0  11  -5   10.13    0.75
   3  10  -5    0.58    0.30
  -3 -10   5    0.49    0.27
   2  10  -5    0.23    0.22
   2  10  -5    0.26    0.22
  -2 -10   5   -0.10    0.24
   1  10  -5    7.56    0.72
  -1 -10   5    8.51    0.75
   0  10  -5   15.09    0.83
   0 -10   5   15.84    0.88
  -1  10  -5    0.86    0.30
  -1  10  -5    0.87    0.29
   1 -10   5    1.38    0.41
   1 -10   5    0.98    0.34
   4   9  -5    4.20    0.59
  -4  -9   5    4.03    0.58
   3   9  -5    0.04    0.22
  -3  -9   5   -0.21    0.18
   2   9  -5    0.66    0.26
   2   9  -5    0.16    0.22
  -2  -9   5    0.35    0.23
   1   9  -5    0.16    0.18
   1   9  -5   -0.10    0.14
  -1  -9   5    0.19    0.19
   0   9  -5   -0.10    0.15
   0  -9   5    0.06    0.22
  -1   9  -5   -0.04    0.18
  -1   9  -5    0.08    0.17
   1  -9   5    0.13    0.26
   1  -9   5    0.06    0.25
  -2   9  -5    0.42    0.25
  -2   9  -5    0.52    0.28
   2  -9   5    0.46    0.26
   2  -9   5    0.35    0.27
   4   8  -5    5.59    0.65
  -4  -8   5    5.48    0.63
   3   8  -5    0.84    0.24
   3   8  -5    0.44    0.23
  -3  -8   5    0.65    0.26
   2   8  -5    3.58    0.46
   2   8  -5    4.38    0.47
  -2  -8   5    3.45    0.44
   1   8  -5    3.46    0.43
   1   8  -5    3.07    0.41
  -1  -8   5    3.71    0.46
   0   8  -5    1.81    0.36
   0   8  -5    1.91    0.31
   0  -8   5    2.27    0.38
  -1   8  -5    2.51    0.39
  -1   8  -5    2.68    0.42
   1  -8   5    2.19    0.41
   1  -8   5    1.65    0.35
  -2   8  -5    6.21    0.66
  -2   8  -5    5.79    0.58
   2  -8   5    5.18    0.58
   2  -8   5    5.95    0.63
  -3   8  -5    0.60    0.30
   5   7  -5    0.02    0.22
  -5  -7   5    0.79    0.32
  -5  -7   5    0.45    0.28
   4   7  -5   -0.07    0.15
  -4  -7   5   -0.03    0.16
  -4  -7   5   -0.08    0.18
  -4  -7   5    0.24    0.19
   3   7  -5   19.40    0.84
   3   7  -5   18.39    0.87
  -3  -7   5   18.81    0.83
   2   7  -5    1.69    0.33
   2   7  -5    1.93    0.33
  -2  -7   5    1.57    0.31
   1   7  -5    1.47    0.28
   1   7  -5    2.11    0.33
   1   7  -5    1.03    0.33
  -1  -7   5    2.43    0.35
   0   7  -5    1.76    0.29
   0   7  -5    1.74    0.31
   0  -7   5    1.76    0.32
  -1   7  -5   16.76    0.75
  -1   7  -5   17.57    0.77
   1  -7   5   16.27    0.79
   1  -7   5   15.74    0.73
  -2   7  -5    2.26    0.36
  -2   7  -5    2.56    0.41
   2  -7   5    2.14    0.39
   2  -7   5    2.37    0.38
  -3   7  -5    0.51    0.27
   3  -7   5    0.44    0.26
   5   6  -5    0.04    0.20
  -5  -6   5    0.11    0.24
  -5  -6   5    0.00    0.20
   4   6  -5    3.12    0.43
   4   6  -5    2.70    0.45
  -4  -6   5    3.25    0.44
  -4  -6   5    3.32    0.49
   3   6  -5    1.62    0.34
   3   6  -5    1.82    0.28
  -3  -6   5    1.88    0.34
  -3  -6   5    1.41    0.28
   2   6  -5    3.80    0.43
   2   6  -5    4.24    0.41
  -2  -6   5    3.97    0.43
   1   6  -5    0.93    0.23
   1   6  -5    1.10    0.22
  -1  -6   5    0.56    0.19
   0   6  -5   16.70    0.65
   0   6  -5   15.75    0.67
   0   6  -5   16.21    0.60
   0  -6   5   17.44    0.69
  -1   6  -5    5.34    0.49
  -1   6  -5    4.07    0.44
   1  -6   5    4.99    0.52
   1  -6   5    4.64    0.46
  -2   6  -5    1.11    0.29
  -2   6  -5    1.04    0.25
   2  -6   5    1.50    0.30
   2  -6   5    1.88    0.36
  -3   6  -5   -0.22    0.14
  -3   6  -5    0.02    0.17
   3  -6   5   -0.05    0.18
   3  -6   5    0.12    0.19
  -4   6  -5    0.22    0.26
   4  -6   5    0.01    0.37
   5   5  -5    2.08    0.43
   5   5  -5    1.55    0.37
  -5  -5   5    1.95    0.41
  -5  -5   5    2.22    0.42
   4   5  -5    5.61    0.58
   4   5  -5    5.51    0.60
  -4  -5   5    6.04    0.62
  -4  -5   5    5.52    0.57
   3   5  -5   18.35    0.72
   3   5  -5   16.27    0.75
  -3  -5   5   19.78    0.73
   2   5  -5    6.58    0.44
   2   5  -5    6.86    0.40
   2   5  -5    6.54    0.39
  -2  -5   5    7.67    0.36
  -2  -5   5    7.02    0.43
  -2  -5   5    6.78    0.38
   1   5  -5    1.28    0.24
   1   5  -5    1.17    0.22
  -1  -5   5    1.09    0.22
  -1  -5   5    1.02    0.17
   0   5  -5   22.16    0.64
   0   5  -5   24.31    0.74
   0   5  -5   22.23    0.73
   0  -5   5   21.34    0.72
  -1   5  -5   12.47    0.57
  -1   5  -5   12.33    0.58
   1  -5   5   11.13    0.59
   1  -5   5   13.44    0.58
  -2   5  -5    0.30    0.20
  -2   5  -5    0.06    0.13
   2  -5   5    0.24    0.19
   2  -5   5    0.04    0.16
  -3   5  -5    1.40    0.32
  -3   5  -5    0.87    0.24
   3  -5   5    1.49    0.30
   3  -5   5    0.98    0.27
  -4   5  -5    9.96    0.70
   4  -5   5    9.43    0.67
   5   4  -5    0.64    0.29
   5   4  -5    0.87    0.31
  -5  -4   5    0.38    0.23
  -5  -4   5    0.43    0.22
   4   4  -5    3.26    0.46
   4   4  -5    3.30    0.46
  -4  -4   5    3.49    0.46
  -4  -4   5    3.26    0.45
   3   4  -5   34.08    0.98
   3   4  -5   32.94    1.05
  -3  -4   5   30.60    1.00
  -3  -4   5   32.15    0.96
   2   4  -5    1.01    0.19
   2   4  -5    0.87    0.16
   2   4  -5    1.10    0.22
   2   4  -5    0.74    0.16
  -2  -4   5    0.93    0.20
  -2  -4   5    1.20    0.20
  -2  -4   5    1.21    0.18
   1   4  -5    7.19    0.31
   1   4  -5    7.56    0.38
   1   4  -5    7.19    0.35
   1   4  -5    7.48    0.38
  -1  -4   5    6.65    0.30
  -1  -4   5    6.53    0.37
   0   4  -5    1.48    0.19
   0   4  -5    1.18    0.21
   0   4  -5    1.06    0.19
   0  -4   5    1.24    0.21
  -1   4  -5    0.63    0.19
  -1   4  -5    0.29    0.15
   1  -4   5    0.82    0.19
   1  -4   5    0.69    0.19
  -2   4  -5   49.46    1.24
  -2   4  -5   50.61    1.16
   2  -4   5   51.07    1.25
   2  -4   5   51.71    1.21
  -3   4  -5   30.75    1.05
  -3   4  -5   32.53    0.94
   3  -4   5   32.69    1.05
   3  -4   5   30.38    1.01
  -4   4  -5    0.75    0.27
   4  -4   5    0.65    0.24
   5   3  -5    0.85    0.29
   5   3  -5    0.70    0.29
  -5  -3   5    0.74    0.26
  -5  -3   5    0.79    0.30
   4   3  -5    1.08    0.29
   4   3  -5    1.00    0.26
  -4  -3   5    0.74    0.26
  -4  -3   5    0.83    0.25
   3   3  -5    0.78    0.23
   3   3  -5    1.55    0.27
  -3  -3   5    1.46    0.21
  -3  -3   5    1.52    0.28
  -3  -3   5    1.37    0.28
   2   3  -5   17.98    0.65
   2   3  -5   18.77    0.53
   2   3  -5   18.71    0.55
   2   3  -5   18.46    0.61
  -2  -3   5   17.93    0.64
  -2  -3   5   17.92    0.61
  -2  -3   5   18.40    0.55
   1   3  -5   17.48    0.53
   1   3  -5   19.18    0.56
   1   3  -5   19.33    0.56
  -1  -3   5   18.73    0.56
   0   3  -5    4.11    0.21
   0   3  -5    4.01    0.27
   0   3  -5    3.63    0.21
   0   3  -5    4.02    0.28
   0  -3   5    4.62    0.27
   0  -3   5    4.11    0.30
  -1   3  -5   88.01    1.55
  -1   3  -5   90.69    1.23
  -1   3  -5   91.29    1.52
   1  -3   5   90.55    1.47
   1  -3   5   89.29    1.59
  -2   3  -5    2.11    0.30
  -2   3  -5    2.16    0.28
   2  -3   5    1.74    0.28
   2  -3   5    1.92    0.27
  -3   3  -5    5.87    0.38
  -3   3  -5    7.52    0.50
   3  -3   5    5.56    0.50
   3  -3   5    6.10    0.46
  -4   3  -5    5.52    0.59
   4  -3   5    4.87    0.52
  -5   3  -5   -0.25    0.20
   5  -3   5    0.18    0.21
   5   2  -5    6.66    0.67
   5   2  -5    8.00    0.65
  -5  -2   5    7.95    0.63
  -5  -2   5    8.50    0.65
   4   2  -5   26.39    0.98
   4   2  -5   27.66    1.02
  -4  -2   5   24.64    0.95
  -4  -2   5   28.02    1.03
   3   2  -5    3.79    0.40
   3   2  -5    4.11    0.44
  -3  -2   5    4.33    0.45
  -3  -2   5    3.73    0.29
  -3  -2   5    4.29    0.43
   2   2  -5   70.60    1.08
   2   2  -5   72.86    1.31
   2   2  -5   69.04    1.34
  -2  -2   5   72.35    1.33
  -2  -2   5   69.43    1.20
  -2  -2   5   71.20    1.36
   1   2  -5    9.95    0.37
   1   2  -5   10.10    0.39
   1   2  -5   10.16    0.38
   1   2  -5   10.36    0.39
  -1  -2   5   10.81    0.39
  -1  -2   5    9.70    0.36
   0   2  -5    2.69    0.25
   0   2  -5    2.19    0.17
   0   2  -5    2.28    0.23
   0   2  -5    2.37    0.15
   0  -2   5    2.57    0.26
   0  -2   5    2.73    0.19
  -1   2  -5   29.93    0.76
  -1   2  -5   30.76    0.74
  -1   2  -5   29.71    0.61
   1  -2   5   29.62    0.69
   1  -2   5   29.54    0.78
  -2   2  -5    3.04    0.33
  -2   2  -5    3.23    0.32
  -2   2  -5    3.01    0.27
   2  -2   5    2.53    0.28
   2  -2   5    2.54    0.30
  -3   2  -5    8.20    0.49
  -3   2  -5    7.95    0.43
  -3   2  -5    7.75    0.42
   3  -2   5    7.49    0.47
   3  -2   5    7.76    0.47
  -4   2  -5    4.18    0.47
   4  -2   5    3.82    0.46
  -5   2  -5    0.82    0.27
   5  -2   5    0.59    0.26
   5   1  -5    2.80    0.43
   5   1  -5    1.11    0.30
   5   1  -5    1.62    0.36
  -5  -1   5    1.77    0.37
  -5  -1   5    1.18    0.31
   4   1  -5    1.38    0.29
   4   1  -5    1.51    0.32
   4   1  -5    1.10    0.26
  -4  -1   5    0.97    0.26
  -4  -1   5    1.48    0.31
  -4  -1   5    1.39    0.25
   3   1  -5    1.74    0.29
   3   1  -5    2.55    0.34
   3   1  -5    2.15    0.27
  -3  -1   5    2.18    0.31
  -3  -1   5    2.22    0.32
  -3  -1   5    2.19    0.27
   2   1  -5   -0.10    0.06
   2   1  -5    0.02    0.09
   2   1  -5   -0.01    0.11
  -2  -1   5    0.09    0.10
  -2  -1   5   -0.09    0.07
  -2  -1   5    0.00    0.09
   1   1  -5   47.81    0.88
   1   1  -5   47.28    0.90
   1   1  -5   47.07    0.81
   1   1  -5   46.29    0.88
  -1  -1   5   46.05    0.82
  -1  -1   5   44.47    0.88
  -1  -1   5   46.25    0.88
   0   1  -5   31.69    0.68
   0   1  -5   31.45    0.70
   0   1  -5   32.09    0.65
   0  -1   5   33.10    0.57
   0  -1   5   32.55    0.72
  -1   1  -5   -0.04    0.08
  -1   1  -5   -0.14    0.06
   1  -1   5    0.03    0.08
   1  -1   5    0.24    0.12
  -2   1  -5   71.13    1.32
  -2   1  -5   68.64    1.23
   2  -1   5   70.30    1.35
   2  -1   5   72.83    1.24
  -3   1  -5    1.09    0.20
  -3   1  -5    0.97    0.22
  -3   1  -5    1.20    0.24
   3  -1   5    0.80    0.19
   3  -1   5    1.35    0.25
  -4   1  -5    8.55    0.54
  -4   1  -5    8.52    0.53
   4  -1   5    8.25    0.52
   4  -1   5    8.24    0.52
  -5   1  -5    0.32    0.18
   5  -1   5    0.42    0.24
   5   0  -5    0.49    0.26
   5   0  -5    0.35    0.25
   5   0  -5    0.56    0.28
  -5   0   5    0.89    0.31
  -5   0   5    0.22    0.23
   4   0  -5    5.43    0.53
   4   0  -5    4.97    0.48
   4   0  -5    3.76    0.48
  -4   0   5    5.42    0.43
  -4   0   5    5.37    0.54
  -4   0   5    4.58    0.53
   3   0  -5    0.09    0.13
   3   0  -5   -0.12    0.10
   3   0  -5    0.00    0.13
  -3   0   5   -0.15    0.09
  -3   0   5    0.17    0.15
  -3   0   5   -0.06    0.12
   2   0  -5   19.83    0.66
   2   0  -5   19.26    0.55
   2   0  -5   19.95    0.64
  -2   0   5   19.36    0.36
  -2   0   5   19.07    0.65
  -2   0   5   19.36    0.60
   1   0  -5   52.64    0.96
   1   0  -5   52.58    0.99
   1   0  -5   51.76    0.96
  -1   0   5   52.42    0.82
  -1   0   5   53.52    0.98
  -1   0   5   51.64    0.96
   0   0  -5   22.58    0.55
   0   0  -5   21.20    0.54
   0   0   5   22.04    0.50
   0   0   5   21.66    0.36
   0   0   5   22.48    0.55
  -1   0  -5   31.51    0.71
  -1   0  -5   31.73    0.69
   1   0   5   31.69    0.75
   1   0   5   31.67    0.56
  -2   0  -5   10.86    0.44
  -2   0  -5   10.25    0.42
   2   0   5    9.78    0.38
   2   0   5   10.07    0.46
  -3   0  -5    9.35    0.46
  -3   0  -5    8.15    0.46
  -3   0  -5   10.02    0.43
   3   0   5    8.39    0.43
   3   0   5    8.83    0.48
  -4   0  -5    0.65    0.22
  -4   0  -5    1.02    0.24
   4   0   5    0.75    0.22
   4   0   5    0.54    0.20
  -5   0  -5    5.06    0.57
   5   0   5    4.95    0.56
   5  -1  -5    0.50    0.24
   5  -1  -5    1.18    0.32
  -5   1   5    0.97    0.31
  -5   1   5    0.72    0.28
  -5   1   5    1.03    0.30
   4  -1  -5   17.33    0.73
   4  -1  -5   16.43    0.76
  -4   1   5   16.25    0.77
  -4   1   5   15.80    0.79
  -4   1   5   17.99    0.76
   3  -1  -5   37.26    1.03
   3  -1  -5   40.17    1.12
   3  -1  -5   40.39    0.98
  -3   1   5   37.93    1.10
  -3   1   5   38.53    1.05
  -3   1   5   37.15    0.99
   2  -1  -5  133.28    2.07
   2  -1  -5  135.29    2.03
   2  -1  -5  134.73    1.97
  -2   1   5  135.03    2.00
  -2   1   5  134.05    2.09
   1  -1  -5    7.47    0.25
   1  -1  -5    6.75    0.33
   1  -1  -5    7.77    0.35
  -1   1   5    7.22    0.34
  -1   1   5    7.45    0.34
  -1   1   5    7.43    0.24
   0  -1  -5   63.18    1.06
   0  -1  -5   63.19    1.05
   0   1   5   65.08    1.07
   0   1   5   64.44    1.02
   0   1   5   64.63    0.95
  -1  -1  -5  210.65    2.58
  -1  -1  -5  216.17    2.65
   1   1   5  221.85    2.72
   1   1   5  219.15    2.30
  -2  -1  -5   19.99    0.61
  -2  -1  -5   18.84    0.55
   2   1   5   19.63    0.63
   2   1   5   20.17    0.42
   2   1   5   19.79    0.51
  -3  -1  -5    0.53    0.15
  -3  -1  -5    0.60    0.19
   3   1   5    0.74    0.19
   3   1   5    0.33    0.14
  -4  -1  -5    9.97    0.57
  -4  -1  -5   10.38    0.52
   4   1   5   10.68    0.57
   4   1   5   10.29    0.56
  -5  -1  -5   -0.06    0.20
   5   1   5    0.09    0.18
   5  -2  -5   -0.11    0.19
   5  -2  -5    0.07    0.19
  -5   2   5    0.56    0.26
  -5   2   5    0.06    0.21
  -5   2   5   -0.29    0.15
   4  -2  -5    1.05    0.27
   4  -2  -5    0.54    0.20
  -4   2   5    0.87    0.29
  -4   2   5    0.48    0.23
  -4   2   5    0.59    0.22
   3  -2  -5   -0.16    0.08
   3  -2  -5   -0.14    0.10
  -3   2   5   -0.06    0.16
  -3   2   5   -0.08    0.12
  -3   2   5    0.13    0.13
   2  -2  -5   39.12    0.91
   2  -2  -5   39.62    0.94
  -2   2   5   39.06    1.00
  -2   2   5   40.58    0.97
   1  -2  -5    4.51    0.28
   1  -2  -5    4.43    0.21
  -1   2   5    4.68    0.29
  -1   2   5    4.26    0.18
  -1   2   5    4.02    0.28
   0  -2  -5    8.77    0.15
   0  -2  -5    8.81    0.37
   0  -2  -5    8.76    0.35
   0   2   5    8.56    0.33
   0   2   5    9.68    0.36
   0   2   5    8.90    0.34
  -1  -2  -5    1.34    0.17
  -1  -2  -5    1.56    0.20
   1   2   5    1.45    0.16
   1   2   5    1.21    0.18
  -2  -2  -5    0.66    0.16
  -2  -2  -5    0.70    0.13
   2   2   5    0.41    0.14
   2   2   5    0.61    0.11
   2   2   5    0.68    0.12
  -3  -2  -5    1.71    0.28
  -3  -2  -5    2.17    0.23
  -3  -2  -5    1.87    0.23
   3   2   5    1.60    0.21
   3   2   5    1.86    0.23
   3   2   5    1.65    0.26
  -4  -2  -5   10.84    0.60
   4   2   5   10.64    0.58
   4   2   5   10.85    0.54
  -5  -2  -5    0.06    0.20
   5   2   5    0.24    0.18
  -6  -2  -5    0.41    0.32
   5  -3  -5    1.81    0.38
   5  -3  -5    1.60    0.36
  -5   3   5    2.45    0.44
  -5   3   5    2.54    0.45
  -5   3   5    2.23    0.43
   4  -3  -5    0.96    0.25
   4  -3  -5    0.46    0.19
  -4   3   5    0.36    0.20
  -4   3   5    0.18    0.22
  -4   3   5    0.29    0.19
   3  -3  -5    6.89    0.44
   3  -3  -5    6.67    0.44
  -3   3   5    7.63    0.53
  -3   3   5    6.25    0.45
  -3   3   5    7.22    0.46
   2  -3  -5    1.60    0.22
   2  -3  -5    1.55    0.24
  -2   3   5    0.86    0.23
  -2   3   5    1.46    0.24
   1  -3  -5    0.50    0.14
   1  -3  -5    0.67    0.12
  -1   3   5    0.70    0.16
  -1   3   5    0.79    0.18
  -1   3   5    0.74    0.11
   0  -3  -5    2.70    0.26
   0  -3  -5    2.25    0.22
   0  -3  -5    2.45    0.13
   0   3   5    2.88    0.22
   0   3   5    2.99    0.21
   0   3   5    2.39    0.25
  -1  -3  -5    5.85    0.33
  -1  -3  -5    5.58    0.26
  -1  -3  -5    6.02    0.20
   1   3   5    5.89    0.33
   1   3   5    6.33    0.29
  -2  -3  -5    3.98    0.30
  -2  -3  -5    4.31    0.23
   2   3   5    3.97    0.31
   2   3   5    3.77    0.24
  -3  -3  -5   24.60    0.82
  -3  -3  -5   23.32    0.58
   3   3   5   22.93    0.66
   3   3   5   21.99    0.76
   3   3   5   23.71    0.68
  -4  -3  -5    2.08    0.36
   4   3   5    1.94    0.33
   4   3   5    1.06    0.23
  -5  -3  -5    0.78    0.29
   5   3   5    0.76    0.25
  -6  -3  -5    0.08    0.27
   6   3   5   -0.10    0.21
   5  -4  -5    1.06    0.34
  -5   4   5    0.85    0.33
  -5   4   5    1.11    0.37
   4  -4  -5    3.02    0.43
   4  -4  -5    2.21    0.35
  -4   4   5    2.84    0.48
  -4   4   5    2.56    0.40
  -4   4   5    2.85    0.45
   3  -4  -5    0.69    0.22
   3  -4  -5    0.58    0.21
  -3   4   5    0.62    0.25
  -3   4   5    0.49    0.22
  -3   4   5    1.03    0.23
   2  -4  -5   49.42    1.04
   2  -4  -5   48.11    1.07
  -2   4   5   47.20    1.23
  -2   4   5   48.71    1.18
   1  -4  -5   11.52    0.45
   1  -4  -5   11.10    0.39
  -1   4   5   11.02    0.47
  -1   4   5   11.18    0.54
  -1   4   5   11.33    0.36
   0  -4  -5    0.00    0.09
   0  -4  -5    0.00    0.07
   0   4   5    0.02    0.11
   0   4   5   -0.05    0.06
   0   4   5   -0.04    0.09
  -1  -4  -5   54.51    0.83
  -1  -4  -5   52.76    1.05
  -1  -4  -5   54.29    0.92
   1   4   5   54.16    0.91
   1   4   5   52.25    1.03
   1   4   5   51.11    1.07
  -2  -4  -5   87.87    1.22
  -2  -4  -5   85.29    1.53
   2   4   5   87.40    1.59
   2   4   5   87.78    1.45
   2   4   5   87.27    1.22
  -3  -4  -5   14.14    0.64
   3   4   5   14.58    0.56
   3   4   5   14.25    0.63
  -4  -4  -5    8.92    0.58
   4   4   5    9.05    0.51
   4   4   5    8.99    0.56
   4   4   5    8.97    0.50
  -5  -4  -5    7.67    0.72
   5   4   5    8.83    0.57
   5   4   5    8.79    0.60
  -6  -4  -5    1.83    0.46
   4  -5  -5    2.42    0.38
  -4   5   5    2.28    0.43
  -4   5   5    1.80    0.40
   3  -5  -5    0.13    0.15
   3  -5  -5    0.02    0.15
  -3   5   5    0.13    0.14
  -3   5   5    0.09    0.16
  -3   5   5    0.11    0.18
   2  -5  -5    3.14    0.33
   2  -5  -5    3.73    0.36
  -2   5   5    3.21    0.43
  -2   5   5    3.44    0.40
   1  -5  -5    9.41    0.42
  -1   5   5    9.20    0.53
  -1   5   5    8.98    0.37
  -1   5   5    8.92    0.47
   0  -5  -5    0.70    0.14
   0  -5  -5    0.53    0.15
   0   5   5    0.71    0.19
   0   5   5    0.55    0.15
   0   5   5    0.52    0.14
  -1  -5  -5  139.70    1.80
  -1  -5  -5  138.78    2.02
   1   5   5  139.73    1.83
   1   5   5  136.30    2.10
   1   5   5  140.99    2.11
  -2  -5  -5    0.08    0.14
  -2  -5  -5    0.20    0.09
   2   5   5    0.14    0.13
   2   5   5    0.39    0.14
  -3  -5  -5    1.09    0.27
   3   5   5    0.43    0.20
   3   5   5    0.63    0.18
  -4  -5  -5    5.06    0.54
   4   5   5    6.13    0.45
   4   5   5    6.47    0.51
  -5  -5  -5    0.99    0.33
   5   5   5    1.02    0.30
  -6  -5  -5    1.04    0.42
   4  -6  -5   -0.10    0.20
  -4   6   5    0.13    0.28
  -4   6   5   -0.01    0.21
   3  -6  -5    3.21    0.41
  -3   6   5    2.70    0.46
  -3   6   5    3.25    0.45
   2  -6  -5   26.28    0.83
  -2   6   5   26.42    0.95
  -2   6   5   25.86    1.02
   1  -6  -5    9.75    0.44
  -1   6   5   11.53    0.62
  -1   6   5   10.54    0.54
   0  -6  -5   27.11    0.68
   0  -6  -5   25.94    0.71
   0   6   5   26.69    0.75
   0   6   5   25.98    0.75
   0   6   5   25.51    0.85
  -1  -6  -5   19.54    0.64
  -1  -6  -5   19.40    0.56
   1   6   5   18.63    0.53
   1   6   5   19.52    0.72
   1   6   5   19.27    0.68
  -2  -6  -5    3.89    0.39
   2   6   5    4.10    0.42
   2   6   5    3.23    0.38
  -3  -6  -5    6.62    0.47
   3   6   5    6.44    0.45
   3   6   5    5.35    0.44
  -4  -6  -5    3.66    0.48
   4   6   5    4.14    0.46
   4   6   5    4.27    0.50
  -5  -6  -5    6.08    0.67
   5   6   5    4.74    0.57
   4  -7  -5    0.14    0.21
  -4   7   5   -0.22    0.28
  -4   7   5    0.28    0.29
   3  -7  -5    7.08    0.54
  -3   7   5    8.28    0.74
  -3   7   5    7.02    0.74
   2  -7  -5   23.65    0.84
  -2   7   5   24.48    0.94
  -2   7   5   23.33    1.01
   1  -7  -5    0.92    0.21
  -1   7   5    1.24    0.30
  -1   7   5    2.12    0.33
   0  -7  -5   12.52    0.50
   0   7   5   12.84    0.55
   0   7   5   13.64    0.67
   0   7   5   12.91    0.56
  -1  -7  -5    9.78    0.47
   1   7   5   10.09    0.53
   1   7   5    9.66    0.56
  -2  -7  -5    0.09    0.16
   2   7   5    0.40    0.19
   2   7   5    0.08    0.13
  -3  -7  -5    6.60    0.43
  -3  -7  -5    6.81    0.49
   3   7   5    5.39    0.54
   3   7   5    6.72    0.49
  -4  -7  -5    1.22    0.33
   4   7   5    1.61    0.34
   4   7   5    1.31    0.31
  -5  -7  -5    6.53    0.71
   5   7   5    7.66    0.62
   5   7   5    7.44    0.60
   3  -8  -5    0.30    0.23
  -3   8   5    0.74    0.35
  -3   8   5    0.44    0.28
   2  -8  -5    0.12    0.18
  -2   8   5    0.33    0.21
  -2   8   5   -0.11    0.19
   1  -8  -5   10.37    0.55
  -1   8   5   11.68    0.63
  -1   8   5   11.85    0.70
   0  -8  -5   26.37    0.82
   0   8   5   26.73    0.88
   0   8   5   26.59    0.99
   0   8   5   25.77    0.83
  -1  -8  -5   14.21    0.57
   1   8   5   14.42    0.73
   1   8   5   15.68    0.71
  -2  -8  -5   32.68    0.94
  -2  -8  -5   31.34    0.89
   2   8   5   31.48    1.07
   2   8   5   31.57    1.06
  -3  -8  -5    6.66    0.51
  -3  -8  -5    6.12    0.45
   3   8   5    6.44    0.53
   3   8   5    7.41    0.55
  -4  -8  -5    1.01    0.32
  -4  -8  -5    0.26    0.23
   4   8   5    1.01    0.30
   4   8   5    0.54    0.28
  -5  -8  -5   -0.03    0.26
   5   8   5   -0.03    0.21
   5   8   5    0.05    0.23
   3  -9  -5    5.04    0.73
  -3   9   5    4.75    0.63
  -3   9   5    3.40    0.58
   2  -9  -5    1.19    0.31
  -2   9   5    1.56    0.36
  -2   9   5    1.36    0.38
   1  -9  -5    0.09    0.18
  -1   9   5    0.47    0.26
  -1   9   5   -0.03    0.15
   0  -9  -5    5.26    0.47
   0   9   5    5.23    0.58
   0   9   5    6.37    0.80
  -1  -9  -5    6.02    0.44
   1   9   5    6.52    0.50
   1   9   5    6.94    0.55
  -2  -9  -5    3.47    0.39
   2   9   5    3.62    0.47
   2   9   5    3.78    0.51
  -3  -9  -5   -0.03    0.20
  -3  -9  -5    0.39    0.21
   3   9   5   -0.17    0.13
   3   9   5    0.17    0.22
  -4  -9  -5    2.42    0.40
  -4  -9  -5    2.89    0.45
   4   9   5    3.21    0.51
   4   9   5    2.25    0.43
  -5  -9  -5    1.40    0.40
   5   9   5    1.71    0.43
   5   9   5    1.14    0.38
  -2  10   5    5.25    0.67
  -2  10   5    4.58    0.59
   1 -10  -5    7.25    0.92
  -1  10   5    7.34    0.57
  -1  10   5    6.94    0.75
   0 -10  -5    8.20    0.55
   0  10   5    8.02    0.78
  -1 -10  -5    6.10    0.54
   1  10   5    6.45    0.62
   1  10   5    6.43    0.67
  -2 -10  -5    6.43    0.63
   2  10   5    6.84    0.67
   2  10   5    7.20    0.61
   3  10   5   22.06    1.05
   3  10   5   25.63    1.11
  -4 -10  -5    0.44    0.27
   4  10   5    0.76    0.35
   4  10   5    0.83    0.32
  -1  11   5    1.17    0.39
   0  11   5    0.71    0.30
   1  11   5   12.91    0.83
   2  11   5    6.81    0.70
   2  11   5    6.51    0.72
   3  11   5    0.23    0.25
   3  11   5    0.04    0.24
   4  11   5    0.49    0.34
   4  11   5    0.89    0.38
   0  12   5    0.04    0.26
   1  12   5   -0.06    0.24
   2  12   5    1.44    0.40
   3  12   5    6.50    0.76
   3  12   5    7.34    0.83
   1  11  -6    8.03    0.80
   3  10  -6    2.36    0.47
   2  10  -6    0.95    0.31
   2  10  -6    0.74    0.27
  -2 -10   6    1.39    0.37
   1  10  -6    0.39    0.24
  -1 -10   6   -0.33    0.20
   0  10  -6    0.17    0.21
   0 -10   6    0.70    0.31
  -1  10  -6   -0.18    0.21
  -1  10  -6   -0.05    0.22
   1 -10   6    0.19    0.33
   4   9  -6    0.19    0.24
   3   9  -6    0.31    0.21
   3   9  -6   -0.03    0.19
  -3  -9   6   -0.01    0.19
   2   9  -6    0.29    0.24
   2   9  -6    0.58    0.25
  -2  -9   6    0.00    0.22
   1   9  -6    0.13    0.20
  -1  -9   6    0.05    0.20
   0   9  -6    1.32    0.34
   0  -9   6    1.52    0.36
  -1   9  -6    1.39    0.37
  -1   9  -6    1.96    0.40
   1  -9   6    1.22    0.34
   1  -9   6    1.22    0.41
  -2   9  -6    3.56    0.51
  -2   9  -6    2.59    0.49
   2  -9   6    3.20    0.53
   4   8  -6    1.33    0.37
  -4  -8   6    1.88    0.44
  -4  -8   6    2.42    0.45
   3   8  -6    2.26    0.42
   3   8  -6    1.71    0.55
  -3  -8   6    2.72    0.45
   2   8  -6    1.77    0.36
   2   8  -6    0.88    0.26
  -2  -8   6    1.56    0.35
   1   8  -6    2.04    0.37
  -1  -8   6    2.39    0.40
   0   8  -6    1.33    0.31
   0   8  -6    1.82    0.34
   0  -8   6    1.73    0.35
  -1   8  -6    0.00    0.18
  -1   8  -6    0.03    0.19
   1  -8   6    0.43    0.25
   1  -8   6    0.11    0.25
  -2   8  -6    1.81    0.35
  -2   8  -6    2.09    0.42
   2  -8   6    1.69    0.38
   2  -8   6    2.12    0.40
   5   7  -6    0.35    0.23
  -5  -7   6    0.08    0.25
  -5  -7   6   -0.03    0.22
   4   7  -6    5.16    0.56
   4   7  -6    5.48    0.64
  -4  -7   6    5.46    0.60
  -4  -7   6    5.81    0.59
  -4  -7   6    4.44    0.58
   3   7  -6    0.63    0.25
  -3  -7   6    0.88    0.26
   2   7  -6    0.86    0.25
   2   7  -6    1.86    0.33
  -2  -7   6    1.82    0.33
   1   7  -6    0.01    0.13
   1   7  -6   -0.01    0.14
  -1  -7   6    0.42    0.20
   0   7  -6    0.97    0.25
   0   7  -6    0.97    0.26
   0  -7   6    0.92    0.24
  -1   7  -6   -0.02    0.19
  -1   7  -6    0.56    0.22
   1  -7   6    0.35    0.22
   1  -7   6    0.40    0.26
  -2   7  -6   -0.16    0.16
  -2   7  -6   -0.02    0.14
   2  -7   6    0.04    0.18
   2  -7   6   -0.06    0.18
  -3   7  -6   10.03    0.66
  -3   7  -6    9.67    0.73
   3  -7   6   12.41    0.91
   3  -7   6    9.55    0.69
   5   6  -6   -0.04    0.21
   5   6  -6   -0.07    0.18
  -5  -6   6    0.29    0.26
  -5  -6   6   -0.09    0.22
   4   6  -6    8.20    0.60
   4   6  -6    8.73    0.67
  -4  -6   6    8.91    0.61
  -4  -6   6    8.31    0.66
  -4  -6   6    8.48    0.61
   3   6  -6   41.32    1.28
   3   6  -6   41.73    1.14
  -3  -6   6   44.95    1.25
  -3  -6   6   42.68    1.14
   2   6  -6    5.08    0.51
   2   6  -6    5.46    0.42
  -2  -6   6    5.48    0.43
   1   6  -6   34.60    0.96
   1   6  -6   33.28    1.15
   1   6  -6   32.60    0.99
  -1  -6   6   34.17    0.98
   0   6  -6    7.64    0.50
   0   6  -6    6.62    0.45
   0  -6   6    6.53    0.45
  -1   6  -6    5.15    0.51
  -1   6  -6    6.00    0.46
   1  -6   6    5.60    0.44
   1  -6   6    5.90    0.56
  -2   6  -6    0.21    0.17
  -2   6  -6   -0.05    0.14
   2  -6   6    0.31    0.20
   2  -6   6    0.19    0.21
  -3   6  -6    0.72    0.24
  -3   6  -6    1.17    0.36
   3  -6   6    0.71    0.30
   3  -6   6    0.44    0.22
  -4   6  -6    0.61    0.31
   5   5  -6   -0.14    0.16
   5   5  -6    0.05    0.20
  -5  -5   6    0.23    0.24
  -5  -5   6    0.19    0.22
   4   5  -6    1.72    0.37
   4   5  -6    1.23    0.30
  -4  -5   6    1.12    0.30
  -4  -5   6    1.52    0.33
   3   5  -6    1.52    0.28
   3   5  -6    2.43    0.39
  -3  -5   6    1.56    0.31
  -3  -5   6    1.52    0.29
  -3  -5   6    1.72    0.31
   2   5  -6    1.64    0.28
   2   5  -6    1.84    0.24
   2   5  -6    1.90    0.27
  -2  -5   6    1.64    0.24
  -2  -5   6    2.08    0.31
  -2  -5   6    1.93    0.26
   1   5  -6    9.43    0.46
   1   5  -6    7.87    0.43
   1   5  -6    9.36    0.48
  -1  -5   6    8.83    0.46
   0   5  -6   29.01    0.88
   0   5  -6   27.48    0.84
   0  -5   6   29.32    0.85
  -1   5  -6    0.78    0.22
  -1   5  -6    0.42    0.18
   1  -5   6    0.35    0.18
   1  -5   6    0.73    0.23
  -2   5  -6   55.07    1.35
  -2   5  -6   56.31    1.44
   2  -5   6   56.88    1.45
   2  -5   6   57.37    1.38
  -3   5  -6    0.09    0.18
  -3   5  -6   -0.05    0.14
   3  -5   6    0.00    0.18
   3  -5   6    0.00    0.15
  -4   5  -6    0.78    0.29
   4  -5   6    1.55    0.35
   5   4  -6    1.66    0.39
   5   4  -6    1.35    0.34
  -5  -4   6    1.27    0.35
  -5  -4   6    0.84    0.28
   4   4  -6    3.85    0.51
   4   4  -6    3.81    0.47
  -4  -4   6    3.68    0.46
  -4  -4   6    2.80    0.45
   3   4  -6    0.41    0.18
   3   4  -6    0.14    0.17
  -3  -4   6    0.64    0.21
  -3  -4   6    0.41    0.19
   2   4  -6   20.58    0.67
   2   4  -6   20.00    0.66
   2   4  -6   20.74    0.74
   2   4  -6   19.54    0.63
  -2  -4   6   20.11    0.66
  -2  -4   6   21.04    0.64
  -2  -4   6   20.41    0.68
  -2  -4   6   19.09    0.71
   1   4  -6    1.48    0.20
   1   4  -6    1.50    0.24
   1   4  -6    1.07    0.19
   1   4  -6    1.80    0.24
  -1  -4   6    1.26    0.22
  -1  -4   6    1.34    0.19
   0   4  -6   28.63    0.81
   0   4  -6   28.05    0.81
   0   4  -6   28.20    0.67
   0  -4   6   27.74    0.76
   0  -4   6   27.61    0.86
  -1   4  -6    0.12    0.15
  -1   4  -6    0.41    0.15
   1  -4   6    0.21    0.15
   1  -4   6    0.30    0.15
  -2   4  -6    1.05    0.23
  -2   4  -6    1.29    0.28
   2  -4   6    0.84    0.24
   2  -4   6    1.39    0.26
  -3   4  -6    0.69    0.25
  -3   4  -6    0.31    0.18
   3  -4   6    0.39    0.20
   3  -4   6    0.09    0.19
  -4   4  -6    0.17    0.23
   4  -4   6    0.45    0.24
   5   3  -6    1.95    0.41
   5   3  -6    2.22    0.42
  -5  -3   6    2.36    0.45
  -5  -3   6    2.03    0.43
   4   3  -6    0.54    0.25
   4   3  -6    0.56    0.22
  -4  -3   6    0.85    0.26
  -4  -3   6    0.51    0.22
   3   3  -6   11.11    0.57
   3   3  -6   11.54    0.61
  -3  -3   6   11.82    0.50
  -3  -3   6   12.51    0.63
  -3  -3   6   11.43    0.59
   2   3  -6    6.57    0.34
   2   3  -6    7.00    0.39
   2   3  -6    6.34    0.41
  -2  -3   6    6.93    0.37
  -2  -3   6    5.96    0.39
  -2  -3   6    6.74    0.39
   1   3  -6   12.59    0.47
   1   3  -6   12.28    0.46
   1   3  -6   11.66    0.46
  -1  -3   6   10.89    0.43
   0   3  -6    2.73    0.29
   0   3  -6    2.60    0.18
   0   3  -6    2.32    0.27
   0   3  -6    2.61    0.19
   0  -3   6    2.60    0.26
   0  -3   6    2.13    0.27
  -1   3  -6   43.03    1.02
  -1   3  -6   42.83    1.05
  -1   3  -6   46.00    0.92
   1  -3   6   43.34    0.96
   1  -3   6   42.39    1.08
  -2   3  -6    5.38    0.49
  -2   3  -6    5.52    0.38
   2  -3   6    4.93    0.40
   2  -3   6    4.44    0.40
  -3   3  -6    0.62    0.24
  -3   3  -6    0.32    0.17
   3  -3   6    0.62    0.21
   3  -3   6    0.37    0.20
  -4   3  -6    0.23    0.22
   4  -3   6    0.09    0.19
  -5   3  -6    1.32    0.38
   5  -3   6    1.38    0.40
   5   2  -6   -0.06    0.21
   5   2  -6   -0.03    0.17
  -5  -2   6   -0.11    0.17
  -5  -2   6    0.14    0.18
   4   2  -6    2.08    0.36
   4   2  -6    1.66    0.34
  -4  -2   6    1.65    0.32
  -4  -2   6    1.69    0.34
   3   2  -6    1.88    0.32
   3   2  -6    1.84    0.31
  -3  -2   6    2.01    0.32
  -3  -2   6    1.72    0.32
  -3  -2   6    1.96    0.26
   2   2  -6    5.37    0.36
   2   2  -6    5.58    0.33
   2   2  -6    5.80    0.29
   2   2  -6    5.41    0.38
  -2  -2   6    5.64    0.36
  -2  -2   6    5.59    0.34
  -2  -2   6    5.73    0.38
   1   2  -6   11.10    0.42
   1   2  -6   12.00    0.45
   1   2  -6   10.81    0.44
   1   2  -6   11.45    0.43
  -1  -2   6   11.01    0.45
  -1  -2   6   11.49    0.40
  -1  -2   6   11.22    0.42
   0   2  -6    8.90    0.40
   0   2  -6    7.62    0.38
   0   2  -6    8.36    0.28
   0  -2   6    8.47    0.33
   0  -2   6    9.06    0.29
   0  -2   6    8.31    0.40
  -1   2  -6   14.18    0.44
  -1   2  -6   13.51    0.54
  -1   2  -6   13.57    0.52
   1  -2   6   13.50    0.46
   1  -2   6   13.70    0.56
  -2   2  -6   21.73    0.61
  -2   2  -6   20.52    0.68
  -2   2  -6   22.41    0.75
   2  -2   6   22.50    0.77
   2  -2   6   21.86    0.68
  -3   2  -6    4.41    0.34
  -3   2  -6    4.74    0.47
   3  -2   6    4.48    0.47
   3  -2   6    4.64    0.44
  -4   2  -6    0.66    0.26
   4  -2   6    0.81    0.26
   4  -2   6    0.59    0.23
  -5   2  -6   -0.12    0.21
   5  -2   6    0.32    0.24
   5   1  -6    2.82    0.43
   5   1  -6    3.29    0.54
   5   1  -6    3.29    0.49
  -5  -1   6    3.98    0.57
  -5  -1   6    3.26    0.50
   4   1  -6   15.78    0.76
   4   1  -6   15.59    0.71
   4   1  -6   15.05    0.78
  -4  -1   6   16.75    0.81
  -4  -1   6   16.49    0.68
  -4  -1   6   16.21    0.81
   3   1  -6   58.47    1.37
   3   1  -6   58.90    1.41
  -3  -1   6   57.38    1.39
  -3  -1   6   58.30    1.23
  -3  -1   6   60.06    1.38
   2   1  -6    5.73    0.36
   2   1  -6    4.77    0.24
   2   1  -6    5.02    0.32
   2   1  -6    5.11    0.36
  -2  -1   6    5.45    0.33
  -2  -1   6    5.37    0.26
  -2  -1   6    6.04    0.38
   1   1  -6   17.77    0.50
   1   1  -6   17.85    0.55
   1   1  -6   17.59    0.52
   1   1  -6   17.35    0.55
  -1  -1   6   17.31    0.50
  -1  -1   6   17.64    0.56
  -1  -1   6   18.10    0.53
   0   1  -6    8.44    0.38
   0   1  -6    8.69    0.35
   0   1  -6    8.29    0.27
   0   1  -6    8.73    0.37
   0  -1   6    8.31    0.28
   0  -1   6    8.53    0.27
   0  -1   6    9.41    0.40
  -1   1  -6    9.56    0.41
  -1   1  -6    9.78    0.43
   1  -1   6    9.10    0.44
   1  -1   6   10.04    0.35
  -2   1  -6    0.00    0.11
  -2   1  -6   -0.10    0.09
   2  -1   6    0.14    0.11
   2  -1   6    0.31    0.15
  -3   1  -6   23.66    0.75
  -3   1  -6   25.02    0.83
  -3   1  -6   24.61    0.75
   3  -1   6   25.42    0.87
   3  -1   6   25.15    0.79
  -4   1  -6    4.80    0.49
  -4   1  -6    4.75    0.47
   4  -1   6    5.07    0.50
   4  -1   6    5.59    0.47
  -5   1  -6    0.70    0.25
   5  -1   6    0.87    0.28
   5   0  -6    0.16    0.21
   5   0  -6   -0.02    0.18
   5   0  -6   -0.01    0.23
  -5   0   6    0.42    0.23
  -5   0   6    0.19    0.21
   4   0  -6    0.00    0.17
   4   0  -6    0.08    0.16
   4   0  -6    0.04    0.16
  -4   0   6    0.13    0.19
  -4   0   6    0.23    0.21
  -4   0   6   -0.07    0.14
   3   0  -6   -0.11    0.10
   3   0  -6   -0.01    0.10
   3   0  -6    0.04    0.15
  -3   0   6    0.17    0.17
  -3   0   6    0.10    0.14
  -3   0   6    0.10    0.13
   2   0  -6    1.43    0.21
   2   0  -6    1.86    0.26
   2   0  -6    2.12    0.28
  -2   0   6    1.95    0.25
  -2   0   6    1.39    0.23
   1   0  -6  102.09    1.61
   1   0  -6  105.70    1.64
   1   0  -6  106.79    1.47
   1   0  -6  103.79    1.58
  -1   0   6  106.54    1.63
  -1   0   6  105.46    1.44
  -1   0   6  104.61    1.59
   0   0  -6   45.00    0.89
   0   0  -6   42.28    0.88
   0   0   6   45.00    0.88
   0   0   6   43.95    0.72
   0   0   6   43.75    0.62
  -1   0  -6   20.79    0.58
  -1   0  -6   21.08    0.61
   1   0   6   21.45    0.64
   1   0   6   21.09    0.44
  -2   0  -6   14.81    0.53
  -2   0  -6   13.94    0.52
  -2   0  -6   13.86    0.53
   2   0   6   13.86    0.58
   2   0   6   14.09    0.46
  -3   0  -6   23.07    0.71
  -3   0  -6   23.33    0.77
  -3   0  -6   23.98    0.77
   3   0   6   23.46    0.72
   3   0   6   23.92    0.82
  -4   0  -6   -0.02    0.13
  -4   0  -6    0.15    0.18
   4   0   6    0.15    0.13
   4   0   6   -0.14    0.15
  -5   0  -6    0.21    0.22
   5   0   6    0.20    0.19
   5  -1  -6   -0.15    0.17
   5  -1  -6    0.25    0.21
  -5   1   6    0.07    0.19
  -5   1   6    0.15    0.21
  -5   1   6    0.24    0.22
   4  -1  -6    7.49    0.55
   4  -1  -6    8.07    0.53
  -4   1   6    7.26    0.57
  -4   1   6    7.34    0.68
  -4   1   6    7.31    0.53
   3  -1  -6    6.90    0.45
   3  -1  -6    7.49    0.43
   3  -1  -6    7.84    0.52
  -3   1   6    8.08    0.48
  -3   1   6    7.14    0.50
  -3   1   6    6.86    0.46
   2  -1  -6    0.09    0.11
   2  -1  -6    0.10    0.13
  -2   1   6    0.24    0.14
  -2   1   6   -0.08    0.09
   1  -1  -6    0.07    0.06
   1  -1  -6    0.34    0.12
   1  -1  -6    0.14    0.09
  -1   1   6    0.14    0.08
  -1   1   6    0.25    0.11
  -1   1   6    0.06    0.09
   0  -1  -6   19.13    0.57
   0  -1  -6   20.13    0.57
   0   1   6   19.09    0.54
   0   1   6   19.79    0.48
   0   1   6   20.51    0.58
  -1  -1  -6    0.92    0.16
  -1  -1  -6    1.13    0.19
   1   1   6    1.04    0.10
   1   1   6    1.26    0.20
  -2  -1  -6    1.05    0.20
  -2  -1  -6    0.77    0.16
   2   1   6    1.15    0.16
   2   1   6    0.98    0.21
  -3  -1  -6    0.97    0.20
  -3  -1  -6    0.67    0.21
   3   1   6    0.39    0.18
   3   1   6    0.86    0.17
  -4  -1  -6    5.92    0.42
  -4  -1  -6    5.21    0.52
   4   1   6    5.23    0.50
   4   1   6    6.05    0.43
  -5  -1  -6    2.21    0.41
   5   1   6    1.65    0.33
   5  -2  -6    0.03    0.19
   5  -2  -6    0.24    0.21
  -5   2   6   -0.01    0.18
  -5   2   6    0.12    0.23
  -5   2   6    0.01    0.18
   4  -2  -6    7.06    0.50
   4  -2  -6    7.75    0.55
  -4   2   6    6.59    0.61
  -4   2   6    8.05    0.56
  -4   2   6    5.66    0.60
   3  -2  -6    2.71    0.35
   3  -2  -6    3.00    0.33
  -3   2   6    2.84    0.38
  -3   2   6    3.29    0.38
  -3   2   6    3.16    0.39
   2  -2  -6   12.36    0.53
  -2   2   6   12.35    0.57
  -2   2   6   12.76    0.55
   1  -2  -6   21.92    0.65
   1  -2  -6   23.30    0.47
   1  -2  -6   22.92    0.67
  -1   2   6   23.06    0.49
  -1   2   6   22.12    0.67
  -1   2   6   21.81    0.66
   0  -2  -6   60.52    1.12
   0  -2  -6   61.99    1.11
   0   2   6   61.07    1.11
   0   2   6   61.79    1.06
   0   2   6   63.72    1.07
  -1  -2  -6   87.45    1.44
  -1  -2  -6   88.61    1.37
   1   2   6   88.07    1.22
   1   2   6   88.09    1.46
  -2  -2  -6  339.87    3.85
  -2  -2  -6  332.68    4.04
   2   2   6  335.61    4.12
   2   2   6  329.67    3.60
   2   2   6  333.44    3.66
  -3  -2  -6   34.97    1.00
  -3  -2  -6   36.29    0.85
   3   2   6   36.07    1.02
   3   2   6   36.84    0.87
  -4  -2  -6   21.57    0.87
   4   2   6   22.37    0.78
   4   2   6   21.34    0.84
  -5  -2  -6    9.22    0.70
   5   2   6    6.54    0.60
   5  -3  -6    4.75    0.56
   5  -3  -6    3.60    0.51
  -5   3   6    3.87    0.57
  -5   3   6    3.72    0.53
  -5   3   6    4.07    0.54
   4  -3  -6    2.93    0.41
   4  -3  -6    3.23    0.43
  -4   3   6    2.99    0.47
  -4   3   6    3.81    0.48
  -4   3   6    3.31    0.45
   3  -3  -6   20.33    0.72
   3  -3  -6   18.80    0.73
  -3   3   6   16.97    0.72
  -3   3   6   17.97    0.82
  -3   3   6   19.32    0.78
   2  -3  -6    3.11    0.35
  -2   3   6    2.98    0.34
  -2   3   6    2.86    0.36
   1  -3  -6   33.73    0.64
   1  -3  -6   33.52    0.83
  -1   3   6   33.74    0.89
  -1   3   6   33.32    0.85
  -1   3   6   34.38    0.65
   0  -3  -6    3.10    0.12
   0  -3  -6    3.00    0.28
   0  -3  -6    3.33    0.31
   0   3   6    3.49    0.24
   0   3   6    3.18    0.25
   0   3   6    3.84    0.29
  -1  -3  -6    0.21    0.06
  -1  -3  -6    0.32    0.11
  -1  -3  -6    0.21    0.12
   1   3   6    0.19    0.10
   1   3   6    0.28    0.12
   1   3   6    0.17    0.09
  -2  -3  -6   39.93    0.80
  -2  -3  -6   39.23    0.97
   2   3   6   40.30    1.01
   2   3   6   38.93    0.79
  -3  -3  -6    0.17    0.12
  -3  -3  -6    0.46    0.19
   3   3   6    0.15    0.11
   3   3   6    0.20    0.16
  -4  -3  -6    4.80    0.53
   4   3   6    5.39    0.53
   4   3   6    4.88    0.45
  -5  -3  -6    3.15    0.51
   5   3   6    3.53    0.48
   5   3   6    2.72    0.39
   5  -4  -6    0.57    0.26
  -5   4   6    0.39    0.27
   4  -4  -6    1.65    0.33
   4  -4  -6    0.95    0.26
  -4   4   6    1.25    0.32
  -4   4   6    0.98    0.31
  -4   4   6    0.90    0.27
   3  -4  -6   -0.07    0.11
   3  -4  -6   -0.02    0.12
  -3   4   6    0.02    0.16
  -3   4   6    0.20    0.17
  -3   4   6    0.05    0.18
   2  -4  -6    3.09    0.35
  -2   4   6    3.04    0.37
  -2   4   6    2.88    0.40
   1  -4  -6    1.56    0.19
   1  -4  -6    1.53    0.22
  -1   4   6    1.80    0.19
  -1   4   6    1.40    0.23
  -1   4   6    1.65    0.28
   0  -4  -6   30.14    0.77
   0  -4  -6   27.99    0.52
   0   4   6   28.52    0.74
   0   4   6   27.97    0.78
   0   4   6   28.04    0.70
  -1  -4  -6    1.14    0.21
  -1  -4  -6    1.02    0.12
  -1  -4  -6    0.80    0.14
   1   4   6    0.76    0.17
   1   4   6    0.69    0.16
  -2  -4  -6    0.21    0.15
  -2  -4  -6    0.66    0.12
   2   4   6    0.33    0.12
   2   4   6    0.56    0.17
   2   4   6    0.45    0.13
  -3  -4  -6    4.32    0.44
   3   4   6    4.23    0.43
   3   4   6    4.08    0.31
  -4  -4  -6   16.99    0.80
   4   4   6   15.64    0.75
   4   4   6   16.85    0.67
  -5  -4  -6    5.46    0.63
   5   4   6    5.44    0.58
   5   4   6    5.58    0.54
   4  -5  -6   -0.19    0.18
  -4   5   6    0.59    0.30
  -4   5   6   -0.11    0.21
   3  -5  -6   23.63    0.84
   3  -5  -6   21.95    0.81
  -3   5   6   22.92    1.01
  -3   5   6   23.59    0.86
  -3   5   6   23.28    0.95
   2  -5  -6   13.77    0.59
  -2   5   6   13.78    0.74
  -2   5   6   13.93    0.67
   1  -5  -6   74.29    1.37
   1  -5  -6   73.46    1.23
  -1   5   6   72.75    1.58
  -1   5   6   71.51    1.44
  -1   5   6   72.82    1.21
   0  -5  -6    1.77    0.20
   0  -5  -6    2.29    0.28
   0   5   6    2.24    0.27
   0   5   6    2.07    0.30
   0   5   6    2.09    0.24
  -1  -5  -6    1.41    0.17
  -1  -5  -6    1.28    0.22
   1   5   6    1.17    0.23
   1   5   6    1.14    0.18
   1   5   6    1.00    0.20
  -2  -5  -6    0.23    0.11
  -2  -5  -6    0.31    0.16
  -2  -5  -6    0.09    0.08
   2   5   6    0.06    0.12
   2   5   6    0.32    0.16
  -3  -5  -6   12.29    0.63
   3   5   6   12.93    0.57
   3   5   6   10.08    0.58
  -4  -5  -6   16.15    0.79
   4   5   6   16.49    0.78
  -5  -5  -6    1.97    0.42
   5   5   6    2.08    0.38
   4  -6  -6    0.77    0.27
  -4   6   6    0.58    0.30
  -4   6   6    0.33    0.31
   3  -6  -6    2.05    0.34
  -3   6   6    2.35    0.40
  -3   6   6    2.73    0.47
   2  -6  -6   13.20    0.58
   2  -6  -6   12.78    0.57
  -2   6   6   12.70    0.75
  -2   6   6   12.57    0.68
   1  -6  -6   24.18    0.74
   1  -6  -6   24.94    0.71
  -1   6   6   24.29    0.83
  -1   6   6   25.81    0.94
   0  -6  -6    0.06    0.11
   0  -6  -6    0.51    0.15
   0   6   6    0.86    0.24
   0   6   6    0.73    0.17
   0   6   6    0.50    0.16
  -1  -6  -6   -0.07    0.10
  -1  -6  -6   -0.03    0.14
   1   6   6   -0.08    0.11
   1   6   6    0.02    0.10
   1   6   6   -0.02    0.13
  -2  -6  -6    0.78    0.22
  -2  -6  -6    0.88    0.18
   2   6   6    1.05    0.24
   2   6   6    0.62    0.20
  -3  -6  -6    4.61    0.48
   3   6   6    5.14    0.49
   3   6   6    4.15    0.47
  -4  -6  -6    8.47    0.62
   4   6   6    8.17    0.55
   4   6   6    7.35    0.58
  -5  -6  -6    0.56    0.28
   5   6   6    0.15    0.20
  -4   7   6    1.59    0.64
  -3   7   6    0.95    0.30
  -3   7   6    1.10    0.35
   2  -7  -6    8.96    0.52
  -2   7   6    8.35    0.64
  -2   7   6    8.94    0.61
  -1   7   6    4.00    0.45
  -1   7   6    3.34    0.46
   0  -7  -6    3.54    0.36
   0  -7  -6    3.50    0.32
   0   7   6    2.93    0.40
   0   7   6    3.73    0.38
   0   7   6    2.74    0.32
  -1  -7  -6    9.55    0.43
  -1  -7  -6    9.25    0.49
   1   7   6    9.54    0.53
   1   7   6    9.54    0.55
   1   7   6    8.42    0.54
  -2  -7  -6    0.31    0.15
  -2  -7  -6    0.20    0.18
   2   7   6    0.57    0.20
   2   7   6    0.07    0.14
  -3  -7  -6    5.06    0.53
   3   7   6    3.77    0.49
   3   7   6    5.09    0.52
  -4  -7  -6    1.04    0.31
   4   7   6    0.67    0.26
   4   7   6    0.30    0.22
  -5  -7  -6    0.10    0.24
   5   7   6   -0.08    0.20
  -3   8   6    0.53    0.31
  -3   8   6    0.46    0.31
  -2   8   6    3.52    0.52
  -2   8   6    4.18    0.52
  -1   8   6    7.43    0.52
  -1   8   6    6.91    0.57
   0   8   6    4.85    0.40
   0   8   6    4.32    0.52
   0   8   6    4.72    0.44
  -1  -8  -6    5.86    0.41
   1   8   6    5.67    0.45
   1   8   6    6.44    0.50
  -2  -8  -6    6.54    0.48
   2   8   6    7.32    0.54
   2   8   6    7.12    0.52
  -3  -8  -6    8.06    0.56
   3   8   6    8.51    0.60
   3   8   6    8.29    0.57
  -4  -8  -6    4.33    0.54
   4   8   6    3.94    0.51
   4   8   6    4.78    0.56
  -5  -8  -6    0.28    0.29
   5   8   6    0.03    0.23
  -3   9   6   -0.02    0.27
  -2   9   6    0.84    0.29
  -2   9   6    1.27    0.38
  -1   9   6    9.19    0.61
  -1   9   6    7.48    0.74
   0   9   6   10.13    0.69
   1   9   6   17.13    0.85
   1   9   6   18.75    0.82
  -2  -9  -6   12.50    0.62
   2   9   6   11.86    0.72
   2   9   6   11.19    0.69
  -3  -9  -6    0.09    0.21
   3   9   6    0.26    0.22
   3   9   6    0.16    0.21
  -4  -9  -6    0.00    0.22
   4   9   6    0.05    0.19
   4   9   6    0.11    0.21
  -5  -9  -6    1.44    0.40
   5   9   6    0.85    0.35
   5   9   6    0.64    0.32
  -2  10   6   -0.01    0.23
  -2  10   6    0.55    0.28
  -1  10   6    0.07    0.20
  -1  10   6   -0.10    0.18
   0  10   6    4.98    0.63
   1  10   6    0.20    0.22
   1  10   6    0.36    0.23
   2  10   6    0.99    0.33
   2  10   6    1.71    0.37
  -3 -10  -6    5.25    0.63
   3  10   6    3.85    0.55
   3  10   6    5.50    0.65
  -4 -10  -6    1.20    0.35
   4  10   6    0.81    0.33
   4  10   6    1.08    0.36
  -1  11   6    2.83    0.53
   0  11   6    1.08    0.36
   1  11   6    0.50    0.29
   2  11   6    4.90    0.61
   2  11   6    5.39    0.67
   3  11   6    0.02    0.22
   3  11   6    0.23    0.27
   4  11   6   18.57    1.23
   4  11   6   15.77    1.00
   0  12   6   -0.16    0.18
   1  12   6    1.75    0.46
   2  12   6    1.16    0.40
   2  10  -7    0.20    0.22
  -2 -10   7    0.51    0.33
   1  10  -7   -0.26    0.18
  -1 -10   7    0.07    0.24
   0  10  -7    0.89    0.30
   0 -10   7    0.44    0.31
   3   9  -7    0.05    0.24
  -3  -9   7    0.12    0.27
   2   9  -7    0.00    0.18
  -2  -9   7    0.21    0.24
   1   9  -7    0.12    0.20
  -1  -9   7   -0.07    0.22
   0   9  -7   -0.04    0.19
   0  -9   7    0.60    0.30
   0  -9   7    0.36    0.28
  -1   9  -7    0.24    0.22
  -1   9  -7    0.08    0.22
   1  -9   7   -0.11    0.25
   1  -9   7    0.14    0.24
   4   8  -7    0.53    0.28
  -4  -8   7    0.61    0.32
  -4  -8   7    0.18    0.21
   3   8  -7    0.60    0.26
  -3  -8   7    0.11    0.23
   2   8  -7    4.47    0.51
   2   8  -7    4.23    0.48
  -2  -8   7    4.42    0.52
   1   8  -7   20.54    0.91
  -1  -8   7   22.72    0.93
   0   8  -7    3.13    0.43
   0   8  -7    1.61    0.35
   0  -8   7    1.74    0.36
  -1   8  -7    0.41    0.25
  -1   8  -7    0.23    0.23
   1  -8   7    0.22    0.23
   1  -8   7    1.26    0.34
  -2   8  -7    9.03    0.69
  -2   8  -7    8.79    0.65
   2  -8   7    9.55    0.68
   2  -8   7   10.30    0.75
   4   7  -7    2.43    0.46
  -4  -7   7    2.69    0.47
  -4  -7   7    3.19    0.49
   3   7  -7    0.53    0.24
  -3  -7   7    0.39    0.26
   2   7  -7    0.15    0.17
   2   7  -7    0.39    0.19
  -2  -7   7    0.31    0.20
   1   7  -7    9.87    0.56
   1   7  -7    8.48    0.57
  -1  -7   7   10.16    0.60
   0   7  -7   14.16    0.70
   0   7  -7   13.56    0.71
   0  -7   7   14.78    0.79
   0  -7   7   13.52    0.68
  -1   7  -7    0.56    0.25
  -1   7  -7    0.42    0.21
   1  -7   7    0.07    0.18
   1  -7   7    0.34    0.22
  -2   7  -7    6.77    0.68
  -2   7  -7    6.10    0.61
   2  -7   7    5.86    0.63
   2  -7   7    5.60    0.59
  -3   7  -7    0.29    0.22
  -3   7  -7    0.00    0.22
   3  -7   7   -0.10    0.20
   3  -7   7   -0.24    0.25
   5   6  -7   -0.17    0.24
   5   6  -7   -0.01    0.18
  -5  -6   7    0.58    0.28
  -5  -6   7   -0.12    0.20
   4   6  -7    1.96    0.37
   4   6  -7    1.55    0.37
  -4  -6   7    2.38    0.39
  -4  -6   7    1.84    0.39
  -4  -6   7    1.71    0.35
   3   6  -7    0.18    0.17
   3   6  -7    0.07    0.19
  -3  -6   7    0.06    0.17
  -3  -6   7    0.08    0.16
  -3  -6   7    0.11    0.16
   2   6  -7    2.80    0.39
   2   6  -7    3.49    0.39
  -2  -6   7    3.47    0.41
   1   6  -7    5.94    0.46
   1   6  -7    5.58    0.43
   1   6  -7    6.31    0.43
  -1  -6   7    5.44    0.49
   0   6  -7    0.99    0.24
   0   6  -7    0.88    0.24
   0  -6   7    0.90    0.24
   0  -6   7    1.67    0.33
  -1   6  -7   76.19    1.72
  -1   6  -7   74.17    1.67
   1  -6   7   76.40    1.64
   1  -6   7   71.58    1.74
  -2   6  -7    8.66    0.58
  -2   6  -7    8.16    0.59
   2  -6   7    8.84    0.58
   2  -6   7    7.63    0.62
  -3   6  -7    1.92    0.41
  -3   6  -7    2.01    0.37
   3  -6   7    1.96    0.41
   3  -6   7    1.36    0.34
   5   5  -7    0.04    0.18
   5   5  -7   -0.02    0.21
  -5  -5   7    0.21    0.23
  -5  -5   7    0.27    0.25
   4   5  -7    0.40    0.22
   4   5  -7    0.63    0.27
  -4  -5   7    0.27    0.22
  -4  -5   7    0.97    0.30
   3   5  -7   11.79    0.68
   3   5  -7   13.09    0.64
  -3  -5   7   11.84    0.63
  -3  -5   7   12.98    0.71
  -3  -5   7   12.79    0.65
   2   5  -7   11.70    0.59
   2   5  -7   11.53    0.60
   2   5  -7   11.25    0.55
  -2  -5   7   11.90    0.59
  -2  -5   7   12.49    0.54
  -2  -5   7   11.57    0.53
   1   5  -7    0.72    0.20
   1   5  -7    0.65    0.18
   1   5  -7    0.69    0.20
  -1  -5   7    0.73    0.19
   0   5  -7   33.33    1.00
   0   5  -7   34.31    0.99
   0  -5   7   34.63    0.95
   0  -5   7   34.45    1.08
  -1   5  -7    9.64    0.56
  -1   5  -7   10.01    0.56
   1  -5   7    9.45    0.59
   1  -5   7   10.14    0.56
  -2   5  -7    2.98    0.42
  -2   5  -7    2.96    0.40
   2  -5   7    2.70    0.38
   2  -5   7    2.30    0.38
  -3   5  -7    1.62    0.36
  -3   5  -7    1.25    0.30
   3  -5   7    0.86    0.28
   3  -5   7    1.04    0.30
  -4   5  -7    2.63    0.49
   4  -5   7    3.97    0.53
   5   4  -7    3.13    0.50
   5   4  -7    5.78    0.67
  -5  -4   7    3.61    0.55
  -5  -4   7    3.79    0.54
   4   4  -7    0.33    0.20
   4   4  -7    0.17    0.20
  -4  -4   7    0.30    0.23
  -4  -4   7    0.40    0.22
   3   4  -7    2.05    0.33
   3   4  -7    1.75    0.33
  -3  -4   7    1.91    0.33
  -3  -4   7    1.88    0.34
   2   4  -7   59.14    1.26
   2   4  -7   56.51    1.20
  -2  -4   7   56.57    1.24
  -2  -4   7   58.70    1.21
  -2  -4   7   56.65    1.31
  -2  -4   7   58.18    1.25
   1   4  -7    2.31    0.31
   1   4  -7    1.96    0.26
   1   4  -7    2.00    0.24
   1   4  -7    2.05    0.27
  -1  -4   7    2.17    0.27
   0   4  -7   25.75    0.81
   0   4  -7   25.22    0.80
   0  -4   7   26.10    0.76
   0  -4   7   25.84    0.86
  -1   4  -7   -0.08    0.11
  -1   4  -7    0.18    0.14
   1  -4   7    0.18    0.16
   1  -4   7   -0.12    0.15
  -2   4  -7    0.48    0.21
  -2   4  -7    0.72    0.23
   2  -4   7    0.54    0.24
   2  -4   7    0.63    0.22
  -3   4  -7   18.29    0.77
  -3   4  -7   18.18    0.87
   3  -4   7   17.86    0.86
   3  -4   7   18.44    0.79
  -4   4  -7    7.46    0.74
   4  -4   7    8.04    0.59
   5   3  -7    1.24    0.37
   5   3  -7    1.51    0.35
  -5  -3   7    1.11    0.33
  -5  -3   7    1.61    0.39
   4   3  -7    4.53    0.53
   4   3  -7    2.63    0.41
  -4  -3   7    2.57    0.42
  -4  -3   7    2.65    0.43
   3   3  -7    3.95    0.46
   3   3  -7    4.11    0.45
  -3  -3   7    4.28    0.39
  -3  -3   7    4.41    0.48
  -3  -3   7    4.00    0.44
   2   3  -7   22.41    0.77
   2   3  -7   20.71    0.71
   2   3  -7   21.15    0.68
   2   3  -7   21.50    0.64
  -2  -3   7   21.11    0.75
  -2  -3   7   19.93    0.70
  -2  -3   7   20.74    0.68
  -2  -3   7   20.68    0.67
   1   3  -7    0.72    0.17
   1   3  -7    0.56    0.15
   1   3  -7    0.55    0.16
   1   3  -7    0.61    0.24
  -1  -3   7    0.50    0.17
  -1  -3   7    0.78    0.16
  -1  -3   7    0.57    0.15
   0   3  -7   19.09    0.68
   0   3  -7   19.38    0.67
   0   3  -7   18.80    0.54
   0  -3   7   19.67    0.59
   0  -3   7   20.24    0.71
  -1   3  -7   96.67    1.73
  -1   3  -7   94.41    1.75
   1  -3   7   97.83    1.60
   1  -3   7   95.57    1.80
  -2   3  -7    1.56    0.28
  -2   3  -7    1.52    0.27
   2  -3   7    2.02    0.28
   2  -3   7    1.85    0.32
  -3   3  -7    3.00    0.38
  -3   3  -7    2.71    0.40
   3  -3   7    2.62    0.39
   3  -3   7    3.56    0.41
  -4   3  -7   -0.09    0.18
   4  -3   7    0.17    0.18
   4  -3   7    0.37    0.24
   5   2  -7   -0.07    0.18
   5   2  -7    0.09    0.18
  -5  -2   7    0.02    0.18
  -5  -2   7    0.56    0.26
   4   2  -7    0.12    0.21
   4   2  -7    0.24    0.20
  -4  -2   7   -0.15    0.16
  -4  -2   7    0.12    0.18
   3   2  -7   13.72    0.66
   3   2  -7   12.83    0.65
  -3  -2   7   12.90    0.64
  -3  -2   7   13.75    0.67
  -3  -2   7   14.47    0.60
   2   2  -7    2.66    0.26
   2   2  -7    1.94    0.25
   2   2  -7    2.11    0.29
   2   2  -7    2.28    0.30
  -2  -2   7    1.83    0.28
  -2  -2   7    2.20    0.28
  -2  -2   7    2.51    0.26
   1   2  -7   -0.02    0.09
   1   2  -7   -0.11    0.06
   1   2  -7    0.20    0.11
   1   2  -7    0.01    0.09
  -1  -2   7    0.01    0.08
  -1  -2   7   -0.02    0.09
  -1  -2   7   -0.08    0.09
   0   2  -7    0.10    0.07
   0   2  -7   -0.01    0.10
   0   2  -7    0.14    0.10
   0  -2   7    0.07    0.07
   0  -2   7    0.02    0.08
   0  -2   7   -0.11    0.09
  -1   2  -7    8.11    0.44
  -1   2  -7    8.18    0.44
  -1   2  -7    8.71    0.38
   1  -2   7    8.40    0.37
   1  -2   7    7.85    0.46
  -2   2  -7   17.60    0.70
  -2   2  -7   18.17    0.59
  -2   2  -7   18.92    0.69
   2  -2   7   18.34    0.62
   2  -2   7   18.75    0.74
  -3   2  -7   24.61    0.83
  -3   2  -7   25.68    0.92
   3  -2   7   23.91    0.92
   3  -2   7   25.29    0.84
  -4   2  -7    3.89    0.49
   4  -2   7    3.90    0.46
   4  -2   7    4.04    0.49
  -5   2  -7   -0.19    0.18
   5  -2   7    0.07    0.21
   5   1  -7    1.03    0.35
   5   1  -7    1.45    0.35
  -5  -1   7    1.48    0.37
  -5  -1   7    2.11    0.42
   4   1  -7    0.70    0.27
   4   1  -7    0.85    0.27
  -4  -1   7    0.86    0.25
  -4  -1   7    1.03    0.29
  -4  -1   7    1.04    0.29
   3   1  -7    8.61    0.54
   3   1  -7    7.53    0.49
  -3  -1   7    7.61    0.52
  -3  -1   7    7.89    0.51
  -3  -1   7    8.34    0.48
   2   1  -7    9.51    0.40
   2   1  -7    9.02    0.45
   2   1  -7    8.52    0.46
   2   1  -7    8.69    0.46
  -2  -1   7    8.87    0.48
  -2  -1   7    8.29    0.44
  -2  -1   7    9.12    0.36
   1   1  -7   43.75    0.89
   1   1  -7   44.41    0.99
   1   1  -7   44.04    0.92
   1   1  -7   43.85    0.98
  -1  -1   7   43.83    0.79
  -1  -1   7   44.63    0.93
  -1  -1   7   44.03    0.91
  -1  -1   7   44.89    1.00
   0   1  -7   85.73    1.44
   0   1  -7   86.66    1.48
   0   1  -7   86.32    1.41
   0   1  -7   87.85    1.19
   0  -1   7   87.37    1.19
   0  -1   7   85.11    1.18
   0  -1   7   85.59    1.48
  -1   1  -7   21.30    0.68
  -1   1  -7   20.02    0.60
  -1   1  -7   21.12    0.66
   1  -1   7   20.57    0.52
   1  -1   7   20.91    0.70
  -2   1  -7    5.46    0.39
  -2   1  -7    6.01    0.38
   2  -1   7    5.99    0.34
   2  -1   7    5.63    0.41
  -3   1  -7    1.69    0.29
  -3   1  -7    1.52    0.26
  -3   1  -7    1.73    0.31
   3  -1   7    1.10    0.23
   3  -1   7    0.99    0.25
  -4   1  -7    0.08    0.20
   4  -1   7    0.51    0.23
   4  -1   7   -0.11    0.14
  -5   1  -7    0.42    0.29
   5  -1   7    1.00    0.27
   5   0  -7    0.03    0.18
   5   0  -7    0.21    0.19
  -5   0   7    0.08    0.19
  -5   0   7    0.08    0.20
   4   0  -7    1.78    0.35
   4   0  -7    1.44    0.28
   4   0  -7    1.73    0.37
  -4   0   7    1.50    0.34
  -4   0   7    1.86    0.33
  -4   0   7    1.67    0.35
   3   0  -7   14.10    0.70
   3   0  -7   14.31    0.66
   3   0  -7   14.67    0.58
  -3   0   7   14.44    0.68
  -3   0   7   13.70    0.62
  -3   0   7   14.08    0.70
   2   0  -7    5.22    0.38
   2   0  -7    4.65    0.35
   2   0  -7    5.20    0.36
  -2   0   7    4.73    0.36
  -2   0   7    5.50    0.37
   1   0  -7   11.96    0.42
   1   0  -7   11.38    0.48
   1   0  -7   12.18    0.50
   1   0  -7   12.23    0.47
  -1   0   7   11.37    0.45
  -1   0   7   12.67    0.51
  -1   0   7   11.77    0.41
   0   0  -7    4.83    0.31
   0   0  -7    5.02    0.31
   0   0   7    5.46    0.19
   0   0   7    4.85    0.30
   0   0   7    4.87    0.23
  -1   0  -7  110.80    1.70
  -1   0  -7  110.30    1.74
   1   0   7  111.53    1.39
   1   0   7  108.41    1.79
  -2   0  -7   59.63    1.23
  -2   0  -7   59.83    1.22
  -2   0  -7   59.47    1.20
   2   0   7   58.20    1.32
   2   0   7   59.33    1.05
  -3   0  -7    2.27    0.32
  -3   0  -7    2.39    0.30
  -3   0  -7    2.35    0.33
   3   0   7    2.70    0.36
   3   0   7    2.29    0.28
  -4   0  -7   -0.08    0.14
  -4   0  -7    0.07    0.19
   4   0   7    0.17    0.22
   4   0   7    0.09    0.13
  -5   0  -7    0.56    0.28
   5   0   7    0.25    0.22
   5  -1  -7    0.27    0.21
   5  -1  -7   -0.12    0.20
  -5   1   7    0.37    0.26
  -5   1   7    0.06    0.19
  -5   1   7    0.01    0.20
   4  -1  -7    0.18    0.17
   4  -1  -7    0.09    0.18
  -4   1   7    0.09    0.19
  -4   1   7   -0.04    0.15
  -4   1   7    0.19    0.20
   3  -1  -7    2.79    0.38
   3  -1  -7    2.96    0.34
  -3   1   7    2.34    0.35
  -3   1   7    2.47    0.37
  -3   1   7    3.10    0.38
   2  -1  -7   -0.05    0.07
   2  -1  -7   -0.04    0.09
  -2   1   7    0.08    0.12
  -2   1   7    0.18    0.14
   1  -1  -7    0.56    0.16
   1  -1  -7    0.92    0.18
  -1   1   7    0.93    0.14
  -1   1   7    0.60    0.16
  -1   1   7    0.67    0.16
   0  -1  -7   24.96    0.70
   0  -1  -7   25.42    0.70
   0   1   7   23.67    0.68
   0   1   7   25.41    0.67
   0   1   7   24.19    0.57
  -1  -1  -7   -0.01    0.08
  -1  -1  -7   -0.08    0.09
   1   1   7    0.14    0.12
   1   1   7    0.05    0.04
  -2  -1  -7    2.66    0.32
  -2  -1  -7    2.20    0.27
   2   1   7    2.53    0.31
   2   1   7    2.63    0.19
  -3  -1  -7    0.11    0.12
  -3  -1  -7   -0.12    0.12
   3   1   7    0.11    0.10
   3   1   7   -0.09    0.13
  -4  -1  -7   13.98    0.64
  -4  -1  -7   14.11    0.70
   4   1   7   13.42    0.62
   4   1   7   14.86    0.74
  -5  -1  -7    0.49    0.27
   5   1   7    0.12    0.18
   5  -2  -7    1.70    0.35
   5  -2  -7    1.39    0.36
  -5   2   7    2.12    0.40
  -5   2   7    1.14    0.33
  -5   2   7    0.80    0.29
   4  -2  -7    0.04    0.15
   4  -2  -7    0.22    0.19
  -4   2   7    0.24    0.22
  -4   2   7    0.18    0.19
  -4   2   7   -0.01    0.18
   3  -2  -7   11.31    0.60
   3  -2  -7   10.93    0.52
  -3   2   7   11.10    0.60
  -3   2   7   12.10    0.67
  -3   2   7   11.79    0.61
   2  -2  -7    0.50    0.13
   2  -2  -7    0.75    0.19
  -2   2   7    0.73    0.21
  -2   2   7    0.67    0.20
   1  -2  -7   29.24    0.54
   1  -2  -7   28.72    0.80
   1  -2  -7   29.29    0.81
  -1   2   7   27.42    0.61
  -1   2   7   29.44    0.81
  -1   2   7   29.82    0.81
   0  -2  -7    8.37    0.40
   0  -2  -7    7.96    0.40
   0   2   7    7.95    0.37
   0   2   7    7.74    0.36
   0   2   7    8.00    0.40
  -1  -2  -7    6.60    0.34
  -1  -2  -7    6.89    0.39
   1   2   7    6.23    0.37
   1   2   7    6.47    0.27
  -2  -2  -7   14.90    0.53
  -2  -2  -7   14.32    0.59
   2   2   7   14.61    0.41
   2   2   7   14.78    0.61
  -3  -2  -7   24.77    0.85
  -3  -2  -7   26.47    0.76
   3   2   7   24.52    0.87
   3   2   7   25.03    0.70
  -4  -2  -7    0.26    0.22
   4   2   7    0.05    0.12
   4   2   7    0.34    0.20
  -5  -2  -7    1.35    0.37
   5   2   7    1.09    0.27
   5   2   7    0.78    0.28
   5  -3  -7    2.96    0.49
  -5   3   7    3.71    0.53
  -5   3   7    3.85    0.54
  -5   3   7    2.85    0.49
   4  -3  -7   -0.14    0.14
   4  -3  -7    0.00    0.17
  -4   3   7    0.15    0.21
  -4   3   7    0.21    0.23
  -4   3   7    0.22    0.20
   3  -3  -7    4.37    0.46
   3  -3  -7    3.89    0.38
  -3   3   7    4.12    0.46
  -3   3   7    2.97    0.44
  -3   3   7    4.16    0.45
   2  -3  -7    1.32    0.26
   2  -3  -7    1.03    0.18
  -2   3   7    1.20    0.24
  -2   3   7    1.12    0.27
   1  -3  -7   27.09    0.78
   1  -3  -7   26.76    0.54
  -1   3   7   23.65    0.75
  -1   3   7   25.87    0.80
  -1   3   7   26.36    0.59
   0  -3  -7   31.06    0.80
   0  -3  -7   30.67    0.82
   0   3   7   32.30    0.77
   0   3   7   32.02    0.81
   0   3   7   31.57    0.81
  -1  -3  -7    0.00    0.11
  -1  -3  -7   -0.03    0.07
   1   3   7    0.09    0.10
   1   3   7    0.03    0.09
   1   3   7    0.12    0.11
  -2  -3  -7    5.81    0.40
  -2  -3  -7    6.39    0.34
   2   3   7    6.42    0.30
   2   3   7    6.39    0.42
  -3  -3  -7  113.72    1.74
  -3  -3  -7  111.58    2.05
   3   3   7  113.03    1.72
   3   3   7  109.83    2.05
  -4  -3  -7   17.18    0.82
   4   3   7   17.62    0.69
   4   3   7   18.33    0.82
  -5  -3  -7    0.83    0.34
   5   3   7    1.22    0.29
   5   3   7    1.40    0.34
   4  -4  -7    0.15    0.20
  -4   4   7    0.70    0.27
  -4   4   7    0.46    0.25
  -4   4   7    0.44    0.27
   3  -4  -7    0.37    0.16
   3  -4  -7    0.48    0.20
  -3   4   7    0.57    0.25
  -3   4   7    0.71    0.22
  -3   4   7    0.67    0.23
   2  -4  -7   69.59    1.27
   2  -4  -7   67.42    1.44
  -2   4   7   67.30    1.58
  -2   4   7   66.78    1.48
   1  -4  -7    5.25    0.36
  -1   4   7    5.35    0.38
  -1   4   7    5.67    0.43
  -1   4   7    5.11    0.27
   0  -4  -7   68.11    1.32
   0  -4  -7   65.98    1.27
   0   4   7   67.01    1.32
   0   4   7   66.23    1.28
   0   4   7   66.84    1.22
  -1  -4  -7   27.10    0.80
  -1  -4  -7   27.41    0.71
   1   4   7   27.23    0.73
   1   4   7   27.28    0.80
   1   4   7   28.35    0.73
  -2  -4  -7    0.40    0.19
  -2  -4  -7    0.70    0.15
   2   4   7    0.95    0.18
   2   4   7    0.51    0.20
   2   4   7    0.72    0.16
  -3  -4  -7    2.41    0.36
   3   4   7    2.54    0.36
  -4  -4  -7   -0.21    0.17
   4   4   7   -0.14    0.14
  -5  -4  -7    0.22    0.24
   5   4   7    0.03    0.18
  -4   5   7    3.03    0.51
  -4   5   7    3.40    0.50
   3  -5  -7    9.58    0.56
  -3   5   7    9.21    0.56
  -3   5   7    9.22    0.62
  -3   5   7    8.71    0.66
   2  -5  -7    1.49    0.27
  -2   5   7    1.53    0.29
  -2   5   7    1.74    0.36
   1  -5  -7    7.60    0.44
  -1   5   7    7.16    0.52
  -1   5   7    7.29    0.46
   0  -5  -7    9.40    0.47
   0   5   7    9.39    0.47
   0   5   7    9.64    0.45
   0   5   7    9.60    0.52
  -1  -5  -7   20.96    0.72
  -1  -5  -7   20.98    0.63
   1   5   7   20.08    0.70
   1   5   7   20.32    0.71
  -2  -5  -7   33.04    0.75
  -2  -5  -7   32.85    0.96
   2   5   7   33.27    0.89
   2   5   7   31.21    0.97
  -3  -5  -7    0.70    0.24
   3   5   7    0.34    0.19
   3   5   7    0.67    0.20
  -4  -5  -7    0.86    0.29
   4   5   7    1.79    0.36
  -5  -5  -7   -0.35    0.20
   5   5   7    0.59    0.24
  -4   6   7    2.21    0.47
  -4   6   7    2.75    0.49
  -3   6   7    0.69    0.29
  -3   6   7    1.10    0.36
   2  -6  -7   23.76    0.82
  -2   6   7   23.94    1.03
  -2   6   7   24.59    0.96
   1  -6  -7   33.69    0.93
  -1   6   7   33.39    1.10
  -1   6   7   33.78    1.01
   0  -6  -7   14.81    0.60
   0   6   7   14.28    0.60
   0   6   7   14.14    0.57
   0   6   7   14.78    0.68
  -1  -6  -7   17.39    0.67
   1   6   7   17.44    0.69
   1   6   7   17.18    0.69
   1   6   7   17.40    0.64
  -2  -6  -7    0.77    0.24
   2   6   7    0.78    0.22
   2   6   7    0.27    0.17
  -3  -6  -7    2.78    0.41
   3   6   7    3.02    0.37
   3   6   7    2.06    0.35
  -4  -6  -7   10.95    0.69
   4   6   7   11.13    0.69
  -5  -6  -7   -0.21    0.23
   5   6   7    0.24    0.23
  -3   7   7    0.32    0.25
  -3   7   7    0.72    0.32
  -2   7   7    2.66    0.42
  -2   7   7    2.37    0.43
   1  -7  -7    1.69    0.27
  -1   7   7    0.90    0.27
  -1   7   7    1.23    0.30
   0  -7  -7    0.47    0.17
   0   7   7    0.53    0.20
   0   7   7    0.52    0.24
   0   7   7    0.71    0.20
  -1  -7  -7   21.00    0.75
   1   7   7   20.68    0.79
   1   7   7   23.00    0.79
   1   7   7   21.52    0.83
  -2  -7  -7    0.35    0.21
   2   7   7    0.22    0.17
   2   7   7    1.18    0.27
  -3  -7  -7    0.84    0.26
   3   7   7    1.49    0.32
   3   7   7    1.06    0.30
  -4  -7  -7    1.45    0.35
   4   7   7    1.03    0.31
  -5  -7  -7    1.82    0.45
   5   7   7    2.87    0.51
  -3   8   7    2.51    0.52
  -3   8   7    2.30    0.48
  -2   8   7   -0.01    0.22
  -2   8   7   -0.23    0.15
  -1   8   7    0.08    0.18
  -1   8   7    0.17    0.24
   0  -8  -7   37.43    1.00
   0   8   7   34.40    1.18
   0   8   7   34.53    1.03
   0   8   7   36.58    1.05
  -1  -8  -7   11.98    0.58
   1   8   7   10.57    0.60
   1   8   7   10.79    0.65
  -2  -8  -7   25.37    0.90
   2   8   7   24.33    0.95
   2   8   7   23.87    0.94
  -3  -8  -7    4.29    0.50
   3   8   7    4.00    0.50
   3   8   7    4.64    0.53
  -4  -8  -7    1.85    0.42
   4   8   7    1.64    0.37
   4   8   7    2.33    0.42
  -5  -8  -7    0.73    0.35
   5   8   7    0.39    0.28
  -2   9   7    0.68    0.30
  -2   9   7    0.15    0.27
  -1   9   7    0.73    0.29
  -1   9   7    1.39    0.33
   0   9   7    0.08    0.18
   0   9   7    0.04    0.20
   1   9   7    3.92    0.51
   1   9   7    4.33    0.51
  -2  -9  -7    4.86    0.50
   2   9   7    4.98    0.59
   2   9   7    5.80    0.60
  -3  -9  -7    0.31    0.23
   3   9   7    0.17    0.20
   3   9   7    0.04    0.22
  -4  -9  -7    3.24    0.49
   4   9   7    2.23    0.44
   4   9   7    2.87    0.50
  -2  10   7    5.34    0.73
  -2  10   7    5.24    0.66
  -1  10   7    0.74    0.29
  -1  10   7    1.29    0.37
   0  10   7    8.88    0.85
   1  10   7    5.16    0.57
   1  10   7    5.63    0.66
   2  10   7    3.33    0.51
   2  10   7    4.64    0.60
  -3 -10  -7    9.89    0.68
   3  10   7    8.11    0.67
   3  10   7    7.93    0.65
  -4 -10  -7    0.81    0.30
   4  10   7    0.89    0.35
   4  10   7    0.91    0.34
  -1  11   7   -0.14    0.20
   0  11   7    0.67    0.34
   1  11   7    0.18    0.26
   1  11   7    0.22    0.23
   2  11   7   -0.01    0.21
   2  11   7   -0.03    0.22
   3  11   7    0.08    0.23
   3  11   7    0.69    0.33
   1  12   7    1.30    0.42
   2  12   7    0.25    0.29
   2  12   7   -0.03    0.22
   1  10  -8    1.96    0.44
   3   9  -8    0.22    0.24
   2   9  -8    0.40    0.27
  -2  -9   8    0.35    0.27
   1   9  -8   -0.14    0.19
  -1  -9   8   -0.42    0.17
   0   9  -8    0.33    0.22
   0  -9   8   -0.34    0.24
   0  -9   8    0.14    0.24
  -1   9  -8    0.12    0.21
  -1   9  -8    0.01    0.23
   1  -9   8    0.07    0.24
   1  -9   8   -0.03    0.26
   3   8  -8    0.53    0.26
  -3  -8   8   -0.01    0.20
  -3  -8   8    0.07    0.21
   2   8  -8    0.93    0.28
  -2  -8   8    1.34    0.34
   1   8  -8    1.71    0.35
  -1  -8   8    2.29    0.39
   0   8  -8    5.92    0.59
   0   8  -8    5.79    0.61
   0  -8   8    7.76    0.70
   0  -8   8    6.42    0.70
  -1   8  -8   15.84    0.87
  -1   8  -8   13.71    0.80
   1  -8   8   14.26    0.80
   1  -8   8   13.08    0.84
  -2   8  -8    1.11    0.34
  -2   8  -8    1.01    0.33
   2  -8   8    0.99    0.30
   2  -8   8    0.89    0.35
   4   7  -8    0.23    0.24
  -4  -7   8    0.38    0.24
  -4  -7   8   -0.02    0.25
   3   7  -8    2.15    0.41
  -3  -7   8    2.10    0.38
  -3  -7   8    1.60    0.38
   2   7  -8    6.92    0.74
   2   7  -8    6.42    0.50
  -2  -7   8    6.26    0.60
   1   7  -8    2.66    0.42
   1   7  -8    2.62    0.40
  -1  -7   8    2.66    0.40
   0   7  -8    0.08    0.18
   0   7  -8    0.21    0.18
   0  -7   8    0.31    0.26
   0  -7   8    0.31    0.22
  -1   7  -8    3.27    0.48
  -1   7  -8    2.02    0.37
   1  -7   8    2.56    0.41
   1  -7   8    3.20    0.49
  -2   7  -8    5.95    0.63
  -2   7  -8    9.09    0.69
   2  -7   8    6.68    0.71
   2  -7   8    7.48    0.69
  -3   7  -8   -0.11    0.18
   3  -7   8   -0.04    0.24
   4   6  -8   -0.02    0.19
   4   6  -8   -0.16    0.18
  -4  -6   8    0.05    0.19
  -4  -6   8    0.17    0.24
  -4  -6   8    0.06    0.21
   3   6  -8    0.18    0.18
  -3  -6   8   -0.06    0.21
  -3  -6   8   -0.10    0.20
   2   6  -8   14.37    0.68
   2   6  -8   14.40    0.70
  -2  -6   8   12.42    0.64
   1   6  -8    7.95    0.49
   1   6  -8    7.30    0.50
  -1  -6   8    7.05    0.48
   0   6  -8    5.36    0.52
   0   6  -8    4.68    0.51
   0  -6   8    5.47    0.58
   0  -6   8    4.52    0.46
  -1   6  -8   -0.01    0.15
  -1   6  -8   -0.13    0.15
   1  -6   8    0.08    0.18
   1  -6   8   -0.01    0.21
  -2   6  -8    0.12    0.18
  -2   6  -8    0.05    0.23
   2  -6   8    0.12    0.24
   2  -6   8    0.42    0.23
  -3   6  -8    3.14    0.46
  -3   6  -8    3.27    0.51
   3  -6   8    4.23    0.54
   3  -6   8    4.31    0.57
   5   5  -8    0.66    0.30
   5   5  -8    0.72    0.34
  -5  -5   8    0.31    0.30
  -5  -5   8    0.91    0.32
   4   5  -8    0.30    0.21
   4   5  -8    0.06    0.16
  -4  -5   8    0.36    0.23
  -4  -5   8    0.11    0.19
   3   5  -8    3.91    0.45
   3   5  -8    4.21    0.51
  -3  -5   8    6.00    0.55
  -3  -5   8    3.69    0.46
  -3  -5   8    4.48    0.48
   2   5  -8    0.24    0.17
   2   5  -8   -0.13    0.12
  -2  -5   8    0.24    0.15
  -2  -5   8    0.21    0.18
  -2  -5   8   -0.03    0.13
  -2  -5   8    0.14    0.14
   1   5  -8    6.67    0.45
   1   5  -8    6.35    0.45
  -1  -5   8    6.61    0.49
  -1  -5   8    6.22    0.43
   0   5  -8    0.75    0.23
   0   5  -8    0.52    0.19
   0  -5   8    0.38    0.19
   0  -5   8    0.94    0.27
  -1   5  -8   13.12    0.68
  -1   5  -8   12.67    0.65
   1  -5   8   12.76    0.61
   1  -5   8   13.46    0.73
  -2   5  -8    6.66    0.52
  -2   5  -8    7.13    0.68
   2  -5   8    6.78    0.67
   2  -5   8    7.13    0.51
  -3   5  -8    0.08    0.21
  -3   5  -8    0.09    0.19
   3  -5   8   -0.08    0.21
   3  -5   8    0.01    0.18
  -4   5  -8   -0.06    0.28
   4  -5   8    0.85    0.32
   5   4  -8    0.11    0.19
   5   4  -8    0.18    0.21
  -5  -4   8    0.00    0.22
  -5  -4   8    0.03    0.20
   4   4  -8    4.06    0.54
   4   4  -8    3.66    0.49
  -4  -4   8    4.29    0.56
  -4  -4   8    3.71    0.48
   3   4  -8   25.79    0.99
   3   4  -8   26.04    0.94
  -3  -4   8   26.02    0.90
  -3  -4   8   26.73    0.95
  -3  -4   8   25.40    0.98
   2   4  -8    1.64    0.30
   2   4  -8    1.34    0.25
   2   4  -8    1.35    0.24
   2   4  -8    1.45    0.26
  -2  -4   8    1.27    0.24
  -2  -4   8    1.18    0.24
  -2  -4   8    1.67    0.28
  -2  -4   8    1.18    0.24
  -2  -4   8    1.56    0.29
   1   4  -8    6.49    0.43
   1   4  -8    5.63    0.35
   1   4  -8    5.80    0.41
   1   4  -8    5.79    0.37
  -1  -4   8    5.43    0.36
  -1  -4   8    5.70    0.44
  -1  -4   8    6.20    0.37
   0   4  -8   16.35    0.69
   0   4  -8   16.65    0.68
   0  -4   8   16.57    0.61
   0  -4   8   16.78    0.72
  -1   4  -8    1.58    0.29
  -1   4  -8    1.43    0.30
   1  -4   8    1.16    0.25
   1  -4   8    0.95    0.26
  -2   4  -8    3.30    0.42
  -2   4  -8    2.84    0.41
   2  -4   8    3.11    0.43
   2  -4   8    3.07    0.37
  -3   4  -8   -0.09    0.18
  -3   4  -8   -0.09    0.14
   3  -4   8    0.13    0.22
   3  -4   8    0.15    0.17
  -4   4  -8   -0.19    0.19
   4  -4   8    0.41    0.45
   4  -4   8    0.26    0.23
   5   3  -8    0.15    0.22
   5   3  -8    0.37    0.25
  -5  -3   8    0.18    0.24
  -5  -3   8   -0.09    0.18
   4   3  -8    0.17    0.22
   4   3  -8   -0.23    0.15
  -4  -3   8   -0.12    0.18
  -4  -3   8   -0.03    0.18
   3   3  -8    0.22    0.18
   3   3  -8    0.41    0.16
   3   3  -8    0.68    0.23
  -3  -3   8    0.34    0.17
  -3  -3   8    0.60    0.23
  -3  -3   8    0.12    0.17
   2   3  -8    0.73    0.19
   2   3  -8    0.56    0.17
   2   3  -8    0.54    0.20
   2   3  -8    0.47    0.18
  -2  -3   8    0.52    0.19
  -2  -3   8    0.52    0.18
  -2  -3   8    0.41    0.18
  -2  -3   8    0.60    0.20
  -2  -3   8    0.38    0.17
   1   3  -8   25.03    0.79
   1   3  -8   25.19    0.74
   1   3  -8   24.10    0.75
   1   3  -8   24.31    0.71
  -1  -3   8   24.51    0.69
  -1  -3   8   24.37    0.71
  -1  -3   8   24.66    0.79
   0   3  -8    6.92    0.44
   0   3  -8    6.57    0.42
   0   3  -8    6.39    0.35
   0  -3   8    6.43    0.36
   0  -3   8    7.53    0.47
  -1   3  -8   -0.07    0.11
  -1   3  -8    0.37    0.19
   1  -3   8    0.11    0.14
   1  -3   8    0.10    0.16
  -2   3  -8    3.66    0.44
  -2   3  -8    2.88    0.37
   2  -3   8    3.24    0.42
   2  -3   8    3.20    0.36
  -3   3  -8    5.28    0.56
  -3   3  -8    6.50    0.49
   3  -3   8    5.00    0.49
   3  -3   8    5.75    0.59
  -4   3  -8   10.26    0.70
   4  -3   8   11.60    0.68
   4  -3   8   10.88    0.72
   5   2  -8   -0.08    0.19
   5   2  -8    0.30    0.24
  -5  -2   8    0.27    0.24
  -5  -2   8    0.71    0.31
   4   2  -8   15.07    0.81
   4   2  -8   14.63    0.82
  -4  -2   8   15.74    0.83
   3   2  -8   10.52    0.59
   3   2  -8   10.20    0.61
  -3  -2   8   10.34    0.59
  -3  -2   8   10.55    0.61
  -3  -2   8    9.68    0.53
   2   2  -8   13.92    0.61
   2   2  -8   14.02    0.62
   2   2  -8   13.08    0.58
   2   2  -8   13.92    0.51
  -2  -2   8   13.00    0.59
  -2  -2   8   14.67    0.54
  -2  -2   8   14.93    0.62
   1   2  -8    3.14    0.32
   1   2  -8    2.66    0.28
   1   2  -8    2.37    0.29
   1   2  -8    2.79    0.33
  -1  -2   8    2.41    0.25
  -1  -2   8    2.60    0.28
  -1  -2   8    2.16    0.27
   0   2  -8    0.14    0.11
   0   2  -8   -0.07    0.11
   0  -2   8    0.29    0.15
   0  -2   8    0.31    0.11
  -1   2  -8    6.01    0.42
  -1   2  -8    4.91    0.37
  -1   2  -8    5.36    0.33
   1  -2   8    5.99    0.33
   1  -2   8    5.48    0.43
  -2   2  -8   26.74    0.91
  -2   2  -8   25.64    0.86
   2  -2   8   26.63    0.77
   2  -2   8   26.29    0.93
  -3   2  -8    6.99    0.52
  -3   2  -8    7.72    0.49
   3  -2   8    6.24    0.43
   3  -2   8    6.95    0.53
  -4   2  -8    8.92    0.65
   4  -2   8    8.11    0.55
   4  -2   8    9.27    0.66
  -5   2  -8   -0.21    0.18
   5  -2   8    0.44    0.28
   5   1  -8   -0.03    0.20
   5   1  -8    0.43    0.26
  -5  -1   8    0.36    0.26
  -5  -1   8    0.65    0.29
   4   1  -8    5.53    0.64
   4   1  -8    5.07    0.58
  -4  -1   8    4.67    0.49
  -4  -1   8    5.18    0.59
  -4  -1   8    4.46    0.58
   3   1  -8    1.81    0.32
   3   1  -8    2.57    0.40
  -3  -1   8    1.90    0.33
  -3  -1   8    1.51    0.31
  -3  -1   8    1.77    0.29
   2   1  -8    1.39    0.25
   2   1  -8    2.28    0.32
   2   1  -8    1.92    0.27
  -2  -1   8    1.70    0.27
  -2  -1   8    1.35    0.25
   1   1  -8    3.52    0.35
   1   1  -8    3.24    0.31
   1   1  -8    2.96    0.32
   1   1  -8    3.32    0.31
  -1  -1   8    3.20    0.25
  -1  -1   8    2.95    0.32
  -1  -1   8    2.96    0.30
  -1  -1   8    3.02    0.22
   0   1  -8   20.72    0.65
   0   1  -8   19.41    0.65
   0   1  -8   20.58    0.68
   0  -1   8   20.19    0.48
   0  -1   8   20.87    0.68
  -1   1  -8   18.54    0.61
  -1   1  -8   18.86    0.67
  -1   1  -8   18.99    0.69
   1  -1   8   18.14    0.69
   1  -1   8   19.37    0.51
  -2   1  -8   -0.07    0.13
  -2   1  -8    0.28    0.17
  -2   1  -8   -0.03    0.12
   2  -1   8    0.06    0.10
   2  -1   8    0.18    0.17
  -3   1  -8    2.15    0.31
  -3   1  -8    1.72    0.29
  -3   1  -8    1.84    0.32
   3  -1   8    1.47    0.30
   3  -1   8    1.90    0.27
  -4   1  -8    2.07    0.38
   4  -1   8    2.34    0.42
   4  -1   8    2.58    0.37
   5   0  -8    1.67    0.39
  -5   0   8    1.01    0.32
  -5   0   8    1.96    0.46
   4   0  -8    0.73    0.26
   4   0  -8    0.53    0.24
   4   0  -8    0.66    0.22
  -4   0   8    1.03    0.31
  -4   0   8    0.53    0.25
  -4   0   8    0.96    0.26
   3   0  -8   15.18    0.75
   3   0  -8   15.60    0.72
  -3   0   8   14.92    0.73
  -3   0   8   13.52    0.68
  -3   0   8   13.54    0.64
   2   0  -8    4.72    0.45
   2   0  -8    5.00    0.39
   2   0  -8    4.83    0.45
  -2   0   8    4.71    0.37
  -2   0   8    4.89    0.37
   1   0  -8   71.40    1.40
   1   0  -8   69.20    1.28
   1   0  -8   70.11    1.38
   1   0  -8   71.36    1.25
  -1   0   8   69.85    1.38
  -1   0   8   71.50    1.30
  -1   0   8   68.72    1.21
  -1   0   8   67.90    1.02
   0   0  -8    0.61    0.16
   0   0  -8    1.00    0.20
   0   0  -8    0.47    0.15
   0   0   8    0.71    0.13
   0   0   8    0.53    0.16
   0   0   8    0.91    0.11
  -1   0  -8   18.12    0.62
  -1   0  -8   18.79    0.65
  -1   0  -8   19.04    0.65
   1   0   8   18.62    0.43
   1   0   8   19.96    0.70
  -2   0  -8    1.89    0.28
  -2   0  -8    2.27    0.31
  -2   0  -8    2.13    0.29
   2   0   8    2.45    0.35
   2   0   8    2.07    0.23
  -3   0  -8   23.04    0.82
  -3   0  -8   23.53    0.80
  -3   0  -8   24.26    0.84
   3   0   8   22.05    0.72
   3   0   8   23.77    0.91
  -4   0  -8   -0.08    0.16
  -4   0  -8   -0.26    0.17
   4   0   8    0.01    0.18
   4   0   8   -0.18    0.11
   5  -1  -8    2.90    0.50
  -5   1   8    1.63    0.40
  -5   1   8    2.07    0.45
   4  -1  -8    0.10    0.22
  -4   1   8    0.23    0.22
  -4   1   8   -0.08    0.16
  -4   1   8   -0.14    0.18
   3  -1  -8   11.80    0.65
  -3   1   8   12.84    0.64
  -3   1   8   12.58    0.66
  -3   1   8   11.99    0.67
   2  -1  -8   23.14    0.81
   2  -1  -8   23.90    0.79
  -2   1   8   23.60    0.81
  -2   1   8   22.50    0.79
   1  -1  -8   25.57    0.79
   1  -1  -8   25.60    0.78
  -1   1   8   25.42    0.73
  -1   1   8   23.98    0.76
  -1   1   8   26.16    0.65
   0  -1  -8    9.67    0.46
   0  -1  -8   10.31    0.48
   0   1   8    9.21    0.46
   0   1   8   10.89    0.47
   0   1   8   10.57    0.39
  -1  -1  -8    2.61    0.31
  -1  -1  -8    2.58    0.29
   1   1   8    2.70    0.31
  -2  -1  -8   17.75    0.65
  -2  -1  -8   18.68    0.68
   2   1   8   17.54    0.70
  -3  -1  -8    0.35    0.17
  -3  -1  -8    0.31    0.22
   3   1   8    0.56    0.23
   3   1   8    0.55    0.15
  -4  -1  -8   -0.05    0.16
  -4  -1  -8    0.06    0.16
  -4  -1  -8    0.38    0.18
   4   1   8   -0.10    0.17
  -5  -1  -8    0.49    0.25
   5   1   8    0.17    0.29
   5  -2  -8    0.03    0.18
  -5   2   8    0.35    0.22
  -5   2   8   -0.28    0.18
  -5   2   8   -0.04    0.20
   4  -2  -8    7.55    0.58
  -4   2   8    6.83    0.63
  -4   2   8    6.23    0.62
  -4   2   8    7.35    0.60
   3  -2  -8    0.08    0.15
  -3   2   8    0.05    0.16
  -3   2   8    0.13    0.17
  -3   2   8    0.42    0.19
   2  -2  -8    1.58    0.28
  -2   2   8    1.91    0.30
  -2   2   8    0.88    0.23
   1  -2  -8   84.39    1.57
   1  -2  -8   82.70    1.57
  -1   2   8   85.16    1.58
  -1   2   8   87.10    1.32
  -1   2   8   85.40    1.56
   0  -2  -8   74.16    1.43
   0  -2  -8   77.10    1.41
   0   2   8   74.68    1.34
   0   2   8   76.86    1.43
   0   2   8   75.62    1.29
  -1  -2  -8    7.87    0.40
  -1  -2  -8    8.54    0.45
   1   2   8    8.98    0.46
   1   2   8    8.09    0.31
  -2  -2  -8   29.79    0.81
  -2  -2  -8   30.49    0.91
   2   2   8   31.27    0.95
  -3  -2  -8    7.01    0.43
  -3  -2  -8    5.86    0.45
   3   2   8    5.91    0.49
  -4  -2  -8    0.52    0.26
   4   2   8    0.45    0.23
  -5  -2  -8   -0.03    0.22
   5   2   8    0.12    0.23
   4  -3  -8    1.34    0.32
  -4   3   8    1.55    0.35
  -4   3   8    2.14    0.39
  -4   3   8    1.46    0.36
   3  -3  -8    0.01    0.14
  -3   3   8    0.27    0.20
  -3   3   8    0.13    0.19
  -3   3   8   -0.06    0.14
   2  -3  -8    3.49    0.41
  -2   3   8    4.44    0.48
  -2   3   8    3.82    0.41
   1  -3  -8   14.96    0.61
   1  -3  -8   14.35    0.60
  -1   3   8   14.60    0.62
  -1   3   8   15.01    0.47
  -1   3   8   15.94    0.63
   0  -3  -8    5.84    0.37
   0  -3  -8    5.43    0.37
   0   3   8    5.82    0.35
   0   3   8    5.36    0.36
   0   3   8    5.71    0.37
  -1  -3  -8    0.06    0.10
  -1  -3  -8   -0.01    0.12
   1   3   8    0.15    0.12
   1   3   8    0.10    0.10
   1   3   8    0.13    0.10
  -2  -3  -8    1.85    0.25
  -2  -3  -8    2.04    0.33
   2   3   8    2.01    0.31
  -3  -3  -8    4.04    0.31
  -3  -3  -8    4.42    0.47
   3   3   8    3.93    0.45
  -4  -3  -8    0.01    0.18
   4   3   8    0.13    0.19
  -5  -3  -8   -0.06    0.22
   5   3   8    0.14    0.21
   4  -4  -8    8.53    0.62
  -4   4   8    8.75    0.67
  -4   4   8    7.51    0.77
  -4   4   8    8.67    0.62
   3  -4  -8   -0.14    0.12
  -3   4   8   -0.16    0.17
  -3   4   8    0.01    0.15
  -3   4   8   -0.01    0.16
   2  -4  -8   30.72    0.97
  -2   4   8   31.40    1.07
  -2   4   8   31.54    1.01
   1  -4  -8   79.57    1.56
  -1   4   8   78.90    1.65
  -1   4   8   80.93    1.59
   0  -4  -8   36.56    0.97
   0  -4  -8   36.81    0.95
   0   4   8   35.62    0.94
   0   4   8   36.13    0.89
   0   4   8   36.40    0.96
  -1  -4  -8    2.90    0.36
  -1  -4  -8    2.67    0.29
   1   4   8    3.04    0.31
   1   4   8    2.37    0.27
   1   4   8    2.78    0.32
  -2  -4  -8    0.85    0.17
  -2  -4  -8    1.08    0.26
   2   4   8    0.75    0.27
   2   4   8    0.94    0.19
   2   4   8    1.05    0.24
  -3  -4  -8   32.36    1.05
   3   4   8   32.35    1.08
  -4  -4  -8    0.65    0.26
   4   4   8    0.32    0.23
  -5  -4  -8   -0.14    0.20
   5   4   8    0.01    0.21
   4  -5  -8   -0.02    0.19
  -4   5   8    0.16    0.25
  -4   5   8    0.52    0.25
  -4   5   8    0.57    0.28
   3  -5  -8    0.34    0.20
  -3   5   8   -0.12    0.24
  -3   5   8   -0.25    0.15
  -3   5   8    0.16    0.18
   2  -5  -8   14.05    0.65
  -2   5   8   14.43    0.77
  -2   5   8   14.35    0.71
   1  -5  -8    7.82    0.46
  -1   5   8    7.79    0.49
  -1   5   8    7.76    0.55
   0  -5  -8   21.84    0.77
   0   5   8   23.20    0.81
   0   5   8   22.42    0.71
   0   5   8   22.94    0.75
  -1  -5  -8    6.85    0.39
  -1  -5  -8    6.81    0.44
   1   5   8    6.19    0.42
   1   5   8    6.83    0.39
   1   5   8    6.93    0.44
  -2  -5  -8    1.91    0.25
  -2  -5  -8    2.78    0.39
   2   5   8    2.90    0.33
   2   5   8    2.11    0.34
   2   5   8    1.81    0.28
  -3  -5  -8   12.93    0.69
   3   5   8   12.21    0.68
  -4  -5  -8    4.71    0.55
   4   5   8    3.54    0.48
  -5  -5  -8    1.78    0.42
   5   5   8    1.57    0.41
  -4   6   8    4.11    0.60
  -4   6   8    3.58    0.59
   3  -6  -8    5.29    0.53
  -3   6   8    4.14    0.54
  -3   6   8    4.80    0.63
   2  -6  -8    0.14    0.16
  -2   6   8    0.22    0.22
  -2   6   8    1.04    0.32
   1  -6  -8   -0.03    0.11
  -1   6   8   -0.04    0.13
  -1   6   8    0.04    0.18
   0  -6  -8    0.61    0.19
   0   6   8    0.71    0.20
   0   6   8    0.30    0.16
   0   6   8    0.67    0.24
  -1  -6  -8    4.15    0.44
   1   6   8    4.52    0.46
   1   6   8    4.07    0.42
  -2  -6  -8   34.27    1.05
   2   6   8   36.66    1.12
   2   6   8   36.71    1.02
  -3  -6  -8    0.20    0.19
   3   6   8    0.37    0.20
  -4  -6  -8    4.59    0.55
   4   6   8    5.12    0.59
  -5  -6  -8    0.36    0.27
   5   6   8   -0.05    0.22
  -3   7   8    1.52    0.40
  -3   7   8    1.70    0.44
  -2   7   8    2.90    0.50
  -2   7   8    2.71    0.45
   1  -7  -8   20.92    0.78
  -1   7   8   21.33    0.94
  -1   7   8   19.72    0.84
   0  -7  -8   12.76    0.60
   0   7   8   12.71    0.59
   0   7   8   12.09    0.67
   0   7   8   12.82    0.61
  -1  -7  -8   20.22    0.78
   1   7   8   19.20    0.79
   1   7   8   19.46    0.79
   1   7   8   20.47    0.82
  -2  -7  -8    7.88    0.52
   2   7   8    7.22    0.49
   2   7   8    7.03    0.52
  -3  -7  -8    1.64    0.34
   3   7   8    1.11    0.28
   3   7   8    1.56    0.34
  -4  -7  -8    1.52    0.38
   4   7   8    1.48    0.37
  -5  -7  -8    0.82    0.33
   5   7   8    0.34    0.25
  -3   8   8    0.23    0.30
  -3   8   8   -0.01    0.21
  -2   8   8    0.04    0.21
  -2   8   8   -0.11    0.25
  -1   8   8    2.47    0.45
  -1   8   8    2.40    0.39
   0  -8  -8    7.59    0.48
   0   8   8    7.01    0.49
   0   8   8    6.99    0.49
   0   8   8    7.01    0.57
  -1  -8  -8    8.50    0.54
   1   8   8    8.52    0.56
   1   8   8    9.36    0.62
  -2  -8  -8    4.93    0.50
   2   8   8    4.32    0.50
   2   8   8    4.08    0.50
  -3  -8  -8    5.83    0.61
   3   8   8    4.36    0.50
   3   8   8    3.93    0.53
  -4  -8  -8    6.17    0.67
   4   8   8    5.46    0.65
  -5  -8  -8    3.54    0.59
   5   8   8    3.33    0.55
  -2   9   8    0.10    0.25
  -2   9   8    0.06    0.24
  -1   9   8    6.61    0.65
  -1   9   8    5.03    0.67
   0   9   8    3.47    0.50
  -1  -9  -8    9.20    0.56
   1   9   8    8.30    0.59
   1   9   8    8.31    0.62
  -2  -9  -8   13.74    0.71
   2   9   8   13.08    0.77
   2   9   8   15.36    0.82
  -3  -9  -8   20.84    0.94
   3   9   8   19.54    0.92
   3   9   8   22.33    1.04
  -4  -9  -8    1.12    0.35
   4   9   8    2.57    0.46
  -1  10   8   -0.36    0.24
  -1  10   8   -0.27    0.19
   0  10   8    2.19    0.47
   1  10   8   17.33    0.94
   1  10   8   19.13    0.91
   2  10   8    6.34    0.67
   2  10   8    6.56    0.72
  -3 -10  -8    1.61    0.36
   3  10   8    2.60    0.46
   3  10   8    1.44    0.40
  -4 -10  -8    0.89    0.35
   4  10   8    0.40    0.31
   4  10   8    1.02    0.37
   0  11   8   -0.01    0.26
   1  11   8    2.99    0.57
   1  11   8    4.48    0.57
   2  11   8    0.90    0.31
   2  11   8    0.07    0.22
   3  11   8    0.19    0.26
   3  11   8    0.06    0.30
   2   9  -9    0.56    0.25
  -2  -9   9    0.09    0.27
   1   9  -9    0.05    0.22
  -1  -9   9    0.12    0.28
  -1  -9   9    0.40    0.31
   0   9  -9    6.54    0.70
   0  -9   9    5.83    0.66
   0  -9   9    6.35    0.73
  -3  -8   9    0.88    0.31
  -3  -8   9    1.28    0.38
   2   8  -9    3.56    0.50
  -2  -8   9    4.10    0.52
   1   8  -9    1.47    0.35
  -1  -8   9    1.87    0.39
  -1  -8   9    2.68    0.50
   0   8  -9    3.10    0.50
   0   8  -9    2.29    0.41
   0  -8   9    3.58    0.56
   0  -8   9    2.05    0.39
  -1   8  -9    0.78    0.33
  -1   8  -9    0.53    0.29
   1  -8   9    0.34    0.33
   1  -8   9    0.47    0.28
   4   7  -9    3.59    0.56
  -4  -7   9    5.17    0.64
  -4  -7   9    3.23    0.53
   3   7  -9    0.07    0.17
  -3  -7   9    0.37    0.26
  -3  -7   9    0.55    0.27
   2   7  -9    1.13    0.29
  -2  -7   9    0.97    0.30
   1   7  -9    3.14    0.46
  -1  -7   9    2.66    0.45
  -1  -7   9    3.51    0.45
   0   7  -9    2.65    0.43
   0   7  -9    4.06    0.51
   0  -7   9    4.73    0.57
   0  -7   9    4.31    0.49
  -1   7  -9    0.19    0.23
  -1   7  -9   -0.09    0.19
   1  -7   9    0.21    0.26
   1  -7   9    0.06    0.21
  -2   7  -9    0.57    0.27
  -2   7  -9    0.58    0.30
   2  -7   9    1.21    0.33
   2  -7   9    0.58    0.32
   4   6  -9    0.12    0.23
   4   6  -9   -0.04    0.18
  -4  -6   9    0.07    0.21
  -4  -6   9    0.21    0.24
  -4  -6   9    0.24    0.24
   3   6  -9    0.54    0.24
  -3  -6   9    1.05    0.29
  -3  -6   9    0.48    0.24
   2   6  -9    2.48    0.37
  -2  -6   9    2.53    0.38
  -2  -6   9    2.36    0.38
   1   6  -9    1.39    0.28
   1   6  -9    0.89    0.26
  -1  -6   9    1.56    0.34
  -1  -6   9    1.34    0.28
   0   6  -9    0.16    0.18
   0   6  -9    0.14    0.19
   0  -6   9    0.24    0.22
   0  -6   9    0.19    0.18
  -1   6  -9    0.15    0.21
  -1   6  -9   -0.10    0.17
   1  -6   9   -0.06    0.16
   1  -6   9    0.30    0.22
  -2   6  -9    0.39    0.23
  -2   6  -9    0.14    0.21
   2  -6   9    0.27    0.24
   2  -6   9    0.63    0.30
  -3   6  -9    1.88    0.42
  -3   6  -9    1.20    0.35
   3  -6   9    1.12    0.42
   3  -6   9    1.66    0.36
   4   5  -9    0.09    0.20
   4   5  -9   -0.16    0.20
  -4  -5   9    0.41    0.21
  -4  -5   9    0.32    0.23
  -4  -5   9    0.27    0.25
   3   5  -9    0.41    0.22
   3   5  -9    0.25    0.19
  -3  -5   9    0.34    0.23
  -3  -5   9    0.43    0.21
  -3  -5   9    0.66    0.23
   2   5  -9    4.90    0.50
   2   5  -9    3.98    0.43
   2   5  -9    4.80    0.47
  -2  -5   9    5.70    0.45
  -2  -5   9    4.84    0.47
  -2  -5   9    4.60    0.46
  -2  -5   9    5.09    0.52
   1   5  -9    1.26    0.26
   1   5  -9    1.13    0.26
  -1  -5   9    1.23    0.29
  -1  -5   9    1.49    0.28
   0   5  -9   25.08    0.93
   0   5  -9   23.26    0.90
   0  -5   9   22.25    0.79
   0  -5   9   23.51    0.95
  -1   5  -9   -0.05    0.14
  -1   5  -9    0.13    0.19
   1  -5   9    0.15    0.19
   1  -5   9   -0.04    0.20
  -2   5  -9    0.27    0.20
  -2   5  -9    0.02    0.19
   2  -5   9    0.10    0.19
   2  -5   9    0.20    0.22
  -3   5  -9    0.34    0.23
  -3   5  -9    0.78    0.31
   3  -5   9    0.52    0.29
   3  -5   9    0.23    0.21
   4   4  -9    0.16    0.18
   4   4  -9   -0.03    0.16
  -4  -4   9   -0.07    0.18
  -4  -4   9    0.11    0.21
   3   4  -9    1.03    0.27
   3   4  -9    1.16    0.29
  -3  -4   9    1.09    0.28
  -3  -4   9    0.52    0.21
  -3  -4   9    0.80    0.26
   2   4  -9   13.61    0.66
   2   4  -9   14.58    0.63
   2   4  -9   13.61    0.63
   2   4  -9   13.33    0.61
  -2  -4   9   12.67    0.63
  -2  -4   9   12.12    0.59
  -2  -4   9   13.33    0.64
  -2  -4   9   13.82    0.63
  -2  -4   9   13.92    0.62
   1   4  -9    4.06    0.43
   1   4  -9    3.30    0.38
  -1  -4   9    3.79    0.38
  -1  -4   9    3.69    0.42
   0   4  -9   12.43    0.62
   0   4  -9   13.23    0.66
   0  -4   9   12.31    0.54
   0  -4   9   12.92    0.67
  -1   4  -9   53.49    1.38
  -1   4  -9   56.18    1.43
   1  -4   9   54.53    1.24
   1  -4   9   53.10    1.44
  -2   4  -9   33.72    1.16
  -2   4  -9   33.85    1.10
   2  -4   9   30.57    1.15
   2  -4   9   32.77    1.00
  -3   4  -9    2.35    0.38
  -3   4  -9    1.51    0.34
   3  -4   9    1.89    0.33
   3  -4   9    2.23    0.42
  -4   4  -9    0.84    0.34
   4  -4   9    0.67    0.35
   5   3  -9    1.85    0.44
   5   3  -9    2.36    0.48
  -5  -3   9    3.02    0.52
  -5  -3   9    1.94    0.44
   4   3  -9    5.57    0.61
   4   3  -9    6.20    0.69
  -4  -3   9    5.81    0.62
  -4  -3   9    5.83    0.63
   3   3  -9    0.12    0.16
   3   3  -9    0.01    0.18
   3   3  -9   -0.08    0.14
  -3  -3   9   -0.04    0.15
  -3  -3   9    0.06    0.17
  -3  -3   9   -0.23    0.12
   2   3  -9    0.16    0.17
   2   3  -9    0.42    0.19
   2   3  -9    0.23    0.15
   2   3  -9    0.54    0.19
  -2  -3   9    0.25    0.15
  -2  -3   9    0.16    0.15
  -2  -3   9   -0.02    0.12
  -2  -3   9    0.31    0.16
   1   3  -9    3.24    0.36
   1   3  -9    3.53    0.38
   1   3  -9    3.24    0.35
  -1  -3   9    3.30    0.32
  -1  -3   9    3.04    0.38
   0   3  -9    4.19    0.44
   0   3  -9    4.45    0.32
   0   3  -9    4.36    0.44
   0  -3   9    4.82    0.47
   0  -3   9    4.68    0.32
  -1   3  -9   -0.03    0.13
  -1   3  -9    0.20    0.15
   1  -3   9    0.10    0.16
   1  -3   9    0.01    0.13
  -2   3  -9    0.34    0.20
  -2   3  -9   -0.01    0.14
   2  -3   9    0.04    0.20
   2  -3   9    0.21    0.16
  -3   3  -9    2.51    0.42
  -3   3  -9    2.61    0.39
   3  -3   9    2.70    0.46
   3  -3   9    2.34    0.34
  -4   3  -9    0.49    0.27
   4  -3   9    0.59    0.30
   5   2  -9    0.12    0.24
   5   2  -9    0.68    0.32
  -5  -2   9   -0.02    0.19
  -5  -2   9    0.24    0.24
   4   2  -9    0.64    0.27
   4   2  -9    0.59    0.26
  -4  -2   9    0.54    0.24
  -4  -2   9    0.60    0.27
   3   2  -9    1.30    0.30
   3   2  -9    1.44    0.30
   3   2  -9    0.94    0.22
  -3  -2   9    1.45    0.28
  -3  -2   9    0.73    0.24
  -3  -2   9    0.78    0.24
   2   2  -9    2.33    0.34
   2   2  -9    3.04    0.37
   2   2  -9    2.53    0.35
  -2  -2   9    2.62    0.30
  -2  -2   9    2.17    0.31
  -2  -2   9    2.47    0.33
   1   2  -9   14.79    0.64
   1   2  -9   14.54    0.55
   1   2  -9   14.69    0.60
   1   2  -9   13.86    0.57
  -1  -2   9   14.02    0.54
  -1  -2   9   13.46    0.60
  -1  -2   9   13.88    0.54
  -1  -2   9   14.38    0.59
   0   2  -9  103.59    1.72
   0   2  -9  101.69    1.85
   0   2  -9  103.68    1.88
   0  -2   9  108.63    2.13
   0  -2   9  105.12    1.91
  -1   2  -9   43.65    1.14
  -1   2  -9   43.83    1.17
   1  -2   9   41.78    1.18
   1  -2   9   41.29    1.26
  -2   2  -9    0.04    0.15
  -2   2  -9   -0.25    0.13
   2  -2   9    0.07    0.18
  -3   2  -9    2.08    0.36
  -3   2  -9    1.60    0.30
   3  -2   9    1.80    0.37
  -4   2  -9    0.63    0.26
   4  -2   9    0.34    0.25
   5   1  -9   -0.14    0.23
   5   1  -9    0.52    0.27
  -5  -1   9    0.34    0.28
  -5  -1   9   -0.06    0.23
   4   1  -9    1.07    0.31
   4   1  -9    1.73    0.41
  -4  -1   9    1.25    0.32
  -4  -1   9    1.40    0.36
  -4  -1   9    1.24    0.28
   3   1  -9   10.31    0.65
   3   1  -9   10.52    0.62
  -3  -1   9    9.91    0.58
  -3  -1   9   10.15    0.63
  -3  -1   9   10.40    0.63
   2   1  -9    0.45    0.19
   2   1  -9    1.15    0.25
   2   1  -9    0.68    0.23
  -2  -1   9    1.06    0.25
  -2  -1   9    0.75    0.20
   1   1  -9    0.34    0.15
   1   1  -9    0.34    0.15
   1   1  -9    0.24    0.14
   1   1  -9    0.38    0.15
  -1  -1   9    0.16    0.13
  -1  -1   9    0.26    0.16
  -1  -1   9    0.20    0.14
   0   1  -9    4.89    0.37
   0   1  -9    4.31    0.40
   0   1  -9    4.38    0.33
   0  -1   9    4.83    0.38
  -1   1  -9    2.83    0.34
  -1   1  -9    3.18    0.33
  -1   1  -9    2.96    0.35
   1  -1   9    3.05    0.37
  -2   1  -9   23.79    0.83
  -2   1  -9   24.32    0.78
  -2   1  -9   21.87    0.82
   2  -1   9   22.48    0.88
  -3   1  -9   15.51    0.74
  -3   1  -9   15.68    0.71
   3  -1   9   15.69    0.79
  -4   1  -9    0.63    0.25
  -4   1  -9    0.48    0.24
   4  -1   9   -0.01    0.22
   5   0  -9    0.04    0.22
  -5   0   9    0.33    0.26
  -5   0   9    0.06    0.23
   4   0  -9    6.35    0.65
  -4   0   9    7.08    0.70
  -4   0   9    7.65    0.64
  -4   0   9    7.71    0.56
   3   0  -9    1.64    0.34
   3   0  -9    1.73    0.34
  -3   0   9    1.93    0.36
  -3   0   9    1.24    0.29
  -3   0   9    1.39    0.28
   2   0  -9   14.47    0.67
   2   0  -9   13.66    0.62
   2   0  -9   14.81    0.66
  -2   0   9   14.11    0.64
  -2   0   9   14.95    0.66
   1   0  -9    0.10    0.11
   1   0  -9    0.09    0.12
   1   0  -9   -0.09    0.09
  -1   0   9    0.20    0.12
  -1   0   9    0.05    0.13
  -1   0   9    0.08    0.11
   0   0  -9    5.19    0.37
   0   0  -9    5.13    0.36
   0   0  -9    5.77    0.39
   0   0   9    5.49    0.37
  -1   0  -9   12.27    0.57
  -1   0  -9   11.35    0.54
  -1   0  -9   10.95    0.51
   1   0   9   11.11    0.56
  -2   0  -9    1.86    0.30
  -2   0  -9    1.85    0.29
  -2   0  -9    1.98    0.29
   2   0   9    1.87    0.32
  -3   0  -9    2.65    0.37
  -3   0  -9    2.15    0.33
  -3   0  -9    2.26    0.34
   3   0   9    1.81    0.35
  -4   0  -9    4.83    0.51
  -4   0  -9    4.74    0.53
  -4   0  -9    4.09    0.48
   4   0   9    4.42    0.54
   5  -1  -9    4.24    0.59
  -5   1   9    5.56    0.68
   4  -1  -9    2.64    0.44
  -4   1   9    2.37    0.41
  -4   1   9    1.64    0.37
  -4   1   9    1.26    0.34
   3  -1  -9    4.12    0.50
  -3   1   9    3.60    0.44
  -3   1   9    3.04    0.43
  -3   1   9    3.71    0.46
   2  -1  -9    1.51    0.29
   2  -1  -9    1.76    0.30
  -2   1   9    1.54    0.29
  -2   1   9    1.73    0.29
   1  -1  -9   21.81    0.77
   1  -1  -9   20.20    0.73
  -1   1   9   20.70    0.62
  -1   1   9   20.98    0.69
  -1   1   9   21.39    0.75
   0  -1  -9    6.38    0.40
   0  -1  -9    6.74    0.41
   0   1   9    7.42    0.41
   0   1   9    6.71    0.43
   0   1   9    6.48    0.34
  -1  -1  -9   10.42    0.50
  -1  -1  -9    8.97    0.48
   1   1   9    8.05    0.47
  -2  -1  -9   47.55    1.18
  -2  -1  -9   48.97    1.17
   2   1   9   49.02    1.26
  -3  -1  -9    4.05    0.44
  -3  -1  -9    4.15    0.43
  -3  -1  -9    4.04    0.44
   3   1   9    3.54    0.45
  -4  -1  -9    0.63    0.27
  -4  -1  -9    0.22    0.19
  -4  -1  -9    0.30    0.17
   4   1   9    0.54    0.27
  -5  -1  -9    1.93    0.44
   5   1   9    0.99    0.34
   4  -2  -9    2.79    0.45
  -4   2   9    2.65    0.44
  -4   2   9    3.40    0.47
  -4   2   9    2.77    0.48
   3  -2  -9    2.41    0.39
  -3   2   9    2.67    0.39
  -3   2   9    2.56    0.41
   2  -2  -9   14.36    0.68
  -2   2   9   14.21    0.68
  -2   2   9   16.00    0.69
   1  -2  -9    1.01    0.23
   1  -2  -9    1.13    0.23
  -1   2   9    1.31    0.24
  -1   2   9    0.94    0.18
  -1   2   9    1.01    0.22
   0  -2  -9    0.62    0.18
   0  -2  -9    0.70    0.18
   0   2   9    0.93    0.20
   0   2   9    0.64    0.18
   0   2   9    0.51    0.18
  -1  -2  -9    5.29    0.39
  -1  -2  -9    5.37    0.36
   1   2   9    5.04    0.38
  -2  -2  -9   27.19    0.82
  -2  -2  -9   24.50    0.85
   2   2   9   26.71    0.91
  -3  -2  -9   14.67    0.64
  -3  -2  -9   14.91    0.70
   3   2   9   15.25    0.75
  -4  -2  -9    0.87    0.29
   4   2   9    0.82    0.27
  -5  -2  -9    0.41    0.30
   5   2   9    0.46    0.27
   4  -3  -9    0.16    0.21
  -4   3   9    0.26    0.23
  -4   3   9   -0.11    0.19
  -4   3   9    0.15    0.20
   3  -3  -9   21.42    0.90
  -3   3   9   21.04    0.89
  -3   3   9   19.88    0.93
   2  -3  -9   49.58    1.30
  -2   3   9   47.76    1.28
  -2   3   9   48.29    1.33
   1  -3  -9   12.97    0.62
   1  -3  -9   14.08    0.64
  -1   3   9   14.91    0.66
  -1   3   9   14.35    0.65
   0  -3  -9   22.61    0.76
   0  -3  -9   21.71    0.77
   0   3   9   23.25    0.72
   0   3   9   23.37    0.73
   0   3   9   23.69    0.78
  -1  -3  -9   23.98    0.81
  -1  -3  -9   22.64    0.74
   1   3   9   24.90    0.77
   1   3   9   24.47    0.81
   1   3   9   24.67    0.78
  -2  -3  -9    0.12    0.16
  -2  -3  -9   -0.04    0.09
   2   3   9   -0.02    0.13
  -3  -3  -9    1.23    0.23
  -3  -3  -9    0.60    0.25
   3   3   9    1.51    0.33
  -4  -3  -9   -0.09    0.20
   4   3   9    0.47    0.24
  -5  -3  -9    0.91    0.35
   5   3   9    1.42    0.35
   4  -4  -9    0.15    0.19
  -4   4   9   -0.12    0.21
  -4   4   9   -0.05    0.17
  -4   4   9    0.14    0.23
   3  -4  -9    2.27    0.38
  -3   4   9    2.43    0.41
  -3   4   9    2.95    0.49
   2  -4  -9    0.14    0.15
  -2   4   9    0.17    0.18
  -2   4   9    0.21    0.21
   1  -4  -9    3.58    0.40
  -1   4   9    3.87    0.45
  -1   4   9    3.36    0.38
   0  -4  -9    3.05    0.34
   0  -4  -9    2.42    0.33
   0   4   9    2.76    0.31
   0   4   9    2.43    0.34
   0   4   9    2.33    0.31
  -1  -4  -9    6.11    0.39
  -1  -4  -9    6.88    0.45
   1   4   9    6.22    0.44
   1   4   9    5.56    0.39
   1   4   9    6.64    0.39
  -2  -4  -9   13.39    0.64
  -2  -4  -9   13.07    0.54
   2   4   9   12.47    0.65
  -3  -4  -9   47.41    1.33
   3   4   9   46.77    1.35
  -4  -4  -9   -0.30    0.16
   4   4   9   -0.07    0.20
  -5  -4  -9    1.64    0.41
   5   4   9    1.66    0.41
   4  -5  -9    0.08    0.21
  -4   5   9    0.03    0.25
  -4   5   9    0.12    0.23
  -4   5   9   -0.32    0.21
   3  -5  -9    1.18    0.29
  -3   5   9    1.82    0.39
  -3   5   9    1.38    0.37
   2  -5  -9    0.44    0.20
  -2   5   9    0.05    0.18
  -2   5   9    0.77    0.28
   1  -5  -9    7.76    0.49
  -1   5   9    7.29    0.55
  -1   5   9    8.28    0.52
   0  -5  -9   11.76    0.59
   0   5   9   11.00    0.59
   0   5   9   11.79    0.58
   0   5   9   12.64    0.55
  -1  -5  -9   24.10    0.76
  -1  -5  -9   22.64    0.83
   1   5   9   23.66    0.83
   1   5   9   24.99    0.79
   1   5   9   24.73    0.78
  -2  -5  -9    5.33    0.53
  -2  -5  -9    5.05    0.35
   2   5   9    5.68    0.54
   2   5   9    5.06    0.37
  -3  -5  -9   19.81    0.86
   3   5   9   19.26    0.87
  -4  -5  -9    9.23    0.67
   4   5   9   10.29    0.72
  -5  -5  -9    1.30    0.40
   5   5   9    1.07    0.36
   3  -6  -9    0.06    0.16
  -3   6   9    0.31    0.21
  -3   6   9    0.39    0.26
  -3   6   9    0.19    0.27
   2  -6  -9    2.36    0.36
  -2   6   9    2.52    0.40
  -2   6   9    2.17    0.45
   1  -6  -9    5.07    0.50
  -1   6   9    4.71    0.53
  -1   6   9    5.37    0.53
   0  -6  -9    6.70    0.46
   0   6   9    6.24    0.45
   0   6   9    5.93    0.50
   0   6   9    5.82    0.42
  -1  -6  -9    8.67    0.53
   1   6   9    8.96    0.49
   1   6   9    9.13    0.55
   1   6   9    8.63    0.53
  -2  -6  -9    1.53    0.31
   2   6   9    1.51    0.31
   2   6   9    1.89    0.31
  -3  -6  -9    0.15    0.20
   3   6   9    0.60    0.26
  -4  -6  -9    0.83    0.30
   4   6   9    0.20    0.27
  -5  -6  -9   -0.08    0.29
   5   6   9    0.37    0.29
  -3   7   9    0.26    0.32
  -3   7   9    0.36    0.28
   2  -7  -9    0.75    0.22
  -2   7   9    1.12    0.31
  -2   7   9    0.66    0.34
   1  -7  -9    3.81    0.44
  -1   7   9    3.17    0.46
  -1   7   9    4.43    0.59
   0  -7  -9    2.48    0.35
   0   7   9    1.78    0.30
   0   7   9    1.92    0.30
   0   7   9    1.38    0.33
  -1  -7  -9    0.19    0.17
   1   7   9    0.59    0.21
   1   7   9    0.51    0.22
  -2  -7  -9   27.03    0.99
   2   7   9   26.67    0.96
   2   7   9   27.53    1.03
  -3  -7  -9   13.80    0.77
   3   7   9   15.88    0.83
  -4  -7  -9    6.41    0.69
   4   7   9    6.41    0.67
  -5  -7  -9   -0.20    0.23
   5   7   9    0.00    0.23
  -2   8   9    0.21    0.27
  -2   8   9    0.01    0.22
  -1   8   9   19.40    0.89
  -1   8   9   19.53    0.98
   0  -8  -9    4.54    0.49
   0   8   9    4.34    0.47
   0   8   9    4.26    0.53
  -1  -8  -9    4.67    0.50
   1   8   9    3.77    0.45
   1   8   9    3.92    0.51
  -2  -8  -9    5.77    0.58
   2   8   9    6.75    0.55
   2   8   9    6.58    0.64
  -3  -8  -9   -0.06    0.20
   3   8   9    0.20    0.19
   3   8   9   -0.06    0.20
  -4  -8  -9    0.28    0.25
   4   8   9    0.98    0.35
  -2   9   9   -0.04    0.26
  -2   9   9    0.02    0.26
  -1   9   9    0.15    0.23
  -1   9   9    0.31    0.29
   0   9   9    5.22    0.63
  -1  -9  -9    5.01    0.53
   1   9   9    5.58    0.64
   1   9   9    4.76    0.55
  -2  -9  -9    0.19    0.21
   2   9   9    0.03    0.19
   2   9   9    0.02    0.18
  -3  -9  -9    5.22    0.60
   3   9   9    4.03    0.55
   3   9   9    4.63    0.56
  -4  -9  -9   -0.03    0.23
   4   9   9   -0.25    0.20
  -1  10   9    2.02    0.48
  -1  10   9    0.74    0.31
   0  10   9    0.35    0.32
   1  10   9    0.38    0.29
   1  10   9    0.86    0.30
  -2 -10  -9    1.18    0.32
   2  10   9    1.94    0.44
   2  10   9    1.56    0.37
  -3 -10  -9    1.43    0.35
   3  10   9    1.08    0.37
   3  10   9    1.94    0.41
  -4 -10  -9    0.10    0.27
   0  11   9    3.89    0.65
   1  11   9    6.50    0.67
   1  11   9    5.35    0.70
   2  11   9    7.21    0.79
   2  11   9    5.36    0.66
   3  11   9    2.35    0.50
   3  11   9    1.95    0.45
   2   8 -10    2.41    0.42
  -2  -8  10    2.17    0.41
  -2  -8  10    2.26    0.47
   1   8 -10    0.00    0.17
  -1  -8  10    0.11    0.25
  -1  -8  10    0.06    0.26
   0   8 -10   -0.01    0.21
   0   8 -10   -0.12    0.18
   0  -8  10    0.53    0.30
   0  -8  10   -0.61    0.22
  -1   8 -10    0.07    0.24
  -1   8 -10    0.30    0.25
   1  -8  10    0.37    0.26
   1  -8  10    0.13    0.31
  -3  -7  10    0.03    0.21
   2   7 -10    0.23    0.21
  -2  -7  10    0.18    0.23
  -2  -7  10    0.21    0.27
   1   7 -10    3.26    0.48
  -1  -7  10    3.18    0.45
  -1  -7  10    3.44    0.54
   0   7 -10    5.87    0.61
   0   7 -10    7.85    0.61
   0  -7  10    7.43    0.56
   0  -7  10    8.42    0.79
  -1   7 -10    0.09    0.18
  -1   7 -10   -0.11    0.18
   1  -7  10    0.21    0.28
   1  -7  10   -0.08    0.20
  -2   7 -10   -0.12    0.24
  -2   7 -10   -0.01    0.17
   2  -7  10    0.70    0.35
   4   6 -10    1.51    0.39
  -4  -6  10    1.22    0.36
   3   6 -10    0.32    0.24
  -3  -6  10    0.45    0.26
   2   6 -10    1.78    0.33
  -2  -6  10    2.28    0.37
  -2  -6  10    1.48    0.36
   1   6 -10    0.23    0.19
   1   6 -10    0.23    0.20
  -1  -6  10    0.22    0.20
  -1  -6  10   -0.02    0.16
   0   6 -10    9.70    0.64
   0   6 -10   10.95    0.67
   0  -6  10   10.89    0.73
   0  -6  10    9.69    0.63
  -1   6 -10   31.22    1.17
  -1   6 -10   31.67    1.20
   1  -6  10   32.84    1.28
  -2   6 -10    6.93    0.71
  -2   6 -10    5.74    0.66
   2  -6  10    6.34    0.71
   4   5 -10    1.51    0.36
   4   5 -10    1.49    0.36
  -4  -5  10    1.15    0.32
  -4  -5  10    0.83    0.31
   3   5 -10    0.23    0.20
   3   5 -10    0.21    0.19
  -3  -5  10    0.64    0.25
  -3  -5  10    0.38    0.24
   2   5 -10    0.01    0.18
   2   5 -10    0.09    0.18
  -2  -5  10    0.40    0.20
  -2  -5  10    0.18    0.17
   1   5 -10    0.37    0.19
   1   5 -10    0.14    0.18
  -1  -5  10    0.14    0.21
   0   5 -10    1.08    0.29
   0   5 -10    1.11    0.28
   0  -5  10    1.13    0.31
  -1   5 -10    0.72    0.29
  -1   5 -10    0.24    0.19
   1  -5  10    0.55    0.30
  -2   5 -10    9.02    0.64
  -2   5 -10   10.32    0.70
   2  -5  10    9.24    0.71
  -3   5 -10   -0.07    0.20
  -3   5 -10   -0.20    0.21
   3  -5  10    0.22    0.27
   4   4 -10    1.51    0.36
   4   4 -10    1.14    0.34
  -4  -4  10    1.24    0.33
  -4  -4  10    1.37    0.36
   3   4 -10    4.09    0.50
   3   4 -10    4.61    0.54
  -3  -4  10    3.13    0.44
  -3  -4  10    3.53    0.46
   2   4 -10    7.46    0.50
   2   4 -10    8.28    0.53
   2   4 -10    7.51    0.48
  -2  -4  10    8.81    0.53
  -2  -4  10    7.28    0.52
  -2  -4  10    7.52    0.61
  -2  -4  10    8.35    0.54
   1   4 -10    0.23    0.19
   1   4 -10    0.25    0.18
  -1  -4  10    0.30    0.23
   0   4 -10   13.20    0.68
   0   4 -10   12.43    0.65
   0  -4  10   13.00    0.70
  -1   4 -10    0.53    0.24
  -1   4 -10    0.34    0.22
   1  -4  10    0.26    0.23
  -2   4 -10    0.41    0.23
  -2   4 -10    0.55    0.22
   2  -4  10    0.64    0.27
  -3   4 -10   -0.10    0.19
  -3   4 -10    0.02    0.21
   3  -4  10    0.23    0.29
   4   3 -10    3.42    0.52
   4   3 -10    3.38    0.51
  -4  -3  10    3.71    0.54
  -4  -3  10    4.07    0.55
   3   3 -10    3.24    0.44
   3   3 -10    3.91    0.49
   3   3 -10    3.33    0.42
  -3  -3  10    3.79    0.49
  -3  -3  10    3.38    0.42
  -3  -3  10    2.49    0.39
   2   3 -10    3.52    0.42
   2   3 -10    3.66    0.43
   2   3 -10    3.22    0.40
   2   3 -10    3.48    0.44
  -2  -3  10    3.06    0.38
  -2  -3  10    3.73    0.43
   1   3 -10   62.75    1.42
   1   3 -10   63.80    1.38
   1   3 -10   64.15    1.47
  -1  -3  10   63.50    1.46
   0   3 -10   25.78    0.92
   0   3 -10   25.24    0.89
   0  -3  10   24.51    0.92
  -1   3 -10    3.38    0.44
  -1   3 -10    3.09    0.41
   1  -3  10    3.31    0.44
  -2   3 -10    3.71    0.47
  -2   3 -10    4.10    0.50
   2  -3  10    4.23    0.52
  -3   3 -10    2.99    0.43
  -3   3 -10    3.92    0.53
   3  -3  10    2.69    0.45
  -4   3 -10    0.35    0.27
   4  -3  10   -0.14    0.19
   4   2 -10    1.88    0.42
   4   2 -10    2.08    0.42
  -4  -2  10    3.78    0.53
  -4  -2  10    1.79    0.40
   3   2 -10    1.43    0.29
   3   2 -10    1.65    0.34
   3   2 -10    2.36    0.39
  -3  -2  10    1.61    0.34
  -3  -2  10    2.15    0.36
  -3  -2  10    2.19    0.37
   2   2 -10    3.12    0.39
   2   2 -10    3.68    0.44
   2   2 -10    3.43    0.41
  -2  -2  10    4.19    0.45
  -2  -2  10    3.47    0.40
   1   2 -10   34.28    0.97
   1   2 -10   34.71    1.05
   1   2 -10   34.46    1.00
  -1  -2  10   34.79    1.00
  -1  -2  10   34.30    1.04
   0   2 -10    1.07    0.25
   0   2 -10    1.15    0.23
   0   2 -10    1.79    0.31
   0  -2  10    1.20    0.26
  -1   2 -10    2.96    0.39
  -1   2 -10    2.49    0.36
   1  -2  10    3.23    0.42
  -2   2 -10   11.68    0.64
  -2   2 -10   11.37    0.65
   2  -2  10   10.75    0.66
  -3   2 -10    1.25    0.30
  -3   2 -10    0.53    0.25
   3  -2  10    0.90    0.30
  -4   2 -10    0.17    0.20
  -4   2 -10    0.20    0.22
   4  -2  10    0.45    0.27
   4   1 -10    1.61    0.37
   4   1 -10    1.83    0.40
  -4  -1  10    1.30    0.35
  -4  -1  10    1.59    0.35
  -4  -1  10    1.11    0.34
   3   1 -10   -0.01    0.17
   3   1 -10   -0.03    0.14
  -3  -1  10    0.08    0.19
  -3  -1  10   -0.21    0.12
  -3  -1  10   -0.21    0.14
   2   1 -10    3.03    0.38
   2   1 -10    3.28    0.41
   2   1 -10    2.82    0.38
  -2  -1  10    4.43    0.45
  -2  -1  10    3.89    0.43
   1   1 -10    0.13    0.15
   1   1 -10   -0.02    0.11
   1   1 -10    0.11    0.14
  -1  -1  10   -0.19    0.10
  -1  -1  10    0.00    0.11
  -1  -1  10    0.09    0.14
   0   1 -10    0.35    0.17
   0   1 -10    0.75    0.21
   0   1 -10    0.77    0.21
   0  -1  10    0.89    0.23
  -1   1 -10    1.98    0.31
  -1   1 -10    1.91    0.29
  -1   1 -10    2.15    0.33
   1  -1  10    1.94    0.32
  -2   1 -10   23.14    0.87
  -2   1 -10   25.28    0.83
  -2   1 -10   23.72    0.90
   2  -1  10   23.97    0.95
  -3   1 -10   11.42    0.65
  -3   1 -10   11.09    0.67
   3  -1  10   10.32    0.67
  -4   1 -10    5.37    0.59
  -4   1 -10    5.50    0.56
   4  -1  10    6.31    0.67
   4   0 -10    1.85    0.40
  -4   0  10    1.48    0.37
  -4   0  10    1.24    0.35
  -4   0  10    1.04    0.31
   3   0 -10    0.91    0.27
  -3   0  10    0.52    0.23
  -3   0  10    0.59    0.24
  -3   0  10    0.47    0.21
   2   0 -10   48.67    1.30
   2   0 -10   47.34    1.25
  -2   0  10   46.76    1.24
  -2   0  10   47.36    1.24
   1   0 -10   19.51    0.76
   1   0 -10   20.42    0.69
   1   0 -10   20.10    0.77
  -1   0  10   19.86    0.77
  -1   0  10   20.53    0.68
  -1   0  10   20.53    0.69
   0   0 -10    2.92    0.35
   0   0 -10    2.27    0.32
   0   0 -10    3.11    0.37
   0   0  10    2.78    0.34
  -1   0 -10   15.03    0.66
  -1   0 -10   14.90    0.63
  -1   0 -10   14.92    0.65
   1   0  10   15.75    0.70
  -2   0 -10    4.27    0.46
  -2   0 -10    4.87    0.47
  -2   0 -10    4.66    0.47
   2   0  10    4.54    0.49
  -3   0 -10    0.06    0.18
  -3   0 -10   -0.08    0.16
  -3   0 -10   -0.16    0.12
   3   0  10    0.14    0.19
  -4   0 -10    2.18    0.38
  -4   0 -10    2.16    0.40
   4   0  10    2.45    0.43
   4  -1 -10    2.74    0.47
  -4   1  10    2.83    0.43
  -4   1  10    2.25    0.42
  -4   1  10    2.39    0.44
   3  -1 -10    1.29    0.31
  -3   1  10    1.03    0.27
  -3   1  10    1.17    0.32
   2  -1 -10    1.00    0.25
   2  -1 -10    1.62    0.32
  -2   1  10    1.26    0.28
  -2   1  10    1.72    0.32
   1  -1 -10    6.79    0.46
   1  -1 -10    6.15    0.45
  -1   1  10    6.81    0.39
  -1   1  10    6.45    0.45
  -1   1  10    6.68    0.42
   0  -1 -10   -0.08    0.10
   0  -1 -10    0.28    0.17
   0   1  10    0.02    0.14
   0   1  10    0.23    0.14
  -1  -1 -10    0.19    0.15
  -1  -1 -10    0.39    0.19
   1   1  10    0.26    0.18
  -2  -1 -10   -0.02    0.14
  -2  -1 -10    0.02    0.14
   2   1  10    0.13    0.16
  -3  -1 -10    4.20    0.48
  -3  -1 -10    5.24    0.54
  -3  -1 -10    4.80    0.48
   3   1  10    5.69    0.58
  -4  -1 -10    0.01    0.15
  -4  -1 -10   -0.05    0.20
  -4  -1 -10    0.08    0.18
   4   1  10   -0.22    0.20
  -5  -1 -10    1.21    0.38
   5   1  10    1.07    0.34
   4  -2 -10    2.13    0.43
  -4   2  10    2.58    0.46
  -4   2  10    2.24    0.43
  -4   2  10    2.33    0.43
   3  -2 -10   19.80    0.89
  -3   2  10   19.48    0.91
  -3   2  10   19.66    0.87
   2  -2 -10   34.97    1.11
  -2   2  10   34.86    1.11
  -2   2  10   33.47    1.08
   1  -2 -10   19.87    0.78
   1  -2 -10   20.44    0.79
  -1   2  10   21.08    0.80
  -1   2  10   20.27    0.74
   0  -2 -10    0.74    0.21
   0  -2 -10    1.24    0.24
   0   2  10    1.43    0.25
   0   2  10    1.63    0.24
   0   2  10    1.06    0.25
  -1  -2 -10    8.86    0.49
  -1  -2 -10    8.97    0.53
   1   2  10    7.40    0.48
  -2  -2 -10   25.63    0.84
  -2  -2 -10   26.53    0.93
   2   2  10   25.50    0.93
  -3  -2 -10   13.77    0.64
  -3  -2 -10   12.81    0.70
   3   2  10   12.94    0.74
  -4  -2 -10    0.15    0.20
  -4  -2 -10    0.14    0.24
   4   2  10   -0.09    0.18
  -5  -2 -10    1.73    0.44
   5   2  10    1.56    0.42
   4  -3 -10    0.05    0.20
  -4   3  10    0.04    0.18
  -4   3  10    0.34    0.25
  -4   3  10   -0.18    0.19
   3  -3 -10    3.95    0.51
  -3   3  10    3.43    0.49
  -3   3  10    3.07    0.46
   2  -3 -10    0.48    0.21
  -2   3  10    0.64    0.24
  -2   3  10    0.30    0.21
   1  -3 -10    3.52    0.42
   1  -3 -10    2.75    0.36
  -1   3  10    2.77    0.37
  -1   3  10    2.75    0.37
   0  -3 -10   10.12    0.54
   0  -3 -10    9.91    0.54
   0   3  10    8.87    0.53
   0   3  10   10.47    0.51
   0   3  10    9.80    0.50
  -1  -3 -10    8.88    0.50
  -1  -3 -10    8.48    0.52
   1   3  10    7.75    0.49
   1   3  10    8.04    0.47
  -2  -3 -10   21.21    0.84
  -2  -3 -10   21.12    0.75
   2   3  10   20.56    0.84
  -3  -3 -10    5.68    0.41
  -3  -3 -10    5.08    0.55
   3   3  10    4.70    0.52
  -4  -3 -10   20.49    0.97
   4   3  10   18.90    0.94
  -5  -3 -10    1.33    0.41
   5   3  10    0.90    0.35
   4  -4 -10    1.14    0.34
  -4   4  10    0.80    0.29
  -4   4  10    1.25    0.38
  -4   4  10    1.27    0.39
   3  -4 -10    4.00    0.51
  -3   4  10    3.97    0.51
  -3   4  10    3.65    0.52
   2  -4 -10    7.25    0.52
  -2   4  10    6.55    0.64
  -2   4  10    8.46    0.58
   1  -4 -10    0.36    0.18
  -1   4  10    0.22    0.19
  -1   4  10    0.29    0.22
   0  -4 -10    8.61    0.51
   0  -4 -10    8.26    0.52
   0   4  10    8.94    0.52
   0   4  10    7.34    0.47
   0   4  10    8.85    0.47
  -1  -4 -10    7.08    0.49
  -1  -4 -10    6.31    0.43
   1   4  10    6.14    0.46
   1   4  10    7.03    0.46
  -2  -4 -10    0.21    0.19
  -2  -4 -10    0.36    0.16
   2   4  10    0.23    0.18
   2   4  10    0.23    0.17
  -3  -4 -10    3.34    0.47
   3   4  10    3.92    0.49
  -4  -4 -10   10.59    0.71
   4   4  10   11.35    0.74
  -5  -4 -10    0.74    0.34
   5   4  10    0.63    0.31
   3  -5 -10    2.49    0.43
  -3   5  10    3.16    0.50
  -3   5  10    2.59    0.48
   2  -5 -10    0.81    0.27
  -2   5  10    0.63    0.26
  -2   5  10    0.55    0.27
   1  -5 -10   12.41    0.65
  -1   5  10   12.19    0.69
  -1   5  10   12.49    0.66
   0  -5 -10   26.15    0.92
   0  -5 -10   26.74    0.89
   0   5  10   25.60    0.91
   0   5  10   26.79    0.91
   0   5  10   26.16    0.84
  -1  -5 -10   20.85    0.75
  -1  -5 -10   21.30    0.85
   1   5  10   21.04    0.82
   1   5  10   21.37    0.77
   1   5  10   21.49    0.75
  -2  -5 -10   -0.12    0.11
  -2  -5 -10   -0.20    0.14
   2   5  10    0.13    0.18
  -3  -5 -10    0.21    0.24
   3   5  10    0.59    0.24
  -4  -5 -10    3.20    0.51
   4   5  10    4.55    0.59
  -5  -5 -10   -0.07    0.25
   5   5  10    0.22    0.26
   3  -6 -10    0.26    0.22
  -3   6  10    0.20    0.27
  -3   6  10    0.04    0.23
   2  -6 -10   10.47    0.64
  -2   6  10   10.24    0.70
  -2   6  10   10.02    0.74
   1  -6 -10   54.49    1.40
  -1   6  10   48.33    1.37
  -1   6  10   52.38    1.50
   0  -6 -10    9.09    0.55
   0   6  10    7.92    0.57
   0   6  10    8.30    0.50
   0   6  10    8.19    0.54
  -1  -6 -10   12.00    0.66
  -1  -6 -10   13.73    0.62
   1   6  10   13.47    0.66
   1   6  10   13.47    0.67
   1   6  10   13.98    0.64
  -2  -6 -10   37.10    1.19
   2   6  10   39.51    1.24
  -3  -6 -10    5.39    0.60
   3   6  10    5.81    0.62
  -4  -6 -10    0.05    0.22
   4   6  10    0.29    0.26
  -5  -6 -10   -0.23    0.27
   5   6  10    0.15    0.26
  -3   7  10    0.08    0.29
  -3   7  10   -0.09    0.26
   2  -7 -10    1.25    0.29
  -2   7  10    1.65    0.41
  -2   7  10    1.07    0.34
   1  -7 -10   -0.13    0.12
  -1   7  10    0.34    0.25
  -1   7  10    0.11    0.19
   0  -7 -10   -0.11    0.12
   0   7  10    0.30    0.22
   0   7  10    0.13    0.17
  -1  -7 -10    1.77    0.35
   1   7  10    1.76    0.36
   1   7  10    1.38    0.32
   1   7  10    1.55    0.31
  -2  -7 -10   -0.11    0.14
   2   7  10   -0.02    0.16
   2   7  10   -0.29    0.13
  -3  -7 -10    1.51    0.34
   3   7  10    2.22    0.42
  -4  -7 -10   -0.38    0.19
   4   7  10    0.18    0.25
  -2   8  10    2.36    0.45
  -2   8  10    1.50    0.44
   1  -8 -10    0.11    0.18
  -1   8  10   -0.01    0.18
  -1   8  10    0.12    0.24
   0  -8 -10   13.96    0.73
   0   8  10   15.08    0.84
   0   8  10   15.51    0.75
  -1  -8 -10    2.54    0.41
   1   8  10    2.45    0.44
   1   8  10    2.26    0.38
  -2  -8 -10    4.17    0.51
   2   8  10    4.65    0.53
   2   8  10    3.79    0.50
  -3  -8 -10    0.58    0.26
   3   8  10    0.99    0.32
  -4  -8 -10    0.43    0.27
   4   8  10   -0.14    0.21
  -2   9  10   17.25    0.97
  -2   9  10   16.98    1.05
  -1   9  10    2.00    0.41
  -1   9  10    1.65    0.42
   0   9  10    9.64    0.71
  -1  -9 -10    0.80    0.25
   1   9  10    1.04    0.28
   1   9  10    0.77    0.29
  -2  -9 -10    3.63    0.50
   2   9  10    3.01    0.47
   2   9  10    4.09    0.53
  -3  -9 -10    1.12    0.33
   3   9  10    0.95    0.34
  -4  -9 -10    1.35    0.40
   4   9  10    1.14    0.42
  -1  10  10    0.44    0.30
  -1  10  10    1.04    0.38
   0  10  10    2.93    0.55
   1  10  10   10.18    0.78
   1  10  10   10.43    0.72
  -2 -10 -10    0.50    0.26
   2  10  10    0.20    0.23
   2  10  10    0.15    0.22
  -3 -10 -10    0.21    0.25
   3  10  10    0.10    0.27
   3  10  10    0.17    0.25
   1  11  10    5.45    0.70
   2  11  10    0.03    0.25
   2  11  10    0.03    0.25
   1   8 -11    0.47    0.26
  -1  -8  11    0.28    0.33
   0   8 -11    0.28    0.27
   0   8 -11   -0.17    0.18
   0  -8  11   -0.09    0.32
   2   7 -11    0.81    0.27
  -2  -7  11    1.51    0.37
   1   7 -11    0.56    0.25
  -1  -7  11    0.48    0.28
   0   7 -11    2.03    0.40
   0   7 -11    2.49    0.44
   0  -7  11    2.40    0.47
  -1   7 -11    0.77    0.34
  -1   7 -11   -0.04    0.22
   1  -7  11    0.13    0.29
   2   6 -11    1.24    0.30
  -2  -6  11    0.88    0.30
   1   6 -11    1.91    0.37
   1   6 -11    2.17    0.38
  -1  -6  11    2.53    0.45
   0   6 -11    3.41    0.48
   0   6 -11    3.48    0.49
   0  -6  11    3.23    0.50
  -1   6 -11    1.72    0.40
  -1   6 -11    2.21    0.43
   1  -6  11    0.75    0.31
  -2   6 -11    0.29    0.25
  -2   6 -11    0.33    0.28
   2  -6  11    0.20    0.28
  -3  -5  11    0.27    0.34
   2   5 -11    1.13    0.31
  -2  -5  11    1.80    0.34
  -2  -5  11    1.46    0.38
   1   5 -11   17.52    0.84
   1   5 -11   17.46    0.82
  -1  -5  11   19.61    0.93
   0   5 -11    0.11    0.17
   0   5 -11    0.17    0.19
   0  -5  11    0.07    0.19
  -1   5 -11    0.39    0.24
  -1   5 -11    0.02    0.18
   1  -5  11    0.30    0.26
  -2   5 -11    1.18    0.33
  -2   5 -11    0.62    0.30
   2  -5  11    0.50    0.30
   4   4 -11    0.12    0.22
   4   4 -11    0.37    0.27
  -4  -4  11    0.28    0.25
  -4  -4  11    0.03    0.23
   3   4 -11    0.74    0.27
   3   4 -11    0.34    0.21
  -3  -4  11    0.86    0.29
  -3  -4  11    0.38    0.21
   2   4 -11    4.08    0.65
   2   4 -11    2.91    0.41
   2   4 -11    4.89    0.52
  -2  -4  11    4.35    0.48
  -2  -4  11    4.07    0.48
   1   4 -11    0.11    0.19
   1   4 -11    0.43    0.21
  -1  -4  11    0.21    0.23
   0   4 -11   -0.10    0.17
   0   4 -11    0.10    0.15
   0  -4  11    0.10    0.21
  -1   4 -11    0.03    0.16
  -1   4 -11   -0.08    0.14
   1  -4  11   -0.01    0.20
  -2   4 -11    0.21    0.21
  -2   4 -11    0.26    0.22
   2  -4  11    0.04    0.24
  -3   4 -11    2.95    0.50
  -3   4 -11    3.07    0.48
   3  -4  11    3.25    0.57
   4   3 -11    0.03    0.22
   4   3 -11   -0.16    0.20
  -4  -3  11    0.25    0.20
  -4  -3  11   -0.11    0.24
   3   3 -11    1.26    0.32
   3   3 -11    0.96    0.31
  -3  -3  11    1.19    0.31
  -3  -3  11    0.98    0.29
  -3  -3  11    0.99    0.31
   2   3 -11    8.34    0.56
   2   3 -11    7.78    0.53
  -2  -3  11    8.11    0.58
   1   3 -11    0.12    0.17
   1   3 -11    0.11    0.14
   1   3 -11    0.05    0.15
  -1  -3  11   -0.04    0.18
  -1  -3  11    0.30    0.21
   0   3 -11   10.67    0.62
   0   3 -11   10.56    0.61
   0  -3  11   10.27    0.63
  -1   3 -11    1.84    0.34
  -1   3 -11    0.90    0.26
   1  -3  11    1.57    0.35
  -2   3 -11    0.85    0.29
  -2   3 -11    1.34    0.33
   2  -3  11    1.19    0.33
  -3   3 -11    0.70    0.28
  -3   3 -11    1.03    0.32
   3  -3  11    0.30    0.24
   4   2 -11   -0.05    0.21
   4   2 -11    0.00    0.24
  -4  -2  11   -0.07    0.22
  -4  -2  11    0.25    0.24
   3   2 -11    3.47    0.45
   3   2 -11    3.57    0.49
   3   2 -11    2.84    0.44
  -3  -2  11    3.44    0.49
  -3  -2  11    2.98    0.44
  -3  -2  11    3.23    0.43
   2   2 -11    5.65    0.56
   2   2 -11    7.45    0.53
  -2  -2  11    5.74    0.46
  -2  -2  11    4.82    0.51
   1   2 -11    7.47    0.49
   1   2 -11    7.05    0.49
   1   2 -11    7.34    0.53
  -1  -2  11    7.71    0.49
  -1  -2  11    6.23    0.50
   0   2 -11   -0.09    0.12
   0   2 -11   -0.02    0.14
   0   2 -11    0.09    0.15
   0  -2  11   -0.08    0.14
  -1   2 -11   -0.20    0.12
  -1   2 -11   -0.04    0.15
   1  -2  11    0.34    0.19
  -2   2 -11    1.10    0.29
  -2   2 -11    0.57    0.26
   2  -2  11    0.80    0.29
  -3   2 -11    0.02    0.19
  -3   2 -11    0.13    0.20
   3  -2  11   -0.41    0.23
  -4   2 -11    1.04    0.33
  -4   2 -11    0.03    0.20
   4  -2  11    0.68    0.36
   4   1 -11    1.80    0.40
   4   1 -11    1.28    0.36
  -4  -1  11    1.36    0.37
  -4  -1  11    1.46    0.37
  -4  -1  11    1.17    0.34
   3   1 -11    5.54    0.60
   3   1 -11    7.52    0.59
  -3  -1  11    6.99    0.56
  -3  -1  11    6.77    0.66
  -3  -1  11    6.84    0.55
   2   1 -11   15.57    0.72
   2   1 -11   16.70    0.76
   2   1 -11   15.73    0.76
  -2  -1  11   16.17    0.75
  -2  -1  11   15.97    0.73
   1   1 -11    0.39    0.20
   1   1 -11    0.54    0.21
   1   1 -11    0.27    0.18
  -1  -1  11    0.36    0.17
  -1  -1  11    0.26    0.19
   0   1 -11   10.87    0.55
   0   1 -11   10.01    0.56
   0   1 -11    9.81    0.58
   0  -1  11   11.24    0.60
  -1   1 -11    0.56    0.19
  -1   1 -11    0.14    0.17
  -1   1 -11    0.01    0.14
   1  -1  11    0.09    0.17
  -2   1 -11    0.05    0.16
  -2   1 -11    0.07    0.18
  -2   1 -11    0.09    0.14
   2  -1  11   -0.07    0.17
  -3   1 -11    0.36    0.22
  -3   1 -11    0.66    0.24
   3  -1  11    0.89    0.30
  -4   1 -11    0.65    0.28
  -4   1 -11    0.60    0.29
   4  -1  11    0.42    0.26
   4   0 -11    2.72    0.50
  -4   0  11    1.62    0.38
  -4   0  11    2.05    0.41
  -4   0  11    1.69    0.38
   3   0 -11    1.87    0.37
  -3   0  11    1.45    0.33
  -3   0  11    2.13    0.38
  -3   0  11    2.02    0.37
   2   0 -11   23.83    0.92
   2   0 -11   22.32    0.91
  -2   0  11   23.46    0.88
  -2   0  11   24.91    0.93
   1   0 -11    9.29    0.57
   1   0 -11   10.45    0.59
   1   0 -11   10.80    0.54
  -1   0  11   10.28    0.52
  -1   0  11    8.70    0.55
   0   0 -11   13.94    0.64
   0   0 -11   12.81    0.61
   0   0 -11   12.99    0.65
   0   0  11   13.61    0.64
   0   0  11   14.59    0.68
  -1   0 -11   16.20    0.72
  -1   0 -11   16.89    0.73
  -1   0 -11   17.39    0.71
   1   0  11   16.64    0.77
  -2   0 -11    3.94    0.46
  -2   0 -11    3.84    0.43
  -2   0 -11    3.81    0.45
   2   0  11    4.75    0.52
  -3   0 -11    0.95    0.28
  -3   0 -11    0.91    0.29
  -3   0 -11    0.79    0.25
   3   0  11    1.57    0.34
  -4   0 -11    0.15    0.19
  -4   0 -11    0.23    0.21
   4   0  11    0.27    0.25
   4  -1 -11    4.78    0.62
  -4   1  11    5.12    0.59
  -4   1  11    4.75    0.61
  -4   1  11    4.83    0.62
   3  -1 -11    7.49    0.58
  -3   1  11    7.58    0.59
  -3   1  11    7.95    0.61
   2  -1 -11    1.90    0.35
   2  -1 -11    2.08    0.35
  -2   1  11    1.35    0.30
  -2   1  11    1.10    0.26
   1  -1 -11    1.53    0.28
   1  -1 -11    2.61    0.38
   1  -1 -11    2.18    0.34
  -1   1  11    1.72    0.30
  -1   1  11    1.75    0.28
   0  -1 -11    8.90    0.54
   0  -1 -11    8.92    0.54
   0   1  11    8.33    0.52
   0   1  11    9.20    0.52
  -1  -1 -11   25.51    0.90
  -1  -1 -11   26.93    0.91
   1   1  11   24.86    0.90
  -2  -1 -11   13.81    0.68
  -2  -1 -11   12.88    0.66
   2   1  11   13.88    0.72
  -3  -1 -11    0.26    0.23
  -3  -1 -11    0.47    0.22
  -3  -1 -11    0.12    0.17
   3   1  11    0.16    0.24
  -4  -1 -11    3.59    0.52
  -4  -1 -11    4.32    0.56
  -4  -1 -11    4.00    0.50
   4   1  11    4.60    0.59
   4  -2 -11    0.54    0.26
  -4   2  11    0.69    0.29
  -4   2  11    1.10    0.36
  -4   2  11    0.68    0.29
   3  -2 -11   -0.13    0.14
  -3   2  11    0.39    0.23
  -3   2  11    0.08    0.23
   2  -2 -11    2.46    0.40
  -2   2  11    3.20    0.44
  -2   2  11    2.84    0.42
   1  -2 -11    0.97    0.26
   1  -2 -11    1.15    0.27
  -1   2  11    1.96    0.31
  -1   2  11    1.60    0.31
   0  -2 -11    2.92    0.39
   0  -2 -11    2.78    0.36
   0   2  11    2.34    0.36
   0   2  11    2.58    0.34
  -1  -2 -11   20.89    0.82
  -1  -2 -11   19.68    0.78
   1   2  11   20.80    0.81
   1   2  11   21.01    0.82
  -2  -2 -11    1.69    0.32
  -2  -2 -11    1.94    0.31
   2   2  11    2.27    0.37
  -3  -2 -11    8.04    0.57
  -3  -2 -11    7.17    0.51
   3   2  11    6.26    0.63
  -4  -2 -11    0.01    0.19
  -4  -2 -11    0.10    0.26
   4   2  11    0.09    0.24
   4  -3 -11   -0.16    0.17
  -4   3  11    0.05    0.21
  -4   3  11    0.09    0.22
  -4   3  11    0.04    0.26
   3  -3 -11    8.08    0.62
  -3   3  11    9.36    0.70
  -3   3  11    7.92    0.64
   2  -3 -11    4.35    0.51
  -2   3  11    4.38    0.51
  -2   3  11    5.10    0.57
   1  -3 -11    4.83    0.51
   1  -3 -11    5.07    0.51
  -1   3  11    5.32    0.54
  -1   3  11    5.62    0.45
   0  -3 -11   61.22    1.45
   0  -3 -11   59.56    1.46
   0   3  11   63.91    1.48
   0   3  11   64.37    1.39
  -1  -3 -11   25.02    0.86
  -1  -3 -11   25.16    0.92
   1   3  11   26.99    0.90
   1   3  11   24.53    0.89
  -2  -3 -11    7.05    0.52
  -2  -3 -11    7.05    0.47
   2   3  11    7.24    0.54
  -3  -3 -11   -0.01    0.18
  -3  -3 -11    0.22    0.16
   3   3  11   -0.03    0.19
  -4  -3 -11    0.77    0.30
   4   3  11    1.25    0.36
   3  -4 -11    2.24    0.41
  -3   4  11    2.41    0.42
  -3   4  11    3.06    0.52
   2  -4 -11    0.21    0.19
  -2   4  11    0.02    0.19
  -2   4  11    0.06    0.17
   1  -4 -11    3.58    0.44
  -1   4  11    4.17    0.48
  -1   4  11    5.41    0.56
   0  -4 -11   23.18    0.89
   0  -4 -11   23.92    0.87
   0   4  11   24.11    0.88
   0   4  11   25.41    0.85
   0   4  11   22.98    0.81
  -1  -4 -11    4.60    0.46
  -1  -4 -11    3.74    0.46
   1   4  11    3.11    0.38
   1   4  11    3.95    0.44
  -2  -4 -11   -0.10    0.12
  -2  -4 -11   -0.08    0.15
   2   4  11    0.05    0.13
   2   4  11   -0.10    0.17
  -3  -4 -11    3.32    0.47
   3   4  11    4.19    0.54
  -4  -4 -11    1.39    0.37
   4   4  11    1.06    0.36
   3  -5 -11    3.12    0.48
  -3   5  11    2.89    0.48
  -3   5  11    2.78    0.51
   2  -5 -11    5.10    0.56
  -2   5  11    7.36    0.73
  -2   5  11    5.09    0.57
   1  -5 -11    0.93    0.27
  -1   5  11    0.61    0.26
  -1   5  11    1.20    0.33
   0  -5 -11   17.44    0.79
   0  -5 -11   16.85    0.76
   0   5  11   17.24    0.76
   0   5  11   17.09    0.70
   0   5  11   16.25    0.74
  -1  -5 -11   19.87    0.78
  -1  -5 -11   19.37    0.84
   1   5  11   20.31    0.78
   1   5  11   20.78    0.84
  -2  -5 -11    0.65    0.24
  -2  -5 -11    0.52    0.20
   2   5  11    0.79    0.24
   2   5  11    0.60    0.24
  -3  -5 -11    6.42    0.66
   3   5  11    6.27    0.64
  -4  -5 -11    0.09    0.22
   4   5  11   -0.19    0.19
   3  -6 -11    0.27    0.22
  -3   6  11   -0.11    0.24
  -3   6  11    0.24    0.31
   2  -6 -11    1.81    0.37
  -2   6  11    1.90    0.46
  -2   6  11    2.35    0.42
   1  -6 -11    0.26    0.20
  -1   6  11    0.69    0.29
  -1   6  11    0.37    0.22
   0  -6 -11   16.62    0.78
   0   6  11   15.85    0.76
   0   6  11   16.39    0.78
  -1  -6 -11    4.34    0.45
  -1  -6 -11    5.46    0.57
   1   6  11    4.94    0.50
   1   6  11    4.01    0.46
   1   6  11    4.76    0.47
  -2  -6 -11    0.06    0.18
   2   6  11    0.37    0.23
  -3  -6 -11    0.86    0.30
   3   6  11    1.08    0.33
  -4  -6 -11    0.26    0.30
   4   6  11    0.52    0.29
   2  -7 -11    8.81    0.62
  -2   7  11    8.42    0.79
  -2   7  11    8.98    0.74
   1  -7 -11    1.52    0.34
  -1   7  11    0.58    0.28
  -1   7  11    1.30    0.34
   0  -7 -11    0.10    0.19
   0   7  11    0.45    0.24
   0   7  11    0.37    0.21
  -1  -7 -11    1.25    0.31
   1   7  11    1.34    0.30
   1   7  11    1.56    0.34
  -2  -7 -11    3.11    0.47
   2   7  11    1.83    0.37
  -3  -7 -11    0.91    0.31
   3   7  11    1.00    0.33
  -4  -7 -11   -0.19    0.20
   4   7  11    0.00    0.22
  -2   8  11    0.33    0.30
  -2   8  11    0.87    0.41
   1  -8 -11    2.29    0.40
  -1   8  11    1.39    0.34
  -1   8  11    2.25    0.47
   0  -8 -11    0.05    0.16
   0   8  11   -0.19    0.21
   0   8  11   -0.17    0.15
  -1  -8 -11    2.35    0.41
   1   8  11    1.99    0.37
   1   8  11    3.25    0.49
  -2  -8 -11    2.06    0.39
   2   8  11    2.05    0.40
  -3  -8 -11    0.18    0.23
   3   8  11   -0.02    0.22
  -4  -8 -11    0.14    0.27
   4   8  11   -0.26    0.22
  -1   9  11   -0.15    0.19
  -1   9  11   -0.03    0.27
   0  -9 -11   -0.02    0.17
   0   9  11    0.03    0.22
  -1  -9 -11    1.90    0.38
   1   9  11    1.56    0.35
   1   9  11    0.93    0.34
  -2  -9 -11    2.71    0.45
   2   9  11    3.02    0.50
   2   9  11    2.78    0.46
  -3  -9 -11    0.11    0.21
   3   9  11    0.65    0.30
   0  10  11    0.33    0.33
   1  10  11    0.00    0.22
  -2 -10 -11    5.82    0.62
   2  10  11    5.33    0.65
   2  10  11    7.01    0.74
  -3 -10 -11    3.17    0.54
   3  10  11    3.51    0.57
   1   7 -12    1.14    0.32
  -1  -7  12    1.18    0.41
   0   7 -12    6.08    0.67
   0   7 -12    6.04    0.70
   0  -7  12    5.41    0.67
   2   6 -12    0.43    0.25
   1   6 -12    1.41    0.36
   1   6 -12    2.13    0.42
  -1  -6  12    1.40    0.40
   0   6 -12    0.26    0.23
   0   6 -12   -0.12    0.21
   0  -6  12    0.56    0.31
  -1   6 -12    1.09    0.36
  -1   6 -12    1.16    0.34
   1  -6  12    1.91    0.45
  -2  -5  12    2.93    0.62
   1   5 -12    2.97    0.44
   1   5 -12    3.51    0.49
  -1  -5  12    3.83    0.52
   0   5 -12    3.61    0.49
   0   5 -12    3.66    0.52
   0  -5  12    3.67    0.54
  -1   5 -12    0.20    0.20
  -1   5 -12    0.52    0.28
   1  -5  12    0.06    0.23
  -2   5 -12    0.95    0.34
  -2   5 -12    1.04    0.32
   2  -5  12    1.25    0.39
   3   4 -12    0.26    0.22
  -3  -4  12    0.04    0.20
   2   4 -12   -0.10    0.15
  -2  -4  12   -0.24    0.19
   1   4 -12   10.99    0.67
   1   4 -12   10.27    0.65
  -1  -4  12   11.48    0.70
   0   4 -12    4.22    0.52
   0   4 -12    3.86    0.51
   0  -4  12    4.02    0.51
  -1   4 -12   11.05    0.72
  -1   4 -12   12.53    0.76
   1  -4  12   12.70    0.80
  -2   4 -12    3.65    0.52
  -2   4 -12    2.63    0.48
   2  -4  12    2.82    0.52
  -3   4 -12    1.41    0.44
  -3   4 -12    1.78    0.42
   3  -4  12    0.94    0.37
   3   3 -12    2.36    0.42
  -3  -3  12    1.99    0.41
  -3  -3  12    1.68    0.42
  -3  -3  12    2.34    0.43
   2   3 -12   -0.04    0.15
   2   3 -12    0.26    0.20
  -2  -3  12   -0.02    0.19
   1   3 -12    1.76    0.35
   1   3 -12    1.68    0.32
   1   3 -12    1.86    0.33
  -1  -3  12    1.37    0.30
  -1  -3  12    1.71    0.35
   0   3 -12    0.22    0.19
   0   3 -12    0.12    0.19
   0  -3  12   -0.05    0.19
  -1   3 -12    1.55    0.36
  -1   3 -12    1.22    0.31
   1  -3  12    1.03    0.32
  -2   3 -12    3.27    0.50
  -2   3 -12    3.11    0.48
   2  -3  12    3.82    0.55
  -3   3 -12    2.41    0.46
  -3   3 -12    2.02    0.43
   3  -3  12    2.10    0.47
   4   2 -12    0.43    0.27
   4   2 -12    0.93    0.32
  -4  -2  12    0.56    0.29
  -4  -2  12    0.71    0.33
   3   2 -12    3.68    0.52
   3   2 -12    2.85    0.46
   3   2 -12    3.36    0.47
  -3  -2  12    3.54    0.49
  -3  -2  12    4.01    0.51
  -3  -2  12    4.40    0.59
   2   2 -12    0.21    0.18
   2   2 -12   -0.02    0.18
  -2  -2  12    0.13    0.22
   1   2 -12    2.14    0.37
   1   2 -12    1.78    0.33
   1   2 -12    1.50    0.29
  -1  -2  12    2.43    0.39
  -1  -2  12    1.53    0.29
   0   2 -12   11.80    0.61
   0   2 -12   11.79    0.65
   0   2 -12   10.63    0.65
   0  -2  12   11.43    0.68
  -1   2 -12   15.74    0.79
  -1   2 -12   15.92    0.80
   1  -2  12   16.14    0.85
  -2   2 -12    2.45    0.44
  -2   2 -12    1.90    0.38
   2  -2  12    1.93    0.40
  -3   2 -12   -0.13    0.21
  -3   2 -12    0.11    0.21
   3  -2  12    0.25    0.26
   4   1 -12    5.94    0.70
  -4  -1  12    5.58    0.67
  -4  -1  12    4.08    0.58
   3   1 -12    1.37    0.33
   3   1 -12    1.21    0.33
  -3  -1  12    0.86    0.30
  -3  -1  12    0.81    0.29
  -3  -1  12    0.96    0.30
   2   1 -12    7.34    0.67
   2   1 -12    5.89    0.58
  -2  -1  12    6.11    0.60
   1   1 -12    8.21    0.55
   1   1 -12    8.33    0.58
   1   1 -12    8.92    0.54
  -1  -1  12    7.63    0.51
  -1  -1  12    8.30    0.57
   0   1 -12   10.92    0.61
   0   1 -12   11.41    0.66
   0   1 -12   11.23    0.60
   0  -1  12   11.38    0.63
  -1   1 -12    4.38    0.45
  -1   1 -12    3.81    0.47
  -1   1 -12    3.83    0.46
   1  -1  12    4.55    0.52
  -2   1 -12   -0.24    0.14
  -2   1 -12    0.18    0.19
   2  -1  12   -0.13    0.20
  -3   1 -12    0.34    0.25
  -3   1 -12    0.33    0.24
   3  -1  12    0.55    0.28
  -4   1 -12   -0.30    0.21
  -4   1 -12    0.21    0.26
   4  -1  12   -0.33    0.24
   4   0 -12    0.19    0.25
  -4   0  12    1.03    0.35
  -4   0  12    0.86    0.33
  -4   0  12    0.72    0.34
   3   0 -12    7.05    0.70
  -3   0  12    7.32    0.58
  -3   0  12    7.97    0.60
   2   0 -12    9.37    0.62
   2   0 -12    8.28    0.59
  -2   0  12    8.63    0.59
  -2   0  12    7.73    0.54
   1   0 -12    1.45    0.31
   1   0 -12    1.32    0.29
   1   0 -12    1.15    0.26
  -1   0  12    1.27    0.32
   0   0 -12    0.00    0.15
   0   0 -12    0.20    0.18
   0   0 -12    0.29    0.21
   0   0  12   -0.09    0.18
   0   0  12   -0.10    0.17
  -1   0 -12   27.37    0.99
  -1   0 -12   25.40    0.95
  -1   0 -12   26.35    0.93
   1   0  12   27.03    1.02
  -2   0 -12    0.69    0.27
  -2   0 -12    0.50    0.21
  -2   0 -12    0.67    0.24
   2   0  12    0.85    0.29
  -3   0 -12    3.18    0.46
  -3   0 -12    2.67    0.43
  -3   0 -12    3.23    0.46
   3   0  12    3.02    0.49
  -4   0 -12    2.45    0.42
  -4   0 -12    2.44    0.44
   4   0  12    2.71    0.50
   4  -1 -12    0.57    0.28
  -4   1  12    1.04    0.34
  -4   1  12    0.48    0.31
  -4   1  12    0.39    0.27
   3  -1 -12    4.21    0.54
  -3   1  12    4.94    0.57
  -3   1  12    5.07    0.58
   2  -1 -12    9.68    0.64
   2  -1 -12    8.64    0.60
  -2   1  12    8.53    0.60
  -2   1  12    9.60    0.61
   1  -1 -12   53.89    1.29
   1  -1 -12   56.30    1.47
   1  -1 -12   52.57    1.44
  -1   1  12   52.40    1.42
   0  -1 -12    7.38    0.49
   0  -1 -12    6.66    0.49
   0  -1 -12    7.23    0.51
   0   1  12    6.20    0.46
   0   1  12    7.28    0.52
  -1  -1 -12    2.48    0.37
  -1  -1 -12    2.56    0.38
  -1  -1 -12    2.45    0.37
   1   1  12    3.65    0.46
  -2  -1 -12    9.49    0.61
  -2  -1 -12    8.66    0.58
  -2  -1 -12    8.31    0.58
   2   1  12    9.18    0.63
  -3  -1 -12    1.68    0.35
  -3  -1 -12    2.89    0.43
  -3  -1 -12    2.72    0.43
   3   1  12    2.85    0.50
  -4  -1 -12    0.15    0.21
  -4  -1 -12    0.67    0.28
   4   1  12    0.11    0.29
   3  -2 -12    0.17    0.19
  -3   2  12    0.26    0.24
  -3   2  12    0.38    0.24
   2  -2 -12    4.67    0.55
  -2   2  12    4.50    0.51
  -2   2  12    4.62    0.53
   1  -2 -12    1.53    0.32
   1  -2 -12    2.14    0.37
  -1   2  12    1.35    0.30
   0  -2 -12    4.58    0.50
   0  -2 -12    3.77    0.45
   0   2  12    4.07    0.43
   0   2  12    4.10    0.46
  -1  -2 -12    2.63    0.38
  -1  -2 -12    2.45    0.37
   1   2  12    2.21    0.36
   1   2  12    2.22    0.36
  -2  -2 -12    1.96    0.35
  -2  -2 -12    2.29    0.39
   2   2  12    1.93    0.37
  -3  -2 -12    2.67    0.44
  -3  -2 -12    2.94    0.40
   3   2  12    2.76    0.47
  -4  -2 -12    0.24    0.27
  -4  -2 -12    0.22    0.21
   4   2  12    0.24    0.26
   3  -3 -12   -0.14    0.16
  -3   3  12    0.10    0.22
  -3   3  12    0.04    0.24
   2  -3 -12   -0.14    0.14
  -2   3  12    0.09    0.22
  -2   3  12    0.12    0.20
   1  -3 -12   13.68    0.73
   1  -3 -12   13.87    0.73
  -1   3  12   12.80    0.73
  -1   3  12   13.36    0.70
   0  -3 -12    0.45    0.20
   0  -3 -12   -0.02    0.16
   0   3  12    0.22    0.17
   0   3  12    0.36    0.21
  -1  -3 -12    0.28    0.18
  -1  -3 -12    0.38    0.21
   1   3  12    0.58    0.23
   1   3  12    0.53    0.22
  -2  -3 -12    0.39    0.19
  -2  -3 -12    0.20    0.21
   2   3  12    0.03    0.19
   2   3  12    0.34    0.19
  -3  -3 -12    1.14    0.35
  -3  -3 -12    0.87    0.25
   3   3  12    1.73    0.37
  -4  -3 -12    1.12    0.37
   4   3  12    1.50    0.40
   3  -4 -12    3.17    0.51
  -3   4  12    4.17    0.57
  -3   4  12    3.31    0.54
   2  -4 -12    2.25    0.41
  -2   4  12    1.57    0.36
  -2   4  12    2.50    0.42
   1  -4 -12    3.25    0.44
  -1   4  12    4.18    0.49
  -1   4  12    3.60    0.47
   0  -4 -12   14.45    0.71
   0  -4 -12   13.18    0.71
   0   4  12   12.72    0.69
   0   4  12   13.75    0.65
  -1  -4 -12   24.58    0.91
  -1  -4 -12   22.98    0.95
   1   4  12   23.45    0.90
   1   4  12   24.05    0.92
  -2  -4 -12   10.38    0.66
  -2  -4 -12    8.97    0.55
   2   4  12    9.70    0.58
   2   4  12    8.99    0.62
  -3  -4 -12    7.83    0.62
   3   4  12    9.02    0.70
  -4  -4 -12   10.03    0.74
   4   4  12    9.08    0.73
   3  -5 -12    0.17    0.22
  -3   5  12    0.42    0.30
  -3   5  12    0.70    0.37
   2  -5 -12    8.55    0.62
  -2   5  12    8.13    0.66
  -2   5  12    6.77    0.67
   1  -5 -12   13.04    0.74
  -1   5  12   13.44    0.77
  -1   5  12   14.35    0.77
   0  -5 -12    0.28    0.19
   0  -5 -12    0.06    0.17
   0   5  12    0.16    0.19
   0   5  12    0.18    0.18
  -1  -5 -12    1.47    0.29
  -1  -5 -12    1.63    0.35
   1   5  12    1.66    0.32
   1   5  12    1.89    0.34
  -2  -5 -12    1.41    0.33
  -2  -5 -12    1.52    0.30
   2   5  12    1.93    0.39
   2   5  12    1.80    0.38
  -3  -5 -12    0.94    0.32
   3   5  12    1.35    0.35
  -4  -5 -12    4.06    0.58
   4   5  12    3.93    0.57
   2  -6 -12    0.05    0.18
  -2   6  12    0.08    0.23
  -2   6  12   -0.02    0.25
   1  -6 -12    1.40    0.33
  -1   6  12    2.31    0.41
  -1   6  12    1.55    0.38
   0  -6 -12    4.15    0.53
   0   6  12    4.65    0.53
   0   6  12    4.66    0.50
  -1  -6 -12    0.24    0.19
  -1  -6 -12    0.09    0.17
   1   6  12    0.00    0.17
   1   6  12    0.10    0.19
  -2  -6 -12    0.30    0.22
   2   6  12    0.08    0.21
  -3  -6 -12    0.07    0.22
   3   6  12    0.09    0.23
  -4  -6 -12    4.73    0.64
   4   6  12    4.41    0.63
   2  -7 -12   -0.11    0.18
  -2   7  12   -0.17    0.25
  -2   7  12    0.26    0.27
   1  -7 -12    0.02    0.20
  -1   7  12    0.53    0.28
  -1   7  12    0.63    0.32
   0  -7 -12    0.22    0.21
   0   7  12    0.33    0.23
   0   7  12    0.87    0.29
  -1  -7 -12   12.38    0.73
   1   7  12   10.63    0.66
  -2  -7 -12    0.29    0.25
   2   7  12   -0.01    0.17
  -3  -7 -12    0.59    0.30
   3   7  12    0.82    0.31
  -4  -7 -12   -0.14    0.20
   4   7  12    0.23    0.27
   1  -8 -12    2.29    0.42
  -1   8  12    2.39    0.45
  -1   8  12    3.06    0.54
   0  -8 -12    3.47    0.49
   0   8  12    2.52    0.42
   0   8  12    3.97    0.55
  -1  -8 -12    4.39    0.55
   1   8  12    4.58    0.56
   1   8  12    3.39    0.48
  -2  -8 -12    0.11    0.21
   2   8  12   -0.26    0.20
  -3  -8 -12    2.04    0.43
   3   8  12    2.61    0.48
  -1   9  12   -0.04    0.24
  -1   9  12   -0.21    0.23
   0  -9 -12    4.32    0.53
   0   9  12    4.49    0.65
  -1  -9 -12    1.28    0.34
   1   9  12    1.60    0.40
  -2  -9 -12    0.60    0.27
   2   9  12    0.84    0.33
  -3  -9 -12   -0.10    0.20
   3   9  12    0.03    0.27
  -1 -10 -12    4.17    0.55
   1  10  12    5.12    0.66
  -2 -10 -12    1.30    0.35
   2  10  12    1.27    0.37
   1   6 -13    2.60    0.48
   1   6 -13    3.97    0.55
  -1  -6  13    3.06    0.52
   0   6 -13    1.25    0.38
   0   6 -13    0.71    0.30
   0  -6  13    0.43    0.33
   1   5 -13    0.07    0.17
   1   5 -13    0.08    0.20
  -1  -5  13   -0.04    0.26
   0   5 -13    0.42    0.23
   0   5 -13    1.02    0.34
   0  -5  13    0.95    0.34
  -1   5 -13    2.69    0.49
  -1   5 -13    3.38    0.52
   1  -5  13    3.99    0.60
   3   4 -13   -0.06    0.21
  -3  -4  13    0.60    0.28
   2   4 -13    0.52    0.25
  -2  -4  13    0.46    0.28
   1   4 -13    1.26    0.32
   1   4 -13    0.92    0.32
  -1  -4  13    1.19    0.33
  -1  -4  13    1.54    0.34
   0   4 -13    0.00    0.18
   0   4 -13    0.20    0.23
   0  -4  13    0.08    0.21
  -1   4 -13    0.25    0.23
  -1   4 -13    0.29    0.22
   1  -4  13   -0.07    0.25
  -2   4 -13    0.24    0.25
  -2   4 -13    0.00    0.26
   2  -4  13    0.28    0.29
   3   3 -13    1.45    0.35
  -3  -3  13    1.38    0.36
   2   3 -13    0.39    0.23
   2   3 -13    0.16    0.23
  -2  -3  13   -0.24    0.22
   1   3 -13    1.95    0.36
   1   3 -13    2.78    0.46
  -1  -3  13    2.95    0.47
  -1  -3  13    3.14    0.45
   0   3 -13   18.71    0.89
   0   3 -13   19.03    0.92
   0  -3  13   18.92    0.92
  -1   3 -13    2.41    0.43
  -1   3 -13    2.18    0.41
   1  -3  13    1.90    0.42
  -2   3 -13    4.10    0.56
  -2   3 -13    3.79    0.57
   2  -3  13    4.70    0.61
   3   2 -13    7.74    0.74
   3   2 -13   10.17    0.71
  -3  -2  13    9.93    0.71
  -3  -2  13    8.30    0.65
   2   2 -13    1.15    0.34
   2   2 -13    1.76    0.36
  -2  -2  13    1.39    0.33
   1   2 -13    0.48    0.25
   1   2 -13    0.45    0.23
   1   2 -13    0.64    0.24
  -1  -2  13    1.12    0.31
  -1  -2  13    0.73    0.28
   0   2 -13    2.08    0.39
   0   2 -13    1.32    0.31
   0   2 -13    2.27    0.40
   0  -2  13    1.85    0.37
  -1   2 -13    0.43    0.23
  -1   2 -13    0.36    0.21
   1  -2  13    0.30    0.24
  -2   2 -13    2.54    0.43
  -2   2 -13    2.52    0.44
   2  -2  13    2.59    0.48
  -3   2 -13    0.55    0.28
  -3   2 -13    0.47    0.29
   3  -2  13    0.37    0.31
   3   1 -13    0.13    0.20
   3   1 -13    0.10    0.22
  -3  -1  13    0.12    0.22
  -3  -1  13   -0.12    0.19
  -3  -1  13    0.34    0.23
   2   1 -13    2.08    0.39
   2   1 -13    2.95    0.46
  -2  -1  13    3.02    0.44
   1   1 -13    6.53    0.62
   1   1 -13    7.05    0.55
   1   1 -13    6.41    0.60
  -1  -1  13    7.81    0.70
   0   1 -13   20.43    0.87
   0   1 -13   20.80    0.86
   0   1 -13   19.52    0.89
   0  -1  13   20.15    0.88
   0  -1  13   21.23    0.92
  -1   1 -13    0.03    0.18
  -1   1 -13    0.22    0.21
  -1   1 -13   -0.15    0.17
   1  -1  13   -0.10    0.17
  -2   1 -13    4.84    0.57
  -2   1 -13    5.44    0.59
   2  -1  13    4.47    0.57
  -3   1 -13    5.82    0.65
  -3   1 -13    5.78    0.65
   3  -1  13    6.98    0.74
   3   0 -13    0.04    0.22
  -3   0  13   -0.02    0.22
  -3   0  13   -0.02    0.20
   2   0 -13   -0.15    0.17
   2   0 -13    0.37    0.25
  -2   0  13    0.00    0.19
   1   0 -13    0.25    0.20
   1   0 -13    0.01    0.18
   1   0 -13    0.71    0.25
  -1   0  13    0.37    0.26
   0   0 -13    1.92    0.36
   0   0 -13    2.21    0.37
   0   0 -13    2.04    0.36
   0   0  13    1.29    0.33
   0   0  13    2.28    0.37
  -1   0 -13    0.48    0.22
  -1   0 -13   -0.09    0.17
  -1   0 -13    0.42    0.22
   1   0  13   -0.15    0.15
  -2   0 -13    0.17    0.21
  -2   0 -13    0.45    0.24
  -2   0 -13   -0.08    0.18
   2   0  13    0.21    0.23
  -3   0 -13    0.97    0.32
  -3   0 -13    0.91    0.30
   3   0  13    0.79    0.33
   3  -1 -13    3.57    0.55
  -3   1  13    3.44    0.51
  -3   1  13    2.32    0.43
   2  -1 -13    0.92    0.30
   2  -1 -13    1.13    0.32
  -2   1  13    1.10    0.30
   1  -1 -13    8.50    0.55
   1  -1 -13    8.25    0.61
   1  -1 -13    8.74    0.61
  -1   1  13    8.05    0.59
   0  -1 -13    0.50    0.23
   0  -1 -13    0.48    0.21
   0  -1 -13    0.20    0.18
   0   1  13    0.53    0.20
   0   1  13    0.77    0.26
  -1  -1 -13   -0.05    0.15
  -1  -1 -13    0.22    0.18
  -1  -1 -13   -0.10    0.16
   1   1  13    0.13    0.18
   1   1  13    0.10    0.18
  -2  -1 -13    0.35    0.23
  -2  -1 -13    0.12    0.18
  -2  -1 -13    0.36    0.21
   2   1  13    0.48    0.25
  -3  -1 -13    0.25    0.22
  -3  -1 -13    0.47    0.26
  -3  -1 -13    0.13    0.21
   3   1  13    0.09    0.22
  -4  -1 -13    0.31    0.28
   4   1  13    0.27    0.29
   3  -2 -13    0.43    0.26
  -3   2  13    0.75    0.33
  -3   2  13    0.17    0.21
   2  -2 -13    2.83    0.43
   2  -2 -13    2.99    0.46
  -2   2  13    3.36    0.48
  -2   2  13    3.02    0.45
   1  -2 -13    1.15    0.30
   1  -2 -13    1.24    0.31
   1  -2 -13    1.49    0.31
  -1   2  13    1.66    0.34
   0  -2 -13    8.35    0.59
   0  -2 -13    6.63    0.52
   0   2  13    6.44    0.60
   0   2  13    6.81    0.50
  -1  -2 -13    0.30    0.20
  -1  -2 -13    0.72    0.24
   1   2  13    0.37    0.24
   1   2  13    0.12    0.19
  -2  -2 -13    1.04    0.31
  -2  -2 -13    0.28    0.22
   2   2  13    0.38    0.24
  -3  -2 -13    0.06    0.20
  -3  -2 -13    0.18    0.22
  -3  -2 -13    0.26    0.20
   3   2  13   -0.06    0.25
  -4  -2 -13    1.89    0.43
  -4  -2 -13    1.61    0.38
   4   2  13    0.95    0.36
   3  -3 -13    6.32    0.69
  -3   3  13    5.68    0.67
  -3   3  13    8.49    0.78
   2  -3 -13    7.81    0.75
  -2   3  13    8.54    0.63
  -2   3  13    8.60    0.65
   1  -3 -13    0.15    0.20
   1  -3 -13   -0.12    0.17
  -1   3  13   -0.12    0.17
   0  -3 -13    1.76    0.33
   0  -3 -13    1.29    0.32
   0   3  13    1.08    0.27
   0   3  13    2.04    0.37
  -1  -3 -13    3.31    0.44
  -1  -3 -13    2.81    0.43
   1   3  13    2.32    0.38
   1   3  13    2.79    0.41
  -2  -3 -13   13.65    0.78
  -2  -3 -13   13.32    0.72
   2   3  13   15.38    0.84
   2   3  13   12.79    0.72
  -3  -3 -13    0.09    0.21
  -3  -3 -13    0.14    0.16
   3   3  13    0.21    0.22
  -4  -3 -13    0.89    0.30
  -4  -3 -13    0.14    0.28
   4   3  13   -0.11    0.24
   3  -4 -13    0.93    0.32
  -3   4  13    1.78    0.43
  -3   4  13    1.63    0.42
   2  -4 -13    0.49    0.25
  -2   4  13   -0.01    0.21
  -2   4  13    0.44    0.31
   1  -4 -13    3.34    0.49
   1  -4 -13    4.47    0.52
  -1   4  13    4.53    0.52
  -1   4  13    3.69    0.53
   0  -4 -13    0.93    0.27
   0  -4 -13    1.74    0.34
   0   4  13    1.62    0.36
  -1  -4 -13    2.47    0.39
  -1  -4 -13    2.41    0.41
   1   4  13    1.91    0.35
   1   4  13    2.02    0.37
  -2  -4 -13    0.49    0.21
  -2  -4 -13    0.56    0.28
   2   4  13   -0.07    0.16
   2   4  13    0.16    0.22
  -3  -4 -13    0.13    0.22
   3   4  13   -0.20    0.20
  -4  -4 -13    1.49    0.44
   4   4  13    1.40    0.40
   2  -5 -13    0.42    0.24
  -2   5  13   -0.08    0.21
  -2   5  13    0.19    0.28
   1  -5 -13    0.29    0.22
  -1   5  13    0.53    0.30
  -1   5  13    0.29    0.23
   0  -5 -13    0.47    0.22
   0  -5 -13    0.94    0.28
   0   5  13    0.58    0.24
  -1  -5 -13   15.55    0.76
  -1  -5 -13   14.42    0.79
   1   5  13   15.80    0.79
   1   5  13   14.08    0.75
  -2  -5 -13    0.00    0.20
  -2  -5 -13    0.11    0.17
   2   5  13   -0.08    0.16
  -3  -5 -13    0.85    0.30
   3   5  13    0.50    0.28
  -4  -5 -13    0.52    0.31
   4   5  13    0.40    0.29
   2  -6 -13    4.52    0.59
  -2   6  13    3.96    0.59
  -2   6  13    4.22    0.62
   1  -6 -13   10.49    0.70
  -1   6  13    9.71    0.70
  -1   6  13   11.15    0.73
   0  -6 -13   18.58    0.92
   0   6  13   19.67    0.90
  -1  -6 -13    1.51    0.36
  -1  -6 -13    0.83    0.26
   1   6  13    1.31    0.32
   1   6  13    1.08    0.31
  -2  -6 -13    4.85    0.59
   2   6  13    4.32    0.55
  -3  -6 -13    1.33    0.38
   3   6  13    1.31    0.37
  -4  -6 -13    1.43    0.41
   2  -7 -13    0.48    0.27
  -2   7  13    0.18    0.34
   1  -7 -13    2.56    0.44
  -1   7  13    2.34    0.48
  -1   7  13    1.61    0.38
   0  -7 -13   17.14    0.89
   0   7  13   15.73    0.86
   0   7  13   16.51    0.86
  -1  -7 -13    0.17    0.23
   1   7  13    0.17    0.21
  -2  -7 -13    3.78    0.54
   2   7  13    5.09    0.60
  -3  -7 -13    5.97    0.70
   3   7  13    6.40    0.74
   1  -8 -13   -0.11    0.20
  -1   8  13   -0.15    0.27
  -1   8  13    0.03    0.27
   0  -8 -13    3.04    0.47
   0   8  13    3.13    0.52
   0   8  13    2.54    0.45
  -1  -8 -13   10.29    0.71
  -2  -8 -13    0.08    0.21
   2   8  13    0.07    0.23
  -3  -8 -13    0.27    0.28
   3   8  13   -0.03    0.26
   0  -9 -13    1.71    0.40
   0   9  13    1.93    0.47
  -1  -9 -13    0.15    0.22
  -2  -9 -13    0.64    0.31
   2   9  13    0.45    0.30
   1   5 -14    0.30    0.28
   1   5 -14    0.47    0.27
  -1  -5  14    0.47    0.31
  -1  -5  14    0.62    0.28
   0   5 -14    0.04    0.21
   0   5 -14    0.13    0.23
   0  -5  14    0.16    0.28
   2   4 -14    0.23    0.25
  -2  -4  14    0.11    0.29
   1   4 -14    0.49    0.28
   1   4 -14   -0.05    0.22
  -1  -4  14    0.64    0.32
  -1  -4  14    0.59    0.30
   0   4 -14    0.01    0.21
   0   4 -14    0.26    0.26
   0  -4  14   -0.05    0.28
  -1   4 -14    0.22    0.24
  -1   4 -14   -0.22    0.15
   1  -4  14   -0.07    0.25
   2   3 -14    0.36    0.23
   2   3 -14   -0.14    0.17
  -2  -3  14    0.26    0.26
   1   3 -14    4.81    0.57
   1   3 -14    7.01    0.71
  -1  -3  14    5.26    0.61
   0   3 -14   10.89    0.74
   0   3 -14   10.80    0.72
   0  -3  14   11.26    0.76
  -1   3 -14   -0.22    0.17
  -1   3 -14    0.13    0.22
   1  -3  14    0.13    0.23
  -2   3 -14    1.90    0.44
  -2   3 -14    1.75    0.43
   2  -3  14    1.19    0.39
   3   2 -14    0.62    0.30
   3   2 -14    1.07    0.33
  -3  -2  14    0.58    0.28
  -3  -2  14    0.99    0.33
   2   2 -14    0.38    0.26
   2   2 -14    0.11    0.24
  -2  -2  14    0.53    0.30
   1   2 -14    9.90    0.68
   1   2 -14    8.30    0.62
   1   2 -14    7.88    0.60
  -1  -2  14    9.36    0.69
   0   2 -14    2.10    0.41
   0   2 -14    1.92    0.39
   0  -2  14    2.45    0.44
  -1   2 -14    3.76    0.52
  -1   2 -14    4.27    0.57
   1  -2  14    4.92    0.62
  -2   2 -14    0.46    0.29
  -2   2 -14    0.67    0.28
   2  -2  14    0.16    0.32
   3   1 -14    0.46    0.25
   3   1 -14   -0.30    0.24
  -3  -1  14    0.11    0.24
  -3  -1  14    0.09    0.20
   2   1 -14    8.30    0.77
   2   1 -14    7.99    0.77
  -2  -1  14    8.58    0.66
   1   1 -14    0.71    0.29
   1   1 -14    0.74    0.27
   1   1 -14    0.54    0.22
  -1  -1  14    0.54    0.29
   0   1 -14    2.49    0.43
   0   1 -14    2.07    0.41
   0   1 -14    2.18    0.38
   0  -1  14    3.10    0.47
   0  -1  14    1.81    0.38
  -1   1 -14    7.01    0.68
  -1   1 -14    6.41    0.66
  -1   1 -14    6.13    0.68
   1  -1  14    7.33    0.72
  -2   1 -14    1.24    0.34
  -2   1 -14    0.94    0.31
   2  -1  14    1.03    0.36
  -3   1 -14    2.16    0.44
  -3   1 -14    1.74    0.41
   3  -1  14    2.70    0.51
   3   0 -14   -0.15    0.22
  -3   0  14   -0.12    0.20
   2   0 -14    5.11    0.60
   2   0 -14    5.33    0.63
  -2   0  14    5.45    0.62
   1   0 -14    2.48    0.43
   1   0 -14    2.71    0.42
   1   0 -14    3.39    0.49
  -1   0  14    2.04    0.42
   0   0 -14    0.06    0.19
   0   0 -14    0.13    0.19
   0   0 -14    0.03    0.19
   0   0  14    0.08    0.19
   0   0  14   -0.10    0.21
  -1   0 -14   11.55    0.72
  -1   0 -14   12.05    0.73
  -1   0 -14   11.20    0.68
   1   0  14   10.39    0.71
  -2   0 -14   -0.10    0.19
  -2   0 -14    0.57    0.26
  -2   0 -14   -0.22    0.16
   2   0  14    0.19    0.24
  -3   0 -14    0.19    0.26
  -3   0 -14    0.48    0.25
   3   0  14    0.54    0.34
   3  -1 -14    2.94    0.53
  -3   1  14    2.68    0.47
  -3   1  14    2.72    0.50
   2  -1 -14    2.48    0.45
   2  -1 -14    2.61    0.43
  -2   1  14    2.99    0.49
   1  -1 -14    0.88    0.28
   1  -1 -14    0.81    0.29
   1  -1 -14    0.92    0.29
  -1   1  14    0.88    0.31
   0  -1 -14    1.79    0.37
   0  -1 -14    2.20    0.40
   0  -1 -14    1.65    0.38
   0   1  14    1.84    0.35
   0   1  14    1.96    0.39
  -1  -1 -14    1.09    0.30
  -1  -1 -14    1.88    0.38
  -1  -1 -14    0.97    0.29
   1   1  14    1.92    0.37
   1   1  14    0.85    0.29
  -2  -1 -14    0.76    0.28
  -2  -1 -14    0.04    0.24
  -2  -1 -14    0.92    0.28
   2   1  14    0.44    0.28
  -3  -1 -14   -0.18    0.24
  -3  -1 -14    0.20    0.23
  -3  -1 -14    0.17    0.22
   3   1  14   -0.01    0.26
   3  -2 -14    0.91    0.33
  -3   2  14    0.53    0.27
  -3   2  14    0.77    0.34
   2  -2 -14    0.95    0.31
   2  -2 -14    0.97    0.30
  -2   2  14    1.06    0.31
   1  -2 -14    0.02    0.18
   1  -2 -14    0.08    0.18
   1  -2 -14   -0.15    0.15
  -1   2  14   -0.06    0.20
   0  -2 -14    0.54    0.26
   0  -2 -14    0.52    0.25
   0  -2 -14    0.78    0.27
   0   2  14    0.90    0.29
   0   2  14    0.64    0.24
  -1  -2 -14   11.23    0.70
  -1  -2 -14   11.40    0.69
   1   2  14   12.10    0.74
   1   2  14   10.68    0.70
  -2  -2 -14    0.81    0.29
  -2  -2 -14    0.90    0.27
  -2  -2 -14    0.10    0.23
   2   2  14    0.67    0.26
  -3  -2 -14    1.99    0.39
  -3  -2 -14    1.76    0.39
  -3  -2 -14    2.55    0.46
   3   2  14    1.75    0.43
   2  -3 -14    1.52    0.36
  -2   3  14    0.64    0.31
   1  -3 -14   14.49    0.82
   1  -3 -14   15.87    0.86
  -1   3  14   13.53    0.81
   0  -3 -14   13.36    0.78
   0  -3 -14   13.27    0.75
   0   3  14   12.62    0.77
  -1  -3 -14    2.58    0.44
  -1  -3 -14    2.56    0.41
   1   3  14    2.48    0.43
   1   3  14    3.48    0.46
  -2  -3 -14    0.27    0.19
  -2  -3 -14    0.22    0.22
   2   3  14    0.91    0.32
   2   3  14    0.30    0.26
  -3  -3 -14    0.70    0.30
   3   3  14    1.02    0.35
   2  -4 -14    1.19    0.34
  -2   4  14    1.94    0.43
  -2   4  14    1.92    0.42
   1  -4 -14    0.08    0.17
   1  -4 -14    0.06    0.18
  -1   4  14    0.17    0.21
   0  -4 -14    1.25    0.32
   0  -4 -14    1.28    0.35
   0   4  14    0.90    0.29
  -1  -4 -14    1.29    0.30
  -1  -4 -14    1.17    0.32
   1   4  14    1.59    0.35
   1   4  14    0.93    0.31
  -2  -4 -14    2.40    0.44
  -2  -4 -14    2.73    0.40
   2   4  14    2.18    0.39
   2   4  14    2.75    0.45
  -3  -4 -14    2.07    0.46
   3   4  14    1.16    0.37
   2  -5 -14    0.64    0.29
  -2   5  14    0.61    0.36
  -2   5  14    0.77    0.34
   1  -5 -14   -0.01    0.18
  -1   5  14   -0.10    0.23
   0  -5 -14   -0.13    0.17
   0  -5 -14    0.00    0.17
   0   5  14    0.32    0.23
  -1  -5 -14    1.40    0.35
  -1  -5 -14    1.44    0.33
   1   5  14    0.61    0.25
   1   5  14    1.57    0.34
  -2  -5 -14    0.78    0.41
  -2  -5 -14    0.85    0.30
   2   5  14    0.94    0.32
  -3  -5 -14    1.04    0.35
   3   5  14    1.45    0.42
   1  -6 -14    2.87    0.48
  -1   6  14    2.18    0.52
  -1   6  14    1.49    0.40
   0  -6 -14   -0.10    0.17
   0   6  14   -0.01    0.20
  -1  -6 -14    7.56    0.57
  -1  -6 -14    9.22    0.70
   1   6  14    7.74    0.62
   1   6  14    7.93    0.62
  -2  -6 -14    1.20    0.36
   2   6  14    2.13    0.43
  -3  -6 -14    1.87    0.44
   3   6  14    1.27    0.38
   1  -7 -14    0.14    0.24
  -1   7  14    0.26    0.27
  -1   7  14    0.07    0.24
   0  -7 -14    2.54    0.49
   0   7  14    1.84    0.39
  -1  -7 -14    1.19    0.35
  -2  -7 -14    1.11    0.35
   2   7  14    0.50    0.30
  -3  -7 -14    1.81    0.44
   3   7  14    2.14    0.51
   0  -8 -14    2.71    0.47
   0   8  14    2.61    0.46
  -1  -8 -14    1.79    0.41
  -2  -8 -14    3.20    0.52
   2   8  14    4.26    0.58
   1   3 -15   -0.23    0.20
   1   3 -15    0.12    0.20
  -1  -3  15    0.14    0.23
   0   3 -15    4.07    0.58
   0   3 -15    2.22    0.43
   0  -3  15    3.37    0.56
  -1   3 -15    0.23    0.27
  -1   3 -15    0.45    0.29
   1  -3  15    0.03    0.30
   2   2 -15    3.27    0.52
   2   2 -15    3.70    0.55
  -2  -2  15    3.71    0.56
   1   2 -15    1.55    0.39
   1   2 -15    1.23    0.35
   1   2 -15    1.38    0.37
  -1  -2  15    1.14    0.36
   0   2 -15    3.94    0.56
   0   2 -15    3.54    0.52
   0  -2  15    3.25    0.50
   0  -2  15    3.27    0.53
  -1   2 -15    0.00    0.19
  -1   2 -15    0.14    0.24
   1  -2  15   -0.05    0.28
   2   1 -15    0.88    0.31
   2   1 -15    0.03    0.19
  -2  -1  15    0.91    0.33
   1   1 -15   -0.03    0.21
   1   1 -15   -0.29    0.19
   1   1 -15    0.29    0.21
  -1  -1  15   -0.08    0.21
   0   1 -15   10.21    0.72
   0   1 -15    9.43    0.71
   0   1 -15   11.18    0.72
   0  -1  15   11.39    0.82
   0  -1  15    9.21    0.69
  -1   1 -15   -0.13    0.17
  -1   1 -15    0.08    0.22
   1  -1  15    0.38    0.26
  -2   1 -15    0.65    0.32
  -2   1 -15    0.87    0.31
   2  -1  15    0.97    0.36
   2   0 -15   -0.37    0.19
   2   0 -15    0.40    0.27
  -2   0  15   -0.04    0.22
   1   0 -15    0.51    0.32
   1   0 -15    0.68    0.28
   1   0 -15    0.80    0.33
  -1   0  15    0.34    0.28
   0   0 -15   -0.09    0.17
   0   0 -15    0.14    0.20
   0   0 -15    0.29    0.23
   0   0  15    0.22    0.21
   0   0  15    0.17    0.20
  -1   0 -15    0.06    0.21
  -1   0 -15    0.21    0.23
  -1   0 -15    0.09    0.22
   1   0  15   -0.02    0.21
   1   0  15    0.24    0.23
  -2   0 -15    1.11    0.34
  -2   0 -15    0.88    0.32
   2   0  15    1.26    0.37
   2  -1 -15    1.39    0.37
   2  -1 -15    2.09    0.43
  -2   1  15    2.26    0.45
   1  -1 -15   13.57    0.84
   1  -1 -15   13.60    0.84
   1  -1 -15   13.72    0.83
  -1   1  15   15.01    0.88
   0  -1 -15    1.39    0.37
   0  -1 -15    1.35    0.34
   0  -1 -15    1.61    0.37
   0   1  15    1.13    0.35
  -1  -1 -15   -0.09    0.17
  -1  -1 -15   -0.03    0.19
  -1  -1 -15   -0.04    0.19
   1   1  15    0.08    0.21
   1   1  15   -0.36    0.25
  -2  -1 -15    0.41    0.27
  -2  -1 -15    0.62    0.27
  -2  -1 -15    0.81    0.31
   2   1  15    0.43    0.30
  -3  -1 -15    1.77    0.41
  -3  -1 -15    0.62    0.33
   2  -2 -15    0.24    0.27
   2  -2 -15    0.01    0.21
  -2   2  15    0.98    0.34
   1  -2 -15   -0.12    0.16
   1  -2 -15    0.14    0.22
  -1   2  15    0.09    0.27
   0  -2 -15    4.78    0.58
   0  -2 -15    4.72    0.56
   0  -2 -15    5.83    0.63
   0   2  15    5.23    0.60
  -1  -2 -15    0.95    0.33
  -1  -2 -15    0.68    0.27
  -1  -2 -15    0.91    0.32
   1   2  15    1.65    0.38
   1   2  15    1.14    0.32
  -2  -2 -15    2.00    0.42
  -2  -2 -15    2.36    0.43
  -2  -2 -15    2.15    0.40
   2   2  15    2.21    0.42
   2   2  15    2.12    0.44
  -3  -2 -15    0.68    0.27
  -3  -2 -15    0.06    0.27
  -3  -2 -15    0.39    0.25
   3   2  15    0.03    0.24
   2  -3 -15    0.75    0.30
  -2   3  15    0.01    0.27
   1  -3 -15    0.83    0.32
   1  -3 -15    0.29    0.26
  -1   3  15   -0.08    0.21
   0  -3 -15    2.65    0.47
   0  -3 -15    3.49    0.50
   0   3  15    2.44    0.43
  -1  -3 -15    0.09    0.22
  -1  -3 -15   -0.12    0.20
   1   3  15    0.33    0.24
   1   3  15   -0.12    0.21
  -2  -3 -15    0.92    0.35
  -2  -3 -15    0.97    0.30
   2   3  15    0.70    0.31
   2   3  15    0.64    0.26
  -3  -3 -15    0.38    0.27
  -3  -3 -15    0.12    0.24
   3   3  15    0.17    0.33
   2  -4 -15    1.12    0.36
  -2   4  15    0.71    0.55
   1  -4 -15    0.34    0.24
   1  -4 -15    0.33    0.24
  -1   4  15    0.84    0.31
   0  -4 -15    3.72    0.55
   0  -4 -15    3.19    0.50
   0   4  15    3.26    0.49
  -1  -4 -15    0.05    0.20
  -1  -4 -15    0.35    0.22
   1   4  15    0.03    0.23
   1   4  15    0.13    0.24
  -2  -4 -15    3.50    0.49
  -2  -4 -15    2.64    0.48
   2   4  15    3.53    0.54
   2   4  15    3.27    0.48
  -3  -4 -15    1.68    0.47
   3   4  15    1.99    0.46
   1  -5 -15    1.15    0.36
  -1   5  15    1.54    0.40
   0  -5 -15    8.24    0.79
   0  -5 -15    7.67    0.75
   0   5  15    8.30    0.66
  -1  -5 -15    3.19    0.50
  -1  -5 -15    2.61    0.44
   1   5  15    2.58    0.42
   1   5  15    2.23    0.41
  -2  -5 -15    4.62    0.63
   2   5  15    5.52    0.65
  -3  -5 -15    0.67    0.33
   1  -6 -15    0.12    0.24
  -1   6  15    0.50    0.29
   0  -6 -15    0.37    0.28
   0   6  15   -0.10    0.24
  -1  -6 -15    0.48    0.26
  -1  -6 -15    0.16    0.22
   1   6  15    0.05    0.22
  -2  -6 -15    1.39    0.39
   2   6  15    0.09    0.25
   0  -7 -15    1.34    0.35
   0   7  15    0.48    0.31
  -1  -7 -15    4.84    0.63
  -2  -7 -15    7.28    0.79
   2   7  15    8.79    0.84
   0   2 -16    0.04    0.22
   0   2 -16   -0.08    0.41
   0  -2  16   -0.42    0.28
   0  -2  16   -0.14    0.28
   1   1 -16    0.62    0.29
   1   1 -16    0.91    0.31
   1   1 -16    0.30    0.29
  -1  -1  16    0.43    0.30
   0   1 -16    3.28    0.51
   0   1 -16    1.75    0.42
   0   1 -16    2.72    0.48
   0  -1  16    2.63    0.47
   0  -1  16    2.63    0.48
  -1   1 -16    0.74    0.37
  -1   1 -16    1.29    0.37
   1  -1  16    1.00    0.33
   1   0 -16    0.13    0.22
   1   0 -16   -0.05    0.21
  -1   0  16   -0.20    0.26
   0   0 -16    0.71    0.29
   0   0 -16    0.61    0.29
   0   0 -16    0.57    0.31
   0   0  16    0.43    0.31
  -1   0 -16    4.81    0.63
  -1   0 -16    4.02    0.55
  -1   0 -16    4.62    0.61
   1   0  16    3.91    0.58
   1   0  16    4.29    0.60
   1  -1 -16    0.61    0.32
   1  -1 -16    0.38    0.28
  -1   1  16    0.58    0.31
   0  -1 -16    0.17    0.21
   0  -1 -16    0.03    0.23
   0  -1 -16    0.25    0.26
   0   1  16   -0.08    0.23
  -1  -1 -16    1.51    0.37
  -1  -1 -16    0.87    0.32
  -1  -1 -16    1.10    0.34
   1   1  16    1.44    0.41
   1   1  16    1.23    0.37
  -2  -1 -16   -0.06    0.19
  -2  -1 -16    0.28    0.25
  -2  -1 -16    0.11    0.21
   2   1  16   -0.29    0.23
   2   1  16   -0.36    0.22
   1  -2 -16   -0.31    0.20
   1  -2 -16   -0.11    0.23
  -1   2  16    0.20    0.26
   0  -2 -16    2.68    0.46
   0  -2 -16    4.00    0.54
   0  -2 -16    3.65    0.53
   0   2  16    2.90    0.51
  -1  -2 -16    0.83    0.30
  -1  -2 -16    1.26    0.38
  -1  -2 -16    1.21    0.35
   1   2  16    0.23    0.28
   1   2  16    1.47    0.37
  -2  -2 -16    2.05    0.42
  -2  -2 -16    3.06    0.51
  -2  -2 -16    2.91    0.52
   2   2  16    2.25    0.48
   2   2  16    3.23    0.54
   1  -3 -16    0.98    0.34
   1  -3 -16    1.12    0.38
  -1   3  16    1.40    0.39
   0  -3 -16    2.88    0.49
   0  -3 -16    2.56    0.46
   0  -3 -16    2.83    0.50
   0   3  16    2.83    0.49
  -1  -3 -16   -0.01    0.23
  -1  -3 -16    1.03    0.33
   1   3  16    0.50    0.30
   1   3  16    0.99    0.31
  -2  -3 -16    3.42    0.54
  -2  -3 -16    3.98    0.56
  -2  -3 -16    3.43    0.55
   2   3  16    3.82    0.59
   2   3  16    2.85    0.47
   1  -4 -16    0.81    0.31
   1  -4 -16    1.31    0.36
  -1   4  16    0.77    0.42
   0  -4 -16    1.83    0.41
   0  -4 -16    1.89    0.40
   0   4  16    2.66    0.47
  -1  -4 -16    1.15    0.33
  -1  -4 -16    0.60    0.28
   1   4  16    0.42    0.27
   1   4  16    0.70    0.28
  -2  -4 -16    3.47    0.54
  -2  -4 -16    2.51    0.47
   2   4  16    2.61    0.49
   2   4  16    2.49    0.46
   0  -5 -16    0.05    0.19
   0  -5 -16    0.05    0.24
   0   5  16    0.06    0.23
  -1  -5 -16    1.10    0.32
  -1  -5 -16    1.61    0.41
   1   5  16    1.38    0.38
   0   0   0    0.00    0.00
;
_shelx_hkl_checksum              36106
loop_
_space_group_symop_operation_xyz
'x, y, z'
'-x, -y, -z'
loop_
_atom_site_label
_atom_site_type_symbol
_atom_site_fract_x
_atom_site_fract_y
_atom_site_fract_z
_atom_site_U_iso_or_equiv
_atom_site_adp_type
_atom_site_occupancy
_atom_site_site_symmetry_order
_atom_site_calc_flag
_atom_site_refinement_flags_posn
_atom_site_refinement_flags_adp
N1 N -0.1766(3) 0.15336(15) 0.07771(10) 0.0355(3) Uani 1 1 d . .
N2 N -0.2114(3) 0.19375(17) -0.02916(11) 0.0392(3) Uani 1 1 d D .
H2N H -0.323(4) 0.159(2) -0.0640(16) 0.058(6) Uiso 1 1 d D .
N3 N 0.5091(3) -0.08200(16) 0.18288(11) 0.0340(3) Uani 1 1 d D .
H3A H 0.652(4) -0.158(2) 0.2093(17) 0.064(7) Uiso 1 1 d D .
H3B H 0.572(4) -0.0019(19) 0.1587(16) 0.053(6) Uiso 1 1 d D .
N4 N 0.2272(3) -0.17719(13) 0.32506(10) 0.0325(3) Uani 1 1 d . .
N5 N -0.0027(3) -0.11946(14) 0.38672(11) 0.0351(3) Uani 1 1 d D .
H5N H -0.072(4) -0.179(2) 0.4389(14) 0.052(6) Uiso 1 1 d D .
N6 N 0.2136(3) 0.31357(14) 0.43817(10) 0.0307(3) Uani 1 1 d D .
H6A H 0.241(5) 0.376(2) 0.4800(16) 0.056(6) Uiso 1 1 d D .
H6B H 0.379(4) 0.288(2) 0.4026(15) 0.048(6) Uiso 1 1 d D .
N7 N -0.2053(3) 0.50038(13) 0.39073(10) 0.0314(3) Uani 1 1 d . .
N8 N -0.3952(3) 0.53562(14) 0.30850(11) 0.0327(3) Uani 1 1 d D .
H8N H -0.540(4) 0.6110(18) 0.3096(15) 0.046(5) Uiso 1 1 d D .
C1 C -0.0586(4) 0.29210(18) -0.06978(13) 0.0377(4) Uani 1 1 d . .
H1 H -0.0514 0.3347 -0.1410 0.045 Uiso 1 1 calc R U
C2 C 0.0851(4) 0.31835(18) 0.01311(13) 0.0360(4) Uani 1 1 d . .
H2 H 0.2097 0.3816 0.0101 0.043 Uiso 1 1 calc R U
C3 C 0.0049(3) 0.22966(15) 0.10349(11) 0.0258(3) Uani 1 1 d . .
C4 C 0.0977(3) 0.21773(15) 0.21747(11) 0.0250(3) Uani 1 1 d . .
H4 H 0.3002 0.2281 0.2137 0.030 Uiso 1 1 calc R U
C5 C -0.0814(3) 0.02559(16) 0.36164(12) 0.0320(3) Uani 1 1 d . .
H5 H -0.2319 0.0865 0.3940 0.038 Uiso 1 1 calc R U
C6 C 0.0983(3) 0.06900(15) 0.27993(11) 0.0249(3) Uani 1 1 d . .
C7 C 0.2883(3) -0.06238(15) 0.26141(11) 0.0259(3) Uani 1 1 d . .
C8 C -0.3240(3) 0.44340(16) 0.23640(12) 0.0296(3) Uani 1 1 d . .
H8 H -0.4237 0.4477 0.1741 0.035 Uiso 1 1 calc R U
C9 C -0.0773(3) 0.34147(15) 0.27112(11) 0.0251(3) Uani 1 1 d . .
C10 C -0.0129(3) 0.38356(15) 0.36761(11) 0.0254(3) Uani 1 1 d . .
loop_
_atom_site_aniso_label
_atom_site_aniso_U_11
_atom_site_aniso_U_22
_atom_site_aniso_U_33
_atom_site_aniso_U_23
_atom_site_aniso_U_13
_atom_site_aniso_U_12
N1 0.0447(8) 0.0374(8) 0.0277(6) -0.0071(5) -0.0014(5) -0.0140(6)
N2 0.0453(8) 0.0455(9) 0.0290(7) -0.0118(6) -0.0048(6) -0.0096(7)
N3 0.0352(7) 0.0282(7) 0.0379(7) -0.0123(6) 0.0062(6) -0.0023(6)
N4 0.0386(7) 0.0217(6) 0.0342(7) -0.0047(5) 0.0001(5) -0.0003(5)
N5 0.0444(8) 0.0252(7) 0.0317(7) -0.0005(5) 0.0052(6) -0.0037(6)
N6 0.0353(7) 0.0258(7) 0.0295(6) -0.0072(5) -0.0036(5) -0.0011(5)
N7 0.0367(7) 0.0243(6) 0.0325(6) -0.0100(5) -0.0030(5) -0.0007(5)
N8 0.0357(7) 0.0225(6) 0.0369(7) -0.0085(5) -0.0044(5) 0.0032(5)
C1 0.0420(9) 0.0378(9) 0.0266(7) -0.0017(6) 0.0021(6) 0.0019(7)
C2 0.0427(9) 0.0317(8) 0.0326(8) -0.0016(6) 0.0026(6) -0.0093(7)
C3 0.0291(7) 0.0198(7) 0.0267(7) -0.0065(5) 0.0023(5) -0.0009(5)
C4 0.0285(7) 0.0197(7) 0.0269(7) -0.0063(5) 0.0002(5) -0.0036(5)
C5 0.0377(8) 0.0241(7) 0.0304(7) -0.0056(6) 0.0033(6) 0.0007(6)
C6 0.0301(7) 0.0201(7) 0.0238(6) -0.0060(5) -0.0029(5) -0.0015(5)
C7 0.0299(7) 0.0215(7) 0.0265(7) -0.0071(5) -0.0029(5) -0.0029(5)
C8 0.0362(8) 0.0221(7) 0.0299(7) -0.0056(6) -0.0030(6) -0.0038(6)
C9 0.0312(7) 0.0174(6) 0.0266(7) -0.0053(5) 0.0005(5) -0.0042(5)
C10 0.0307(7) 0.0189(7) 0.0263(7) -0.0051(5) 0.0009(5) -0.0042(5)
loop_
_atom_type_symbol
_atom_type_description
_atom_type_scat_dispersion_real
_atom_type_scat_dispersion_imag
_atom_type_scat_source
C C 0.0033 0.0016 'International Tables Vol C Tables 4.2.6.8 and 6.1.1.4'
H H 0.0000 0.0000 'International Tables Vol C Tables 4.2.6.8 and 6.1.1.4'
N N 0.0061 0.0033 'International Tables Vol C Tables 4.2.6.8 and 6.1.1.4'
loop_
_geom_angle_atom_site_label_1
_geom_angle_atom_site_label_2
_geom_angle_atom_site_label_3
_geom_angle
C3 N1 N2 104.72(13)
C1 N2 N1 112.24(14)
C1 N2 H2N 126.2(15)
N1 N2 H2N 121.6(15)
C7 N3 H3A 107.9(14)
C7 N3 H3B 113.3(14)
H3A N3 H3B 114(2)
C7 N4 N5 104.22(11)
C5 N5 N4 111.70(13)
C5 N5 H5N 129.6(13)
N4 N5 H5N 118.6(13)
C10 N6 H6A 108.7(14)
C10 N6 H6B 110.8(13)
H6A N6 H6B 107.2(19)
C10 N7 N8 104.47(12)
C8 N8 N7 111.90(12)
C8 N8 H8N 130.1(13)
N7 N8 H8N 118.0(13)
N2 C1 C2 106.96(14)
N2 C1 H1 126.5
C2 C1 H1 126.5
C1 C2 C3 105.25(15)
C1 C2 H2 127.4
C3 C2 H2 127.4
N1 C3 C2 110.84(14)
N1 C3 C4 121.63(12)
C2 C3 C4 127.53(14)
C3 C4 C6 111.56(11)
C3 C4 C9 111.46(11)
C6 C4 C9 113.64(11)
C3 C4 H4 106.6
C6 C4 H4 106.6
C9 C4 H4 106.6
N5 C5 C6 108.33(13)
N5 C5 H5 125.8
C6 C5 H5 125.8
C5 C6 C7 103.50(12)
C5 C6 C4 130.80(13)
C7 C6 C4 125.64(13)
N4 C7 N3 119.99(13)
N4 C7 C6 112.24(13)
N3 C7 C6 127.65(13)
N8 C8 C9 107.84(13)
N8 C8 H8 126.1
C9 C8 H8 126.1
C8 C9 C10 103.72(12)
C8 C9 C4 129.06(13)
C10 C9 C4 127.14(13)
N7 C10 N6 120.27(13)
N7 C10 C9 112.06(13)
N6 C10 C9 127.61(13)
loop_
_geom_bond_atom_site_label_1
_geom_bond_atom_site_label_2
_geom_bond_distance
N1 C3 1.327(2)
N1 N2 1.3539(18)
N2 C1 1.334(2)
N2 H2N 0.858(15)
N3 C7 1.4008(19)
N3 H3A 0.904(16)
N3 H3B 0.885(15)
N4 C7 1.3306(19)
N4 N5 1.3628(18)
N5 C5 1.339(2)
N5 H5N 0.901(15)
N6 C10 1.4040(19)
N6 H6A 0.892(15)
N6 H6B 0.883(15)
N7 C10 1.3280(18)
N7 N8 1.3603(18)
N8 C8 1.3448(19)
N8 H8N 0.873(14)
C1 C2 1.365(2)
C1 H1 0.9300
C2 C3 1.399(2)
C2 H2 0.9300
C3 C4 1.5095(19)
C4 C6 1.5104(19)
C4 C9 1.5119(19)
C4 H4 0.9800
C5 C6 1.373(2)
C5 H5 0.9300
C6 C7 1.4096(19)
C8 C9 1.376(2)
C8 H8 0.9300
C9 C10 1.4136(19)
loop_
_geom_torsion_atom_site_label_1
_geom_torsion_atom_site_label_2
_geom_torsion_atom_site_label_3
_geom_torsion_atom_site_label_4
_geom_torsion
C3 N1 N2 C1 -0.12(18)
C7 N4 N5 C5 0.29(17)
C10 N7 N8 C8 0.14(17)
N1 N2 C1 C2 0.20(19)
N2 C1 C2 C3 -0.18(18)
N2 N1 C3 C2 0.00(17)
N2 N1 C3 C4 179.10(12)
C1 C2 C3 N1 0.12(18)
C1 C2 C3 C4 -178.92(14)
N1 C3 C4 C6 29.37(18)
C2 C3 C4 C6 -151.69(15)
N1 C3 C4 C9 -98.84(15)
C2 C3 C4 C9 80.10(18)
N4 N5 C5 C6 0.37(19)
N5 C5 C6 C7 -0.82(17)
N5 C5 C6 C4 176.51(14)
C3 C4 C6 C5 -109.78(17)
C9 C4 C6 C5 17.3(2)
C3 C4 C6 C7 67.03(18)
C9 C4 C6 C7 -165.93(13)
N5 N4 C7 N3 -177.23(13)
N5 N4 C7 C6 -0.84(16)
C5 C6 C7 N4 1.06(16)
C4 C6 C7 N4 -176.46(13)
C5 C6 C7 N3 177.10(15)
C4 C6 C7 N3 -0.4(2)
N7 N8 C8 C9 0.23(18)
N8 C8 C9 C10 -0.49(16)
N8 C8 C9 C4 -177.42(14)
C3 C4 C9 C8 10.7(2)
C6 C4 C9 C8 -116.37(16)
C3 C4 C9 C10 -165.55(14)
C6 C4 C9 C10 67.36(19)
N8 N7 C10 N6 -177.91(13)
N8 N7 C10 C9 -0.47(16)
C8 C9 C10 N7 0.61(17)
C4 C9 C10 N7 177.62(13)
C8 C9 C10 N6 177.82(14)
C4 C9 C10 N6 -5.2(2)
