#------------------------------------------------------------------------------
#$Date: 2019-11-04 08:39:57 +0200 (Mon, 04 Nov 2019) $
#$Revision: 222253 $
#$URL: file:///home/coder/svn-repositories/cod/cif/4/03/36/4033677.cif $
#------------------------------------------------------------------------------
#
# This file is available in the Crystallography Open Database (COD),
# http://www.crystallography.net/
#
# All data on this site have been placed in the public domain by the
# contributors.
#
data_4033677
loop_
_publ_author_name
'Bodzioch, Agnieszka'
'Pomik\/lo, Dominika'
'Celeda, Ma\/lgorzata'
'Pietrzak, Anna'
'Kaszy\'nski, Piotr'
_publ_section_title
;
 3-Substituted Benzo[ e][1,2,4]triazines: Synthesis and Electronic Effects
 of the C(3) Substituent.
;
_journal_issue                   10
_journal_name_full               'The Journal of organic chemistry'
_journal_page_first              6377
_journal_page_last               6394
_journal_paper_doi               10.1021/acs.joc.9b00716
_journal_volume                  84
_journal_year                    2019
_chemical_formula_moiety         'C8 H4 F3 N3'
_chemical_formula_sum            'C8 H4 F3 N3'
_chemical_formula_weight         199.14
_space_group_crystal_system      monoclinic
_space_group_IT_number           14
_space_group_name_Hall           '-P 2ybc'
_space_group_name_H-M_alt        'P 1 21/c 1'
_atom_sites_solution_hydrogens   geom
_atom_sites_solution_primary     other
_audit_creation_method           SHELXL-2018/1
_audit_update_record
;
2018-11-12 deposited with the CCDC.	2019-03-12 downloaded from the CCDC.
;
_cell_angle_alpha                90
_cell_angle_beta                 96.973(2)
_cell_angle_gamma                90
_cell_formula_units_Z            4
_cell_length_a                   4.76610(10)
_cell_length_b                   15.9025(4)
_cell_length_c                   10.4700(3)
_cell_measurement_reflns_used    7355
_cell_measurement_temperature    100(2)
_cell_measurement_theta_max      78.6100
_cell_measurement_theta_min      5.0710
_cell_volume                     787.68(3)
_computing_cell_refinement       'CrysAlisPro 1.171.39.44a (Rigaku OD, 2018)'
_computing_data_collection       'CrysAlisPro 1.171.39.44a (Rigaku OD, 2018)'
_computing_data_reduction        'CrysAlisPro 1.171.39.44a (Rigaku OD, 2018)'
_computing_structure_refinement  'SHELXL-2018/1 (Sheldrick, 2018)'
_computing_structure_solution    'SHELXT 2014/5 (Sheldrick, 2014)'
_diffrn_ambient_temperature      100(2)
_diffrn_detector                 'CCD plate'
_diffrn_measured_fraction_theta_full 0.999
_diffrn_measured_fraction_theta_max 0.999
_diffrn_measurement_device_type  'XtaLAB Synergy, Dualflex, Pilatus 300K'
_diffrn_measurement_method       '\w scans'
_diffrn_radiation_type           CuK\a
_diffrn_radiation_wavelength     1.54184
_diffrn_reflns_av_R_equivalents  0.0530
_diffrn_reflns_av_unetI/netI     0.0259
_diffrn_reflns_Laue_measured_fraction_full 0.999
_diffrn_reflns_Laue_measured_fraction_max 0.999
_diffrn_reflns_limit_h_max       5
_diffrn_reflns_limit_h_min       -5
_diffrn_reflns_limit_k_max       19
_diffrn_reflns_limit_k_min       -19
_diffrn_reflns_limit_l_max       12
_diffrn_reflns_limit_l_min       -12
_diffrn_reflns_number            13104
_diffrn_reflns_point_group_measured_fraction_full 0.999
_diffrn_reflns_point_group_measured_fraction_max 0.999
_diffrn_reflns_theta_full        67.684
_diffrn_reflns_theta_max         70.067
_diffrn_reflns_theta_min         5.084
_diffrn_source                   'micro-focus sealed X-ray tube'
_exptl_absorpt_coefficient_mu    1.389
_exptl_absorpt_correction_T_max  0.987
_exptl_absorpt_correction_T_min  0.960
_exptl_absorpt_correction_type   analytical
_exptl_absorpt_process_details
;
CrysAlisPro 1.171.39.44a (Rigaku Oxford Diffraction, 2018)
Analytical numeric absorption correction using a multifaceted crystal
			model based on expressions derived by R.C. Clark & J.S. Reid.
(Clark, R. C. & Reid, J. S. (1995). Acta Cryst. A51, 887-897)
Empirical absorption correction using spherical harmonics,
 implemented in SCALE3 ABSPACK scaling algorithm.
;
_exptl_crystal_colour            yellow
_exptl_crystal_density_diffrn    1.679
_exptl_crystal_description       plate
_exptl_crystal_F_000             400
_exptl_crystal_size_max          0.360
_exptl_crystal_size_mid          0.109
_exptl_crystal_size_min          0.068
_refine_diff_density_max         0.217
_refine_diff_density_min         -0.230
_refine_diff_density_rms         0.046
_refine_ls_extinction_method     none
_refine_ls_goodness_of_fit_ref   1.050
_refine_ls_hydrogen_treatment    constr
_refine_ls_matrix_type           full
_refine_ls_number_parameters     155
_refine_ls_number_reflns         1494
_refine_ls_number_restraints     21
_refine_ls_restrained_S_all      1.054
_refine_ls_R_factor_all          0.0364
_refine_ls_R_factor_gt           0.0325
_refine_ls_shift/su_max          0.000
_refine_ls_shift/su_mean         0.000
_refine_ls_structure_factor_coef Fsqd
_refine_ls_weighting_details
'w=1/[\s^2^(Fo^2^)+(0.0571P)^2^+0.1709P] where P=(Fo^2^+2Fc^2^)/3'
_refine_ls_weighting_scheme      calc
_refine_ls_wR_factor_gt          0.0922
_refine_ls_wR_factor_ref         0.0949
_reflns_Friedel_coverage         0.000
_reflns_number_gt                1336
_reflns_number_total             1494
_reflns_threshold_expression     'I > 2\s(I)'
_cod_data_source_file            jo9b00716_si_006.cif
_cod_data_source_block           pkcf3new
_cod_original_sg_symbol_H-M      'P 21/c'
_cod_database_code               4033677
_shelx_shelxl_version_number     2018/1
_shelx_space_group_comment
;
The symmetry employed for this shelxl refinement is uniquely defined
by the following loop, which should always be used as a source of
symmetry information in preference to the above space-group names.
They are only intended as comments.
;
_shelx_res_file
;
TITL pkcf3new_a.res in P2(1)/c
    pkcf3new.res
    created by SHELXL-2018/1 at 19:43:26 on 12-Nov-2018
REM Old TITL pkcf3new in P2(1)/c
REM SHELXT solution in P2(1)/c
REM R1 0.169, Rweak 0.076, Alpha 0.016, Orientation as input
REM Formula found by SHELXT: C8 N3 F3
CELL 1.54184 4.7661 15.9025 10.47 90 96.973 90
ZERR 4 0.0001 0.0004 0.0003 0 0.002 0
LATT 1
SYMM -X,0.5+Y,0.5-Z
SFAC C H F N
UNIT 32 16 12 12
TEMP -173
L.S. 10
PLAN  6
BOND $H
list 4
fmap 2
sadi 0.03 C11 F1a C11 F1b C11 F2a C11 F2b C11 F3a C11 F3b
sadi 0.03 F1a F2a F2a F3a F3a F1a
sadi 0.03 F1b F2b F2b F3b F3b F1b
simu F1a F2a F2a F3a F3a F1a
simu F1b F2b F2b F3b F3b F1b
rigu F1a F2a F2a F3a F3a F1a
rigu F1b F2b F2b F3b F3b F1b
omit -1   8   3

acta
WGHT    0.057100    0.170900
FVAR       0.51398   0.46949
Part 1
F1A   3    0.512040    0.436143    0.710610    21.00000    0.09995    0.02193 =
         0.05197   -0.00330    0.05252   -0.00735
F2A   3    0.266310    0.514946    0.821961    21.00000    0.01517    0.04971 =
         0.05102    0.01659    0.00447    0.00049
F3A   3    0.697287    0.487106    0.888559    21.00000    0.03381    0.05442 =
         0.03700    0.03033    0.00531    0.00119
Part 2
F1B   3    0.445958    0.444260    0.690423   -21.00000    0.07194    0.02750 =
         0.04143   -0.01159    0.02743   -0.02634
F2B   3    0.272983    0.516371    0.831089   -21.00000    0.03319    0.02243 =
         0.04090    0.00378    0.02931   -0.00032
F3B   3    0.693920    0.472708    0.869441   -21.00000    0.02331    0.04609 =
         0.07420    0.03637    0.00060    0.00023
Part 0
N1    4    0.782668    0.569571    0.628980    11.00000    0.01924    0.02085 =
         0.01784    0.00066    0.00440    0.00120

N3    4    0.536459    0.655191    0.768728    11.00000    0.02161    0.02371 =
         0.02009   -0.00105    0.00626   -0.00056
N2    4    0.637351    0.725319    0.724999    11.00000    0.02038    0.02244 =
         0.02171   -0.00233    0.00526    0.00045
C2    1    0.888546    0.641273    0.582410    11.00000    0.01698    0.01994 =
         0.01677    0.00051    0.00165    0.00047
C1    1    0.617538    0.581747    0.718283    11.00000    0.01677    0.02206 =
         0.01710    0.00028    0.00336    0.00069
C7    1    0.814729    0.720199    0.633171    11.00000    0.01645    0.02160 =
         0.01676   -0.00119    0.00217    0.00144
C4    1    1.179773    0.711358    0.444969    11.00000    0.02075    0.02740 =
         0.01773    0.00122    0.00556   -0.00041
AFIX  43
H4    2    1.304315    0.709617    0.380723    11.00000   -1.20000
AFIX   0
C3    1    1.073039    0.637969    0.486917    11.00000    0.02069    0.02174 =
         0.01836   -0.00205    0.00493    0.00169
AFIX  43
H3    2    1.122362    0.585542    0.452287    11.00000   -1.20000
AFIX   0
C6    1    0.929005    0.795284    0.587701    11.00000    0.02423    0.01927 =
         0.02428   -0.00180    0.00417    0.00070
AFIX  43
H6    2    0.881521    0.848317    0.620913    11.00000   -1.20000
AFIX   0
C11   1    0.511374    0.503586    0.780640    11.00000    0.02478    0.02491 =
         0.02594    0.00138    0.01076    0.00164
C5    1    1.107430    0.790409    0.495951    11.00000    0.02379    0.02152 =
         0.02317    0.00262    0.00347   -0.00334
AFIX  43
H5    2    1.185000    0.840510    0.465399    11.00000   -1.20000
REM #####
REM #####
AFIX   0
HKLF 4




REM  pkcf3new_a.res in P2(1)/c
REM R1 =  0.0325 for    1336 Fo > 4sig(Fo)  and  0.0364 for all    1494 data
REM    155 parameters refined using     21 restraints

END

WGHT      0.0576      0.1675

REM Highest difference peak  0.217,  deepest hole -0.230,  1-sigma level  0.046
Q1    1   0.5560  0.5466  0.7394  11.00000  0.05    0.22
Q2    1   0.8438  0.6820  0.6025  11.00000  0.05    0.20
Q3    1   0.8995  0.7509  0.6201  11.00000  0.05    0.17
Q4    1   1.0287  0.6420  0.5795  11.00000  0.05    0.15
Q5    1   0.9388  0.7952  0.5126  11.00000  0.05    0.15
Q6    1   0.5045  0.4411  0.9405  11.00000  0.05    0.14
;
_shelx_res_checksum              82132
_shelx_hkl_file
;
   0   0   1    0.02    0.20
   0   0  -1   -0.05    0.26
   0   0  -1   -0.05    0.24
   0   0  -1    0.00    0.09
   0   0  -2  643.60   31.36
   0   0   2  642.92   31.24
   0   0  -2  644.42   31.41
   0   0   2  610.74   31.32
   0   0  -2  595.19   31.22
   0   0  -3    0.08    0.71
   0   0   3   -0.15    0.52
   0   0  -3   -0.41    0.69
   0   0  -3   -0.05    0.17
   0   0   3    0.03    0.27
   0   0   3    0.30    0.34
   0   0  -3    0.09    0.20
   0   0  -4   10.48    0.71
   0   0   4   10.42    0.81
   0   0   4   11.21    0.79
   0   0   4    9.27    1.06
   0   0  -4   12.20    1.25
   0   0  -4   11.34    0.70
   0   0  -5   -0.14    0.70
   0   0   5   -0.25    0.73
   0   0  -5    0.45    0.84
   0   0   5   -0.18    0.39
   0   0   5    0.30    0.69
   0   0   5    0.15    0.31
   0   0  -5   -0.06    0.26
   0   0  -5    0.07    0.85
   0   0  -5    0.53    0.24
   0   0  -6   18.79    1.72
   0   0  -6   18.01    1.76
   0   0   6   15.20    1.65
   0   0   6   16.70    1.21
   0   0  -6   15.93    1.04
   0   0   6   15.30    1.02
   0   0   6   14.47    1.53
   0   0  -6   16.01    1.63
   0   0   7    0.27    0.46
   0   0   7    0.14    0.55
   0   0   7    0.11    1.07
   0   0  -7   -0.19    0.32
   0   0  -7    0.19    0.24
   0   0  -7   -0.76    0.93
   0   0  -7    0.23    0.98
   0   0  -7    0.49    1.00
   0   0   7   -0.47    0.95
   0   0  -8   78.60    4.85
   0   0   8   71.20    4.25
   0   0  -8   67.03    4.67
   0   0  -8   68.54    3.76
   0   0  -8   60.33    4.41
   0   0   8   67.17    4.67
   0   0  -8   65.99    3.65
   0   0  -9    0.18    0.34
   0   0  -9    0.29    0.59
   0   0   9    0.30    0.78
   0   0   9    0.06    0.43
   0   0   9    0.12    0.97
   0   0   9    0.19    1.25
   0   0  -9   -0.09    0.26
   0   0   9   -0.16    1.33
   0   0  -9   -0.50    1.04
   0   0 -10   32.63    2.19
   0   0  10   28.32    2.99
   0   0 -10   28.99    1.93
   0   0  10   30.75    2.49
   0   0  10   30.92    2.60
   0   0  10   28.35    3.01
   0   0  11   -0.15    0.64
   0   0 -11   -0.79    1.04
   0   0  11    0.60    1.29
   0   0 -11    0.18    0.51
   0   0  11    0.36    0.70
   0   0 -12    3.80    0.60
   0   0 -12    2.86    0.66
   0   0  12    3.55    0.69
   0   0 -12    2.03    0.81
   0  -1   0   -0.01    0.18
   0   1   1   17.87    1.01
   0  -1   1   18.16    0.95
   0   1  -1   18.51    1.06
   0   1   1   17.31    0.94
   0   1  -1   17.52    0.95
   0   1  -1   20.60    1.09
   0   1  -1   17.26    0.97
   0  -1   1   18.00    1.11
   0  -1  -1   19.37    1.10
   0  -1   2  443.05   23.58
   0  -1  -2  521.93   23.61
   0   1  -2  455.72   23.44
   0   1  -2  486.29   23.58
   0  -1  -2  484.16   23.64
   0   1   2  450.16   23.50
   0   1   2  469.09   23.44
   0   1  -2  515.22   23.64
   0  -1  -2  461.97   23.42
   0   1  -2  446.03   23.44
   0  -1  -3  112.97    5.77
   0  -1   3   97.61    5.72
   0   1  -3  106.02    5.50
   0   1  -3  111.31    5.74
   0  -1  -3  106.01    5.48
   0   1   3  113.32    5.67
   0   1   3  105.12    5.60
   0   1   3  109.34    5.53
   0   1  -3  103.45    5.50
   0   1  -3  120.21    5.84
   0  -1  -3  113.74    5.85
   0  -1  -3  106.83    5.49
   0  -1   4    1.39    0.34
   0  -1   4    1.53    0.80
   0  -1  -4    2.01    0.28
   0   1  -4    1.47    0.77
   0  -1  -4    2.59    0.84
   0   1  -4    1.78    0.31
   0  -1  -4    2.59    0.30
   0   1  -4    1.66    0.29
   0   1   4    2.12    0.39
   0  -1   4    2.43    0.39
   0   1   4    0.65    0.62
   0  -1  -4    3.72    0.85
   0  -1  -5   10.18    0.72
   0   1  -5   10.38    0.72
   0  -1  -5   10.33    0.69
   0   1  -5    9.54    1.22
   0  -1   5    9.33    0.72
   0  -1   5   10.46    0.82
   0  -1  -5   11.67    1.38
   0   1   5    9.60    1.07
   0   1   5   10.10    0.83
   0   1   5    9.87    0.80
   0   1   5   10.89    1.15
   0  -1   5    9.65    1.31
   0   1  -5    8.84    1.26
   0  -1   5   10.64    1.23
   0  -1  -5   10.32    1.20
   0   1   6  224.25   12.01
   0  -1  -6  224.34   12.15
   0   1   6  224.05   11.57
   0   1  -6  224.87   12.11
   0  -1   6  235.71   11.72
   0   1  -6  236.01   11.54
   0   1  -6  225.34   11.48
   0  -1   6  206.38   11.43
   0  -1   6  216.77   12.11
   0  -1   6  214.80   12.12
   0   1   6  231.83   12.12
   0  -1  -6  231.12   12.21
   0   1   6  226.66   11.69
   0   1  -6  249.21   12.32
   0  -1  -6  257.38   12.36
   0  -1  -6  230.60   11.53
   0   1   7   12.80    1.65
   0   1   7   14.23    1.62
   0   1  -7   15.01    0.97
   0   1  -7   11.55    1.48
   0  -1  -7   11.90    1.61
   0   1   7   12.22    0.88
   0   1  -7   12.39    0.86
   0  -1   7   12.23    1.69
   0   1   7   12.59    1.16
   0  -1  -7   12.52    0.95
   0  -1  -7   12.70    0.90
   0  -1   7   13.86    1.20
   0  -1  -7   16.14    1.77
   0  -1   7   14.25    1.81
   0   1  -7   17.74    1.84
   0  -1   7   12.26    1.24
   0  -1  -7   12.64    1.59
   0   1   8   87.29    5.60
   0   1   8   91.05    5.22
   0   1  -8   89.47    5.74
   0  -1   8   95.49    5.06
   0  -1  -8   94.72    5.81
   0  -1  -8   87.30    4.75
   0  -1   8   85.42    5.18
   0   1  -8   85.19    4.61
   0  -1  -8   93.86    5.76
   0   1  -8   84.48    4.72
   0  -1  -8   87.13    5.59
   0  -1   8   87.08    5.70
   0  -1  -8   89.03    4.66
   0   1  -8   67.96    5.17
   0   1   8   92.61    5.45
   0  -1  -9    2.88    0.43
   0  -1  -9    2.99    0.55
   0  -1   9    4.38    0.99
   0   1   9    2.84    1.44
   0  -1   9    2.90    1.57
   0  -1  -9    2.87    0.73
   0   1  -9    3.52    0.54
   0   1   9    4.65    1.07
   0   1  -9    4.99    1.37
   0   1   9    4.11    1.18
   0   1  -9    4.10    1.33
   0  -1   9    3.41    1.46
   0  -1  -9    3.92    1.35
   0   1   9    3.79    1.51
   0  -1  -9    2.33    1.21
   0   1  -9    3.69    0.42
   0  -1  10    0.81    0.75
   0   1  10    0.82    0.85
   0   1 -10    0.62    1.16
   0   1 -10    0.51    0.40
   0   1 -10    2.19    0.69
   0  -1  10    0.63    0.46
   0  -1  10    1.58    1.55
   0  -1  10    1.06    0.67
   0   1  10    2.00    1.08
   0  -1 -10    1.43    0.63
   0   1  10    1.95    1.48
   0  -1 -10    2.30    1.04
   0   1  10    0.83    1.46
   0  -1  10    0.79    1.34
   0  -1 -10    0.25    0.36
   0   1  11    2.26    1.01
   0  -1  11    3.38    0.76
   0  -1  11    1.67    1.35
   0  -1 -11    2.34    0.64
   0  -1 -11    2.00    0.73
   0   1  11    1.71    0.76
   0   1  11    1.44    1.29
   0   1 -11    2.48    0.65
   0  -1  11    1.61    0.81
   0   1 -11    0.98    1.01
   0   1 -12    5.20    0.69
   0   1  12    4.85    0.76
   0  -1 -12    4.04    0.64
   0  -1  12    4.84    0.83
   0  -1 -12    3.18    0.95
   0   1 -12    5.07    0.74
   0  -1  12    6.14    0.79
   0  -1  12    6.19    1.25
   0  -2   0   82.39    3.85
   0  -2   0   71.11    3.83
   0  -2   0   75.88    3.98
   0   2   0   79.41    3.88
   0   2  -1  484.98   24.73
   0   2   1  454.74   24.82
   0  -2   1  502.40   24.70
   0  -2   1  479.02   24.92
   0  -2  -1  515.43   24.88
   0   2   1  476.90   24.82
   0  -2  -1  495.42   24.70
   0   2  -1  494.04   24.70
   0  -2   2 1271.29   65.28
   0   2   2 1263.30   65.11
   0   2  -2 1290.77   65.03
   0  -2  -2 1363.51   65.27
   0   2  -2 1257.63   65.05
   0   2  -2 1397.11   65.24
   0   2   2 1279.33   65.02
   0   2  -2 1301.88   65.18
   0  -2   2 1314.74   65.03
   0  -2   3   96.46    5.68
   0  -2   3  107.34    5.38
   0  -2  -3  109.83    5.34
   0   2   3  103.68    5.37
   0   2  -3   96.47    5.35
   0   2  -3  111.95    5.68
   0  -2  -3  114.69    5.74
   0   2  -3   98.11    5.36
   0   2   3  102.88    5.47
   0  -2  -3  104.85    5.33
   0  -2  -3  113.42    5.67
   0  -2  -4  292.85   14.66
   0   2  -4  314.88   15.12
   0   2  -4  284.20   14.69
   0  -2  -4  301.53   15.16
   0  -2  -4  300.70   14.67
   0  -2  -4  308.82   15.11
   0   2   4  288.75   14.73
   0  -2   4  261.12   15.04
   0   2   4  303.60   14.93
   0  -2   4  307.04   14.74
   0   2  -4  261.36   14.66
   0   2  -4  286.05   14.99
   0   2  -5    4.59    1.00
   0  -2  -5    3.65    0.41
   0  -2  -5    3.77    1.09
   0  -2   5    3.77    0.51
   0   2   5    3.61    0.83
   0  -2   5    3.79    1.06
   0  -2  -5    4.01    1.02
   0   2   5    4.39    0.54
   0  -2   5    3.56    0.38
   0   2  -5    4.31    0.44
   0  -2   5    2.66    0.96
   0   2  -5    3.77    0.83
   0   2   5    3.66    0.77
   0   2   5    3.61    0.54
   0   2  -5    3.96    0.86
   0  -2  -5    4.12    0.86
   0  -2  -5    3.93    0.41
   0  -2  -6  127.17    6.55
   0   2  -6  116.78    6.98
   0   2  -6  138.49    7.30
   0   2   6  131.40    7.02
   0   2   6  135.25    7.11
   0   2   6  109.50    6.60
   0  -2   6  113.56    7.17
   0   2   6  127.47    6.62
   0  -2  -6  132.03    7.19
   0   2   6  121.07    6.68
   0  -2   6  129.64    7.22
   0   2  -6  124.82    6.52
   0   2  -6  123.25    6.47
   0  -2   6  130.41    6.71
   0  -2  -6  140.70    7.37
   0  -2  -6  129.48    6.50
   0   2  -6  120.71    7.10
   0   2  -7  115.52    6.87
   0  -2  -7  123.00    6.14
   0  -2   7  119.26    7.00
   0  -2   7  104.11    6.98
   0  -2  -7  108.31    6.29
   0   2   7  117.23    6.86
   0   2  -7  117.56    6.10
   0  -2   7  117.62    6.52
   0   2  -7  112.74    6.02
   0   2   7  111.70    6.10
   0  -2  -7  120.65    6.93
   0   2  -7  123.59    7.01
   0   2   7  116.48    6.76
   0   2  -7   99.60    6.54
   0   2  -7  111.24    6.42
   0  -2  -7  130.33    7.08
   0   2   7  121.02    6.72
   0  -2   7  121.29    6.37
   0  -2  -7  127.61    7.14
   0   2  -8   18.83    1.19
   0  -2  -8   19.13    1.53
   0  -2  -8   21.40    2.21
   0  -2   8   19.89    1.72
   0  -2  -8   18.83    1.33
   0   2  -8   17.79    2.07
   0   2   8   19.33    2.08
   0  -2   8   20.51    2.36
   0   2  -8   22.12    2.21
   0  -2   8   19.34    1.61
   0  -2  -8   17.21    1.24
   0   2  -8   19.14    1.30
   0  -2  -8   23.54    2.27
   0   2  -8   19.20    1.70
   0   2   8   19.54    1.96
   0  -2  -8   18.88    2.15
   0  -2   9    4.11    1.71
   0   2   9    7.71    1.64
   0  -2   9    4.99    1.05
   0  -2  -9    4.77    1.49
   0   2  -9    5.24    1.02
   0  -2  -9    5.00    0.58
   0   2   9    3.67    1.36
   0   2  -9    6.91    1.49
   0  -2  -9    3.95    1.27
   0  -2   9    5.46    1.74
   0   2  -9    5.13    0.61
   0  -2  -9    6.83    0.91
   0  -2  -9    4.33    1.26
   0   2   9    5.89    1.29
   0  -2  -9    6.23    0.70
   0  -2 -10    6.08    1.53
   0  -2 -10    8.35    1.04
   0  -2  10    7.44    1.27
   0  -2  10    4.97    1.72
   0  -2  10    7.65    1.24
   0  -2  10    8.09    1.13
   0   2  10    8.23    1.44
   0   2 -10    6.87    1.45
   0  -2 -10    8.55    1.69
   0  -2 -10    7.12    0.80
   0  -2  10    7.25    0.85
   0  -2  11    1.81    1.35
   0   2  11    3.40    0.81
   0  -2 -11    3.23    0.76
   0  -2  11    3.02    0.78
   0  -2  11    3.36    0.93
   0   2  11    3.65    1.06
   0  -2 -11    2.89    0.70
   0  -2  11    3.11    0.92
   0   2 -11    3.23    1.05
   0   2 -11    2.48    0.64
   0  -2 -12   10.10    1.34
   0  -2  12   10.19    1.47
   0   2  12   12.75    1.14
   0   2 -12   13.12    1.03
   0  -2 -12   13.17    1.04
   0  -2  12   11.65    1.19
   0   2  12   11.05    1.31
   0   2 -12   13.16    1.13
   0  -2  12   12.95    1.08
   0   3   0    0.10    0.22
   0   3   0    0.13    0.34
   0  -3   0    0.06    0.13
   0  -3   0    0.03    0.57
   0  -3   1  643.35   32.23
   0   3   1  597.60   32.38
   0  -3  -1  660.45   32.48
   0   3  -1  649.62   32.25
   0   3  -1  656.54   32.30
   0   3   1  618.01   32.40
   0  -3  -2    0.43    0.20
   0  -3  -2    1.09    0.70
   0   3  -2    0.14    0.30
   0   3  -2    0.19    0.23
   0   3   2    0.40    0.46
   0  -3   2    0.34    0.23
   0   3   2    0.13    0.35
   0  -3   2    0.90    0.99
   0  -3   3  242.33   11.69
   0  -3   3  216.79   12.07
   0   3  -3  226.02   11.69
   0   3   3  232.98   11.79
   0  -3  -3  240.38   11.65
   0  -3  -3  227.08   12.03
   0   3  -3  235.45   11.67
   0   3   3  214.77   11.84
   0   3   3  210.21   11.66
   0  -3  -3  234.08   11.64
   0   3  -4  224.66   11.90
   0   3   4  243.97   12.06
   0  -3  -4  229.80   11.87
   0  -3  -4  252.22   12.43
   0   3  -4  215.41   12.16
   0   3  -4  248.59   12.34
   0  -3  -4  254.27   12.37
   0  -3   4  209.88   12.36
   0  -3   4  241.53   11.95
   0   3   4  221.62   12.08
   0  -3  -4  241.62   11.89
   0   3  -5    9.47    1.22
   0  -3  -5   10.11    0.66
   0  -3   5    7.61    0.55
   0   3  -5    8.58    0.66
   0  -3  -5    9.66    1.12
   0   3   5    8.91    0.87
   0   3  -5    9.83    1.11
   0  -3  -5   10.57    1.27
   0   3   5   11.29    1.10
   0  -3  -5    8.91    1.35
   0  -3   5    8.26    0.76
   0  -3   5    9.24    1.38
   0  -3   5    7.30    1.31
   0  -3  -5   10.04    0.68
   0   3  -5    7.45    1.03
   0   3  -5    7.45    0.62
   0  -3  -6   95.09    5.01
   0   3   6   94.74    5.10
   0  -3   6   97.90    5.77
   0   3  -6   92.49    4.93
   0  -3   6   87.70    5.75
   0   3  -6   99.12    5.00
   0  -3  -6  108.89    5.89
   0   3   6  101.81    5.57
   0  -3  -6   96.17    5.70
   0  -3   6  105.70    5.20
   0   3   6   79.72    5.06
   0  -3  -6   95.33    4.97
   0   3  -6   82.01    5.32
   0   3  -6   92.98    5.55
   0   3  -6  102.85    5.75
   0  -3   7    1.84    0.66
   0  -3  -7    2.46    1.11
   0   3  -7    0.90    0.65
   0  -3   7    1.54    0.59
   0   3   7    1.43    0.37
   0  -3  -7    1.87    1.08
   0  -3   7    2.41    1.26
   0   3  -7    1.73    0.68
   0  -3   7    1.62    1.31
   0  -3  -7    1.38    0.58
   0   3   7    1.89    0.91
   0   3  -7    1.99    0.98
   0   3   7    2.79    1.00
   0   3  -7    1.86    0.30
   0  -3  -7    1.25    0.38
   0  -3  -7    2.42    1.06
   0   3  -7    1.87    0.39
   0   3   7    2.06    0.68
   0  -3   8    9.03    0.87
   0  -3  -8    9.27    1.63
   0  -3   8    6.95    1.74
   0   3  -8    7.76    0.63
   0  -3  -8    9.09    0.99
   0   3  -8    9.85    1.19
   0  -3   8   10.47    1.19
   0   3  -8    7.99    1.43
   0   3   8   10.27    1.39
   0  -3  -8    7.26    1.51
   0   3  -8    7.85    0.74
   0  -3  -8    7.49    0.78
   0  -3  -8   10.28    1.66
   0  -3  -8    8.62    0.76
   0  -3   8    7.75    1.03
   0   3   8    9.07    1.20
   0   3   9    4.14    1.33
   0  -3   9    2.88    1.58
   0   3   9    4.64    1.03
   0  -3   9    0.79    1.41
   0  -3   9    3.99    0.97
   0   3  -9    3.10    1.22
   0  -3  -9    6.68    1.53
   0  -3  -9    3.67    0.59
   0  -3  -9    4.42    0.83
   0   3  -9    4.74    0.95
   0   3   9    5.25    1.25
   0  -3  -9    5.00    1.31
   0  -3  -9    2.58    0.46
   0  -3  -9    2.96    1.41
   0  -3  10    0.63    0.82
   0  -3  10   -0.18    1.53
   0   3 -10   -0.18    0.79
   0   3 -10    0.90    0.90
   0  -3 -10    0.77    0.77
   0  -3  10    0.80    0.83
   0  -3 -10    0.16    1.15
   0  -3 -10   -0.22    0.60
   0   3  10    1.31    1.06
   0   3  10   -0.59    0.80
   0   3 -11    0.86    0.52
   0  -3 -11    0.55    1.08
   0   3  11    1.90    1.04
   0  -3  11    0.30    1.25
   0   3  11    1.58    0.71
   0  -3 -11    0.79    0.60
   0   3  11    0.77    1.16
   0  -3  11    1.03    0.73
   0  -3  12    4.94    1.10
   0   3  12    3.28    0.88
   0   3  12    2.33    0.61
   0   3 -12    2.25    0.56
   0   3 -12    2.91    0.52
   0  -3 -12    3.12    0.55
   0  -3  12    2.88    0.74
   0   4   0 1159.04   57.93
   0   4   0 1171.36   58.02
   0  -4   0 1106.44   58.13
   0  -4  -1  113.52    6.20
   0   4  -1  120.34    6.00
   0  -4  -1  121.39    5.91
   0   4  -1  117.26    5.93
   0  -4   1  113.63    5.87
   0   4   1  109.46    6.08
   0   4   1  106.53    6.07
   0  -4  -2  236.15   12.24
   0   4   2  228.58   12.10
   0  -4  -2  243.73   11.88
   0   4   2  206.21   12.16
   0   4   2  232.29   12.00
   0  -4   2  236.26   11.87
   0  -4  -2  230.90   11.88
   0   4  -2  239.18   11.93
   0  -4   3  375.63   20.88
   0  -4  -3  422.03   20.35
   0   4   3  413.06   20.52
   0  -4  -3  414.63   20.78
   0   4   3  375.05   20.59
   0  -4   3  417.26   20.37
   0   4  -3  406.74   20.39
   0   4  -3  386.36   20.40
   0  -4  -3  389.33   20.35
   0   4   4  192.11    9.83
   0   4  -4  195.54    9.68
   0   4  -4  167.68    9.65
   0  -4  -4  205.61   10.24
   0   4   4  186.77    9.89
   0   4  -4  195.08    9.68
   0  -4  -4  200.30    9.66
   0  -4  -4  200.07    9.65
   0  -4  -4  192.60   10.02
   0  -4  -4  205.90   10.18
   0  -4   4  172.24   10.24
   0   4  -4  153.61    9.85
   0  -4   4  180.40   10.13
   0   4  -5    2.02    0.69
   0   4  -5    2.77    0.38
   0  -4   5    2.92    1.12
   0  -4   5    2.64    1.18
   0  -4  -5    1.80    0.76
   0   4   5    1.59    0.50
   0   4  -5    1.85    0.77
   0  -4  -5    3.68    1.03
   0  -4  -5    2.44    0.37
   0  -4  -5    2.28    0.94
   0   4  -5    2.85    0.36
   0  -4   5    2.76    0.48
   0  -4  -5    2.95    0.41
   0   4  -6   25.08    2.08
   0   4  -6   28.34    1.61
   0  -4  -6   30.32    2.46
   0  -4  -6   29.86    2.39
   0   4  -6   18.57    1.78
   0  -4  -6   28.72    1.61
   0  -4  -6   27.86    2.23
   0  -4   6   28.20    2.44
   0   4  -6   26.65    1.54
   0   4   6   23.16    1.69
   0  -4   6   28.99    1.80
   0   4   6   28.38    1.77
   0  -4  -6   27.52    1.64
   0   4   6   28.12    2.12
   0   4   6   23.39    1.78
   0  -4   6   24.43    1.93
   0  -4   7    1.27    0.67
   0  -4  -7    0.96    0.48
   0  -4  -7    0.95    1.14
   0   4  -7    1.48    0.29
   0   4   7    1.11    0.63
   0   4  -7    1.02    0.33
   0  -4   7    1.15    0.41
   0  -4  -7    0.77    0.33
   0   4   7    1.74    0.95
   0  -4  -7    1.11    1.00
   0  -4   7    1.27    1.39
   0   4  -7    0.75    0.85
   0  -4   7    1.70    1.28
   0  -4  -7    0.99    0.38
   0  -4   7    1.53    0.54
   0   4   7    1.00    0.39
   0   4  -7    0.75    0.65
   0  -4  -7    1.93    1.19
   0   4   7    0.84    0.81
   0  -4  -8   -0.31    1.17
   0   4   8    0.65    0.75
   0  -4   8    1.10    0.76
   0  -4  -8    0.48    1.15
   0  -4   8    0.32    0.36
   0   4  -8    0.09    0.67
   0  -4  -8    0.60    1.15
   0   4  -8    0.53    0.23
   0  -4  -8    1.11    0.59
   0  -4   8    1.16    0.59
   0  -4   8    1.17    1.42
   0   4  -8    0.37    0.94
   0   4   8    1.60    0.97
   0  -4  -8    1.19    0.42
   0   4  -9   -0.13    0.95
   0  -4  -9    0.15    0.59
   0   4  -9    0.53    0.35
   0  -4  -9    0.68    0.37
   0   4   9    0.40    0.99
   0  -4   9    0.55    1.67
   0  -4  -9    0.17    1.35
   0  -4  -9    1.00    1.02
   0  -4  -9    0.33    1.16
   0   4   9    0.33    1.17
   0  -4   9    0.73    0.62
   0   4  -9    0.09    0.77
   0  -4  -9   -0.44    0.82
   0   4   9    1.38    1.25
   0  -4   9    1.60    0.78
   0  -4  -9    1.38    0.48
   0  -4   9    2.80    1.54
   0  -4 -10    1.93    1.30
   0   4  10    2.55    1.30
   0  -4  10    0.97    0.84
   0  -4  10    1.92    1.55
   0  -4  10    1.06    0.64
   0   4  10    2.11    1.17
   0  -4 -10    0.43    0.70
   0  -4  10    0.58    0.77
   0  -4 -10    0.66    0.71
   0   4  11    0.21    0.61
   0  -4 -11    0.77    0.57
   0   4 -11    0.44    0.48
   0  -4 -11   -0.80    1.09
   0  -4  11    0.75    0.40
   0  -4  11    0.14    1.20
   0   4  11   -0.11    0.89
   0  -4  11    1.49    0.78
   0   4  12   10.73    1.25
   0  -4 -12   10.37    0.90
   0   4  12   11.09    0.97
   0   4 -12   10.77    0.95
   0  -4 -12    8.39    1.22
   0  -4  12    9.03    1.04
   0  -4  12    9.94    1.39
   0  -5   0   -0.02    0.13
   0   5   0   -0.12    0.34
   0  -5   0   -0.10    0.81
   0   5   0    0.08    0.29
   0   5   0    0.03    0.48
   0   5   1  866.74   43.11
   0  -5  -1  865.07   43.03
   0   5   1  811.14   43.21
   0  -5  -1  843.31   43.36
   0   5  -1  882.70   43.13
   0   5   1  821.94   43.22
   0  -5   1  823.32   43.35
   0   5  -1  869.88   43.05
   0  -5   2   29.27    1.59
   0   5   2   29.11    1.77
   0   5  -2   30.75    1.71
   0   5   2   26.64    1.97
   0   5   2   29.84    1.90
   0  -5  -2   28.13    1.63
   0  -5  -2   30.78    2.11
   0   5   3  210.75   11.22
   0  -5  -3  223.95   10.96
   0  -5  -3  221.22   11.44
   0   5  -3  212.40   11.02
   0   5   3  218.58   11.11
   0  -5   3  216.54   10.95
   0  -5  -3  208.87   10.95
   0   5  -3  208.38   11.00
   0  -5   4    3.23    1.31
   0  -5  -4    2.68    1.00
   0   5  -4    3.13    0.41
   0   5  -4    3.21    0.43
   0  -5   4    3.02    0.42
   0   5   4    3.39    0.58
   0   5   4    2.59    0.62
   0  -5  -4    2.54    0.38
   0  -5  -4    2.21    0.73
   0  -5   4    2.66    1.00
   0  -5  -4    3.20    0.38
   0  -5  -4    2.41    0.88
   0  -5  -5   69.61    3.67
   0  -5   5   66.92    4.53
   0   5   5   61.33    3.86
   0   5  -5   68.35    3.65
   0  -5  -5   68.09    4.15
   0  -5  -5   77.13    4.39
   0   5  -5   64.38    3.66
   0   5   5   64.62    3.83
   0  -5   5   67.50    4.38
   0  -5  -5   69.33    3.70
   0   5   5   72.09    3.87
   0  -5   5   71.18    3.78
   0  -5  -5   72.91    4.39
   0  -5   5   68.31    4.16
   0   5   6   59.70    3.46
   0  -5  -6   57.29    3.05
   0  -5  -6   64.29    3.94
   0   5   6   59.77    3.23
   0  -5   6   54.43    3.90
   0  -5   6   46.31    3.92
   0   5   6   50.04    3.22
   0  -5  -6   51.67    3.63
   0  -5  -6   52.72    3.06
   0  -5   6   52.79    3.50
   0  -5  -6   58.63    3.86
   0   5   6   61.75    3.61
   0  -5   6   58.98    3.22
   0   5  -6   53.09    2.95
   0   5  -6   50.90    3.46
   0   5   6   48.52    3.12
   0   5   7    0.89    0.94
   0   5  -7    0.81    0.24
   0  -5   7    0.48    0.50
   0  -5   7   -0.15    1.22
   0  -5  -7    0.15    0.59
   0   5   7    0.65    0.68
   0  -5   7    0.62    0.36
   0  -5  -7    0.57    0.99
   0   5  -7    0.40    0.71
   0  -5  -7    0.53    0.36
   0  -5  -7    0.06    0.51
   0   5   7   -0.09    0.82
   0   5   7    0.62    0.40
   0   5  -7    0.48    0.63
   0   5   7    1.21    0.93
   0  -5   7    0.16    0.63
   0  -5  -7    1.40    1.04
   0  -5  -7    0.65    0.40
   0  -5   7    0.56    0.36
   0  -5  -8    2.06    1.03
   0   5   8    0.93    0.37
   0   5   8    1.53    1.05
   0  -5  -8    1.20    1.11
   0  -5  -8   -0.17    1.13
   0   5  -8    1.22    0.86
   0   5   8    0.81    1.01
   0  -5  -8    0.74    0.71
   0   5  -8    1.68    0.86
   0  -5   8    1.31    0.83
   0  -5   8    1.26    0.45
   0  -5   8    1.55    1.50
   0  -5  -8    0.43    0.55
   0  -5   8    1.39    0.61
   0  -5  -8    1.16    0.44
   0   5  -8    0.86    0.33
   0  -5   8    1.75    0.61
   0  -5  -9   83.43    5.30
   0  -5  -9   87.55    6.00
   0   5  -9   99.05    5.44
   0   5   9   87.85    5.92
   0  -5   9   90.02    5.49
   0  -5   9   93.65    5.19
   0  -5  -9   96.55    6.12
   0   5   9   98.55    5.85
   0  -5  -9   92.71    6.05
   0   5   9  100.07    5.84
   0  -5   9   87.64    6.15
   0  -5  -9   85.11    4.93
   0  -5  -9   88.87    5.21
   0   5  -9   86.15    4.87
   0  -5   9   91.80    5.00
   0  -5  10  219.96   12.96
   0  -5  10  227.74   12.02
   0  -5 -10  218.33   12.05
   0  -5 -10  217.16   12.80
   0   5  10  216.92   12.57
   0   5 -10  242.24   12.26
   0  -5  10  231.31   12.36
   0   5  10  246.58   12.76
   0  -5 -11   36.40    2.37
   0   5  11   40.16    2.50
   0  -5  11   37.21    3.04
   0   5 -11   37.85    2.33
   0   5  11   42.40    2.96
   0  -5  11   37.16    2.56
   0  -5 -11   31.45    2.81
   0  -5  11   33.70    2.18
   0   5  12   17.22    1.54
   0  -5 -12   13.66    1.43
   0   5 -12   16.03    1.18
   0  -5  12   17.10    1.57
   0  -5 -12   15.90    1.17
   0  -5  12   15.44    1.29
   0   5  12   16.72    1.22
   0  -6   0  102.46    5.36
   0   6   0  104.91    5.73
   0   6   0  120.57    5.58
   0  -6   0  114.45    5.96
   0   6   0  106.71    5.67
   0  -6   1   29.77    2.02
   0  -6  -1   31.82    1.57
   0   6   1   32.36    1.68
   0   6  -1   30.68    1.54
   0   6   1   31.49    1.83
   0   6   1   27.01    1.81
   0   6  -1   31.77    1.65
   0  -6  -1   27.62    2.04
   0  -6   1   28.80    1.40
   0   6   2   22.54    1.58
   0  -6  -2   24.96    1.46
   0   6   2   23.19    1.85
   0   6  -2   25.72    1.47
   0  -6  -2   27.30    2.01
   0   6  -2   26.31    1.56
   0   6   2   25.81    1.71
   0   6  -3  157.76    8.47
   0  -6  -3  170.55    8.43
   0  -6  -3  162.08    8.92
   0   6   3  162.56    8.68
   0   6   3  161.45    8.57
   0  -6   4    1.14    0.98
   0   6   4    0.11    0.46
   0  -6  -4    0.63    0.30
   0  -6  -4    0.07    0.68
   0   6   4    0.61    0.41
   0  -6  -4    0.26    0.82
   0  -6   4    0.96    0.35
   0   6   4    0.49    0.41
   0  -6  -4    0.54    0.88
   0  -6   4    1.43    0.82
   0  -6   5   77.70    5.01
   0   6   5   74.87    4.45
   0  -6  -5   80.59    4.99
   0   6   5   79.84    4.49
   0  -6  -5   89.27    5.07
   0   6   5   72.89    4.48
   0  -6   5   84.76    4.39
   0  -6   5   78.45    4.85
   0  -6  -5   83.84    4.31
   0   6  -5   79.53    4.27
   0  -6  -5   77.98    4.79
   0  -6   6    3.40    1.27
   0  -6   6    2.40    0.49
   0   6   6    3.17    0.95
   0   6  -6    2.39    0.41
   0  -6   6    1.78    0.86
   0  -6  -6    2.45    0.43
   0   6   6    4.13    0.89
   0  -6  -6    1.82    0.94
   0  -6   6    2.32    0.54
   0   6  -6    2.22    0.35
   0  -6  -6    3.16    1.18
   0   6   6    3.58    0.72
   0  -6   6    2.13    0.70
   0  -6  -6    2.27    0.68
   0  -6  -6    2.52    0.48
   0   6   6    3.94    0.63
   0  -6  -6    3.79    1.14
   0  -6  -6    3.01    0.60
   0   6   6    2.69    0.50
   0   6  -6    2.85    0.75
   0   6   6    2.09    0.84
   0   6  -7    5.53    0.56
   0   6   7    5.09    0.71
   0  -6  -7    3.30    0.84
   0   6   7    7.41    1.25
   0  -6   7    5.45    0.99
   0  -6   7    7.15    0.84
   0   6   7    5.51    1.18
   0   6  -7    5.20    0.46
   0  -6   7    5.23    1.07
   0  -6   7    3.69    0.63
   0   6  -7    4.73    0.91
   0  -6   7    4.79    1.55
   0  -6   7    4.85    0.72
   0  -6  -7    3.24    1.24
   0  -6  -7    3.54    0.79
   0  -6  -7    3.41    1.20
   0   6   7    4.19    0.98
   0  -6  -7    4.70    0.62
   0  -6   8    2.07    1.54
   0   6  -8    1.56    0.76
   0  -6  -8    1.94    1.17
   0  -6   8    1.61    0.78
   0   6  -8    0.99    0.35
   0   6   8    1.05    0.98
   0  -6   8    1.13    0.48
   0  -6  -8    0.45    1.10
   0  -6  -8    0.89    0.62
   0   6   8    1.99    0.47
   0  -6   8    1.71    0.60
   0  -6   8    1.25    0.60
   0  -6  -8    2.54    1.23
   0  -6   8    1.19    0.46
   0   6   8    0.88    0.96
   0  -6  -9   94.52    5.38
   0   6  -9  102.05    5.83
   0  -6  -9  101.10    5.67
   0  -6  -9   89.34    6.40
   0  -6   9  102.01    5.88
   0  -6   9  107.02    5.46
   0  -6   9  111.07    6.72
   0   6  -9   92.65    5.27
   0  -6  -9  100.43    6.43
   0  -6  -9   92.76    6.37
   0   6   9  115.65    6.39
   0   6   9   96.01    6.07
   0   6   9   94.57    6.37
   0  -6   9   96.31    5.52
   0  -6 -10    2.07    0.73
   0  -6  10    2.70    0.85
   0  -6  10    1.43    1.40
   0   6 -10    2.75    0.82
   0   6  10    2.07    1.13
   0  -6 -10    2.24    1.19
   0  -6  11   14.49    1.10
   0  -6 -11   13.79    1.22
   0  -6 -11   11.62    1.63
   0   6  11   14.98    1.68
   0   6 -11   13.33    1.16
   0  -6  11   14.65    1.43
   0   6 -11   16.19    1.37
   0  -6  11   18.65    1.94
   0   6  12   43.09    2.72
   0   6 -12   41.72    2.37
   0  -6 -12   42.33    2.35
   0  -6  12   34.88    2.45
   0   7   0    0.09    0.32
   0  -7   0    0.29    0.88
   0   7   0    0.20    0.39
   0  -7   0    0.16    0.11
   0  -7   0   -0.17    0.94
   0   7   0   -0.05    0.56
   0   7   1  123.72    6.97
   0   7   1  140.75    6.68
   0  -7   1  121.77    7.15
   0   7  -1  137.12    6.82
   0  -7  -1  122.19    7.24
   0  -7   1  124.92    7.23
   0  -7  -1  126.07    7.15
   0   7   1  131.56    6.78
   0   7   1  125.23    6.88
   0   7  -1  131.95    6.96
   0  -7   1  123.93    6.55
   0   7  -1  129.81    6.71
   0   7   2   22.22    1.40
   0   7  -2   19.71    1.26
   0  -7   2   21.35    1.83
   0  -7   2   15.98    1.75
   0  -7  -2   21.03    1.27
   0   7   2   20.74    1.47
   0   7  -2   19.75    1.34
   0   7   2   19.02    1.68
   0  -7  -2   23.16    1.89
   0  -7   2   19.17    1.15
   0   7   2   19.49    1.25
   0   7  -3 1968.39   93.66
   0  -7  -3 1889.25   94.16
   0   7   3 1734.56   93.84
   0  -7  -3 1833.01   94.12
   0  -7   3 1820.99   93.52
   0  -7  -3 1949.21   93.60
   0   7  -3 1767.29   93.63
   0   7   3 1919.37   93.74
   0  -7   3 1834.70   94.19
   0  -7  -4  213.84   11.37
   0  -7  -4  221.21   11.34
   0   7   4  197.96   10.76
   0   7  -4  202.42   10.69
   0  -7  -4  210.14   11.09
   0  -7  -4  214.92   10.71
   0   7   4  198.53   10.92
   0  -7  -4  211.86   11.22
   0   7   4  216.22   10.88
   0  -7   4  196.18   11.25
   0   7   5  102.43    6.12
   0  -7  -5  110.54    6.65
   0  -7   5  119.72    6.80
   0   7  -5  109.27    5.92
   0  -7   5  110.76    6.66
   0  -7  -5  115.73    5.98
   0   7  -5  110.68    5.93
   0   7   5  120.78    6.19
   0  -7  -5  112.67    6.49
   0   7   5  108.21    6.12
   0  -7  -5  122.05    6.79
   0   7  -5  114.39    6.02
   0  -7  -5  121.58    6.76
   0   7   6  121.07    7.18
   0   7  -6  114.21    7.44
   0   7   6  154.55    7.52
   0  -7  -6  138.97    8.04
   0   7  -6  133.80    7.00
   0  -7  -6  145.18    7.17
   0  -7  -6  133.31    7.98
   0  -7   6  131.36    7.47
   0  -7   6  138.10    7.89
   0   7   6  131.32    7.35
   0  -7   6  152.23    7.33
   0  -7  -6  133.05    7.33
   0  -7   6  131.60    7.22
   0  -7   6  136.13    8.05
   0   7   6  149.90    7.85
   0   7  -6  133.79    7.05
   0  -7   6  127.51    7.24
   0  -7  -6  132.20    7.78
   0  -7  -7  105.16    6.53
   0   7   7  102.75    5.85
   0  -7  -7  101.38    5.71
   0   7   7  115.91    6.51
   0   7   7  101.97    6.11
   0  -7   7  106.53    5.83
   0  -7  -7  103.38    5.94
   0  -7  -7  110.77    6.69
   0  -7   7  105.89    5.90
   0  -7  -7  106.98    6.72
   0  -7   7  105.55    6.74
   0   7  -7  102.15    6.11
   0  -7   7  102.79    6.38
   0   7   7  118.26    6.48
   0  -7   7  100.83    6.07
   0   7  -7  108.30    5.62
   0  -7   8    6.60    0.80
   0  -7   8    6.16    0.81
   0  -7  -8    7.19    1.53
   0   7  -8    6.07    0.62
   0  -7   8    7.79    1.13
   0  -7  -8    7.24    1.00
   0  -7  -8    5.64    1.48
   0  -7   8    5.75    0.90
   0   7   8    5.21    1.32
   0   7   8    6.89    0.80
   0  -7   8    7.78    0.82
   0  -7  -8    5.46    1.45
   0   7   8    6.86    1.41
   0  -7   8    9.73    1.94
   0   7  -8    6.32    1.12
   0  -7  -8    6.27    0.74
   0   7   8    6.89    1.30
   0  -7  -9   31.09    2.14
   0  -7  -9   25.99    2.69
   0   7   9   32.16    2.74
   0  -7   9   25.94    2.84
   0  -7  -9   24.56    1.82
   0  -7  -9   26.77    2.68
   0   7  -9   28.50    2.28
   0  -7   9   27.24    2.23
   0  -7   9   30.52    1.90
   0  -7  10    0.14    1.34
   0   7  10   -0.13    1.12
   0   7 -10    1.11    0.70
   0  -7 -10    0.56    1.13
   0  -7  10    2.20    0.84
   0  -7 -10    0.26    0.58
   0   7  10    0.46    0.58
   0   7 -11  298.27   14.52
   0  -7  11  263.85   14.87
   0  -7  11  259.23   14.24
   0   7  11  319.61   15.01
   0   7  11  288.93   14.40
   0  -7  11  287.80   14.58
   0  -7 -11  274.57   14.39
   0  -7 -11  249.60   14.83
   0   8   0    0.31    0.59
   0   8   0    1.02    0.35
   0   8   0    0.54    0.43
   0  -8   0    0.30    0.98
   0  -8   0    0.17    0.90
   0   8   0    1.01    0.40
   0  -8   0    0.42    0.09
   0   8   1    9.91    1.03
   0  -8   1   10.32    1.41
   0   8  -1   12.11    1.17
   0   8   1   10.03    0.92
   0   8   1   12.67    1.21
   0  -8  -1   14.14    1.47
   0  -8   1   10.01    1.47
   0   8   1   12.21    0.85
   0   8  -1   12.34    0.97
   0  -8  -1    9.11    1.42
   0  -8   1   10.91    0.67
   0  -8   2    3.05    0.84
   0  -8  -2    2.80    0.63
   0   8  -2    3.20    0.51
   0   8   2    2.66    0.47
   0  -8   2    3.42    1.08
   0  -8   2    3.19    0.98
   0  -8  -2    2.16    0.93
   0  -8   2    2.98    0.33
   0   8  -2    3.98    0.47
   0   8   2    2.77    0.55
   0   8   2    2.26    0.62
   0   8   2    2.29    0.86
   0   8  -3   18.65    1.26
   0  -8  -3   16.40    1.73
   0   8  -3   17.66    1.27
   0   8   3   16.50    1.41
   0  -8  -3   19.12    1.77
   0   8   3   16.49    1.30
   0  -8  -3   17.51    1.20
   0  -8  -3   14.92    1.38
   0  -8   3   21.21    1.99
   0  -8   3   15.24    1.84
   0  -8   3   18.71    1.12
   0  -8   3   15.69    1.67
   0   8  -4    3.15    0.47
   0  -8  -4    3.77    0.52
   0   8   4    2.81    0.56
   0   8   4    2.76    0.59
   0  -8  -4    1.63    0.97
   0  -8  -4    2.37    1.06
   0  -8  -4    2.07    0.85
   0   8   4    3.64    0.59
   0  -8   4    2.42    0.44
   0  -8   5  117.62    6.11
   0  -8  -5  115.34    6.27
   0  -8   5  107.41    6.19
   0  -8   5  115.48    6.83
   0  -8  -5  123.85    6.89
   0   8  -5  104.15    6.98
   0  -8  -5  112.86    6.85
   0  -8   5  113.74    6.88
   0   8  -5  107.80    6.00
   0  -8  -5  117.85    6.87
   0  -8  -5  115.53    6.59
   0   8   5  111.83    6.24
   0   8   5  112.60    6.24
   0  -8  -5  117.72    6.11
   0   8  -5  117.00    6.13
   0   8  -5  107.24    5.98
   0   8   5  125.49    6.31
   0  -8   6   -0.08    0.66
   0  -8  -6    0.52    0.42
   0  -8   6    0.14    1.29
   0  -8  -6    0.29    1.10
   0  -8  -6    0.75    0.55
   0   8  -6    0.53    0.68
   0   8  -6    0.53    0.29
   0  -8   6   -0.28    1.00
   0   8   6   -0.36    0.91
   0  -8   6    0.21    0.47
   0   8   6    0.72    0.59
   0   8   6    1.02    0.73
   0  -8  -6    0.85    1.01
   0  -8  -6    1.88    0.93
   0  -8   6    0.82    0.46
   0   8   6    0.89    0.38
   0   8   7   10.22    1.15
   0  -8   7   10.19    1.83
   0  -8  -7    8.94    1.69
   0  -8   7   10.53    1.05
   0   8  -7   12.54    1.39
   0  -8  -7   10.28    1.63
   0  -8   7   11.59    1.31
   0  -8   7    9.63    1.52
   0   8  -7   10.51    0.85
   0   8   7   10.29    1.07
   0  -8  -7    9.79    1.69
   0   8   7   11.78    1.64
   0  -8   7   10.78    1.11
   0  -8  -7   10.99    0.98
   0   8   7    9.51    1.31
   0  -8  -7   10.85    1.21
   0   8   8    2.28    1.17
   0  -8  -8   -0.15    1.12
   0  -8   8    0.47    0.71
   0  -8  -8    0.48    1.08
   0  -8  -8    0.87    1.19
   0  -8   8    0.12    0.42
   0   8   8    1.28    1.06
   0   8  -8   -0.38    0.84
   0  -8   8    1.47    1.39
   0   8  -8   -0.10    0.29
   0  -8   8   -0.07    0.58
   0  -8   8   -0.12    0.42
   0   8   8    0.19    0.43
   0  -8  -8   -0.08    0.65
   0  -8  -8    0.33    0.37
   0   8   8   -0.10    0.90
   0  -8   9   68.61    3.95
   0  -8   9   67.89    4.33
   0  -8  -9   70.63    4.20
   0  -8  -9   65.97    4.76
   0   8   9   72.62    4.14
   0   8   9   72.93    4.84
   0  -8   9   62.22    4.82
   0   8  -9   75.15    4.38
   0  -8  10    1.55    0.68
   0   8  10    2.52    1.15
   0  -8  10    0.38    1.13
   0  -8 -10    2.16    1.11
   0  -8 -10    2.00    0.63
   0   8 -10    2.30    0.76
   0   8  10    2.04    0.60
   0  -8  11   54.40    3.48
   0   8  11   54.00    2.99
   0  -8 -11   42.66    3.36
   0  -8  11   48.46    2.93
   0  -8 -11   51.95    3.07
   0   8 -11   60.80    3.19
   0   8  11   55.85    3.56
   0  -8  11   56.93    3.23
   0   9   0    0.11    0.31
   0   9   0   -0.26    0.46
   0   9   0   -0.45    0.66
   0   9   0    0.50    0.40
   0  -9   0   -0.40    0.94
   0  -9   0    0.96    1.05
   0  -9   1   65.36    3.60
   0   9   1   72.43    4.08
   0   9  -1   67.47    4.31
   0   9  -1   77.77    4.27
   0   9  -1   80.34    4.03
   0   9   1   67.66    4.25
   0   9   1   74.37    3.95
   0  -9   1   70.68    4.47
   0   9   1   74.50    3.82
   0  -9   1   69.71    4.66
   0  -9  -1   71.14    4.46
   0  -9  -1   70.99    4.61
   0   9   2   10.56    0.95
   0  -9   2   10.78    1.24
   0  -9  -2    8.51    1.38
   0   9  -2   12.02    0.92
   0   9  -2   11.03    0.98
   0   9  -2    9.09    1.16
   0  -9  -2    9.83    1.05
   0  -9   2   10.75    0.71
   0   9   2    9.76    1.02
   0   9  -2   10.55    1.30
   0   9   2   10.96    0.88
   0  -9   2   10.63    1.54
   0  -9   2   10.30    1.61
   0  -9   3   62.58    4.07
   0  -9  -3   58.52    3.61
   0  -9  -3   58.64    3.96
   0   9   3   59.28    3.38
   0   9   3   58.92    3.48
   0  -9  -3   59.22    4.00
   0  -9   3   63.36    4.27
   0   9  -3   58.76    3.37
   0   9   3   59.33    3.53
   0   9  -3   63.28    3.44
   0  -9   3   57.40    3.21
   0  -9   3   58.10    3.78
   0   9   4  108.77    5.89
   0  -9   4  102.18    6.47
   0   9   4  102.18    5.78
   0  -9   4  100.48    6.24
   0   9   4  104.81    5.89
   0  -9  -4  113.85    6.39
   0  -9   4  106.49    5.63
   0  -9  -4  102.13    5.70
   0  -9  -4  109.33    6.44
   0   9   4  120.77    6.40
   0  -9  -4  102.85    5.87
   0   9  -4  103.70    5.65
   0  -9   4  107.43    5.85
   0  -9  -4  107.36    6.10
   0  -9  -4  109.53    6.45
   0  -9   5   16.44    1.28
   0   9  -5   15.19    2.15
   0  -9   5   13.46    1.97
   0  -9  -5   16.16    1.88
   0  -9  -5   13.94    1.36
   0  -9   5   17.82    2.03
   0   9   5   16.29    1.33
   0  -9   5   15.13    1.17
   0   9  -5   15.52    1.07
   0  -9  -5   13.57    1.81
   0  -9  -5   13.94    1.79
   0   9   5   15.48    1.29
   0  -9   5   15.34    1.30
   0  -9  -5   14.42    1.19
   0   9  -5   16.06    1.23
   0   9   5   15.28    1.35
   0  -9  -6   14.60    1.18
   0  -9  -6   15.03    1.35
   0  -9   6   13.24    1.94
   0  -9  -6   12.83    1.64
   0   9   6   15.98    1.81
   0  -9   6   14.42    1.41
   0   9   6   14.62    1.38
   0   9  -6   14.84    1.48
   0  -9   6   13.74    1.93
   0   9  -6   14.07    1.00
   0  -9  -6   10.17    1.72
   0  -9   6   11.77    1.83
   0   9   6   12.44    1.12
   0   9   6   16.32    1.42
   0  -9  -6   17.22    1.94
   0  -9   6   12.98    1.16
   0  -9   6   14.65    1.23
   0   9   7    0.24    0.66
   0  -9  -7   -0.46    0.71
   0  -9  -7   -0.41    1.11
   0  -9   7    0.45    1.24
   0  -9   7    0.34    1.17
   0  -9   7   -0.06    0.46
   0  -9   7   -0.32    0.49
   0   9  -7   -0.20    0.74
   0  -9   7   -0.15    1.01
   0   9   7    0.29    0.45
   0  -9   7    0.63    0.75
   0  -9  -7    0.63    0.97
   0  -9  -7    0.06    0.42
   0   9   7   -0.50    0.73
   0  -9  -7   -0.34    1.08
   0   9  -7    0.23    0.29
   0  -9   8    0.46    0.42
   0   9   8    1.10    0.86
   0  -9   8    0.88    0.45
   0   9   8    0.13    0.43
   0  -9  -8   -0.15    1.06
   0  -9  -8    1.72    1.11
   0  -9   8    0.09    0.73
   0   9   8    0.06    0.48
   0  -9   8    0.17    1.02
   0  -9  -8    0.23    0.62
   0   9  -8    0.19    0.76
   0   9   8    0.28    1.08
   0  -9   9    6.67    1.03
   0   9   9    4.39    1.35
   0  -9  -9    6.52    0.96
   0  -9  -9    6.74    1.37
   0   9   9    6.29    0.81
   0  -9   9    6.35    0.72
   0  -9   9    7.26    1.50
   0   9  -9    7.59    1.13
   0   9  10   17.67    1.83
   0  -9  10   15.73    1.38
   0  -9 -10   13.59    1.66
   0  -9 -10   12.77    1.23
   0   9 -10   15.90    1.40
   0   9  10   14.68    1.14
   0  -9  10   13.24    1.64
   0  -9 -11   50.42    3.70
   0   9 -11   70.91    3.56
   0   9  11   78.11    4.34
   0  -9 -11   58.53    3.43
   0  -9  11   58.46    3.33
   0  -9  11   60.74    3.54
   0   9  11   70.59    3.92
   0  10   0    7.19    0.77
   0  10   0    7.45    0.86
   0 -10   0    7.24    1.38
   0 -10   0    5.73    1.42
   0  10   0    7.12    0.70
   0  10  -1   26.10    1.73
   0  10   1   27.09    1.85
   0  10  -1   26.21    1.79
   0 -10  -1   19.20    2.32
   0 -10   1   27.54    2.38
   0 -10  -1   23.26    2.26
   0  10  -1   23.34    2.13
   0  10   1   25.83    1.65
   0 -10  -1   27.05    1.77
   0  10   1   26.38    1.78
   0 -10   1   20.75    2.41
   0  10  -1   28.66    1.64
   0  10  -2   36.99    2.19
   0 -10   2   33.17    2.92
   0 -10  -2   29.28    2.62
   0  10  -2   37.24    2.49
   0  10   2   31.42    2.20
   0 -10  -2   30.54    2.18
   0  10   2   33.21    2.16
   0  10  -2   37.10    2.11
   0 -10   2   29.59    2.69
   0 -10   2   32.28    1.82
   0  10   2   33.22    2.05
   0  10  -2   28.77    2.52
   0 -10  -3   93.98    5.47
   0  10  -3  100.93    5.33
   0 -10   3   94.48    5.64
   0 -10   3   91.57    6.16
   0 -10  -3   95.56    5.38
   0  10   3   98.56    5.42
   0  10  -3   93.75    6.19
   0  10  -3   99.65    5.68
   0 -10   3   93.77    5.34
   0 -10  -3   93.17    5.90
   0 -10   3   82.62    5.87
   0  10   3  116.03    6.81
   0  10  -3   95.96    5.21
   0 -10  -3   92.32    5.87
   0  10   3  100.08    5.37
   0  10   3   93.31    5.24
   0 -10   3   91.94    5.02
   0  10  -3  102.51    5.83
   0 -10  -4    7.20    0.94
   0 -10  -4    8.20    1.44
   0 -10   4    7.61    0.70
   0  10   4    8.00    0.90
   0 -10  -4    8.13    1.27
   0  10   4    8.64    1.43
   0 -10   4    6.71    0.97
   0 -10  -4    8.36    1.49
   0 -10   4    6.39    1.57
   0 -10   4    8.00    1.29
   0 -10  -4    7.98    1.12
   0  10   4    7.98    0.92
   0  10  -4    8.35    0.72
   0 -10   4    7.76    0.92
   0  10  -4    7.92    1.37
   0  10  -4    8.24    1.73
   0 -10   4   10.73    1.56
   0 -10  -5    0.86    1.04
   0 -10   5    0.40    0.44
   0  10  -5    1.24    1.32
   0  10   5    0.06    0.42
   0 -10   5    0.62    0.99
   0  10  -5    0.58    0.29
   0  10   5    0.92    0.68
   0  10   5    0.50    0.52
   0 -10   5    0.64    0.40
   0 -10   5    0.79    0.65
   0 -10  -5    0.22    0.60
   0  10   5    1.16    1.05
   0 -10  -5   -1.08    0.88
   0 -10  -5    0.69    0.99
   0 -10   5    0.24    1.11
   0 -10   5    0.31    0.40
   0 -10  -5    0.75    1.17
   0  10  -5    1.19    0.46
   0 -10   5    1.36    1.16
   0  10   6    0.75    0.52
   0 -10  -6    1.70    0.70
   0 -10  -6    0.16    1.26
   0  10  -6    1.76    0.35
   0 -10   6    1.46    0.55
   0 -10   6    1.00    0.49
   0  10  -6    1.38    0.37
   0 -10   6    0.34    1.20
   0 -10   6    0.50    1.05
   0  10  -6    1.31    0.83
   0  10   6    1.95    0.72
   0  10   6    1.12    0.68
   0 -10  -6    1.52    1.10
   0 -10   6    1.25    0.48
   0  10   7   18.87    2.10
   0 -10  -7   13.29    1.43
   0  10  -7   17.76    1.73
   0 -10   7   14.77    1.92
   0 -10  -7   15.55    1.88
   0 -10   7   17.31    1.58
   0  10   7   13.76    1.33
   0 -10   7   13.49    1.92
   0 -10  -7   14.96    2.07
   0  10   7   15.05    1.46
   0 -10  -7   14.81    2.00
   0  10  -8    1.52    0.83
   0 -10   8    2.03    1.28
   0 -10   8    0.95    0.47
   0 -10   8    1.89    0.53
   0 -10   8    1.46    0.72
   0  10   8    2.81    1.23
   0 -10  -8    2.58    0.77
   0 -10  -8   -0.55    0.96
   0 -10   9   13.92    1.11
   0  10  -9   17.91    1.58
   0 -10   9   16.79    1.81
   0 -10   9   15.78    1.45
   0 -10  -9   14.61    1.35
   0  10   9   13.27    1.81
   0 -10  -9   11.54    1.63
   0 -10  10    1.76    0.58
   0  10 -10    2.09    0.64
   0  10  10    1.31    1.00
   0  10  10    0.59    1.33
   0 -10 -10    2.27    0.57
   0 -10 -10    1.33    0.78
   0 -11   0    0.33    0.59
   0 -11   0   -0.17    0.43
   0  11   0    0.36    0.41
   0  11   0    0.65    0.45
   0 -11   0    0.78    1.04
   0 -11   0   -0.16    1.22
   0  11   1  185.96   10.26
   0  11   1  160.70    8.78
   0 -11  -1  149.84    9.34
   0  11  -1  172.03    8.78
   0 -11   1  155.11    9.40
   0  11   1  165.53    8.65
   0 -11   1  162.01    8.79
   0 -11  -1  155.34    9.57
   0  11  -1  165.89    8.82
   0  11  -1  169.15    8.60
   0 -11  -1  160.10    8.85
   0 -11   1  161.07    9.72
   0  11   1  161.64    9.28
   0  11   1  166.09    8.85
   0 -11  -2    0.13    0.51
   0  11   2    0.44    0.49
   0 -11   2    0.99    1.03
   0 -11  -2    0.75    0.54
   0  11   2    0.81    1.62
   0 -11  -2    0.59    0.96
   0 -11   2   -0.06    0.44
   0  11   2   -0.26    0.86
   0  11  -2   -0.05    0.44
   0  11  -2    0.13    0.41
   0  11   2   -0.07    0.49
   0  11  -2    0.89    1.35
   0 -11   2    0.58    0.49
   0  11  -2    1.13    0.43
   0 -11  -2    0.21    0.40
   0  11  -2   -0.08    0.41
   0 -11   2    0.34    1.25
   0  11   2    0.06    0.40
   0  11  -2    0.63    0.87
   0 -11  -2    0.65    0.90
   0  11  -3   33.59    2.66
   0  11  -3   32.53    2.06
   0  11   3   35.67    2.22
   0 -11  -3   30.86    2.81
   0 -11   3   36.38    2.30
   0  11  -3   33.52    3.17
   0  11   3   36.55    2.83
   0 -11   3   29.89    2.79
   0 -11   3   29.91    3.09
   0 -11   3   28.51    2.21
   0  11  -3   36.89    2.05
   0 -11  -3   31.52    2.08
   0  11  -3   33.71    2.24
   0 -11  -3   31.08    2.75
   0 -11  -3   29.61    2.26
   0 -11  -3   28.97    2.30
   0  11   3   34.74    2.28
   0  11   3   37.54    3.55
   0 -11   3   35.38    2.29
   0 -11   4   -0.94    1.12
   0 -11  -4    0.14    0.95
   0 -11  -4    0.28    0.75
   0  11  -4    0.04    0.26
   0 -11  -4    0.38    0.90
   0 -11   4   -0.07    0.48
   0  11  -4    0.24    0.93
   0 -11   4    0.52    0.57
   0  11  -4    0.07    0.43
   0 -11  -4    1.27    0.99
   0 -11   4   -0.37    1.26
   0 -11   4    0.85    0.89
   0  11   4   -0.21    0.53
   0 -11  -4    0.29    0.37
   0  11   4    1.33    1.73
   0  11  -4    1.63    1.35
   0  11   4    0.14    0.50
   0  11   4    0.40    0.95
   0 -11  -4   -0.52    0.61
   0 -11  -5    9.63    1.61
   0 -11  -5    6.94    0.75
   0  11   5    9.29    2.18
   0  11   5    7.52    1.04
   0  11  -5    7.96    0.74
   0 -11   5    8.52    1.09
   0  11  -5   10.40    1.51
   0 -11   5    9.04    1.00
   0 -11  -5    6.65    1.23
   0 -11   5    7.19    0.86
   0 -11  -5    8.16    1.50
   0  11   5    7.54    1.43
   0 -11   5    5.93    1.48
   0  11  -5    8.77    0.90
   0  11  -5    7.77    1.69
   0 -11  -5    8.16    1.06
   0  11   5    6.12    0.91
   0 -11   5    6.98    1.33
   0 -11  -5    7.61    1.47
   0  11   5    6.82    0.87
   0 -11  -6    0.31    0.99
   0 -11  -6    0.17    1.10
   0  11  -6    0.10    0.35
   0  11   6    0.16    0.46
   0 -11   6   -0.13    0.47
   0 -11  -6    0.71    0.66
   0 -11   6    0.14    0.47
   0 -11  -6   -0.25    0.96
   0 -11   6   -0.17    0.98
   0 -11   6   -0.89    1.20
   0 -11   6    1.14    1.10
   0  11  -6    0.13    0.95
   0  11  -6    0.10    0.78
   0  11   6    0.34    0.68
   0 -11  -7   14.22    1.88
   0  11   7   14.92    1.48
   0 -11  -7   13.53    1.98
   0  11  -7   17.02    1.88
   0 -11  -7   16.08    1.49
   0  11  -7   16.44    1.69
   0  11   7   16.07    1.42
   0 -11  -8   33.05    2.45
   0 -11   8   35.46    2.29
   0  11  -8   39.15    2.70
   0 -11   8   37.59    2.56
   0  11   8   40.26    3.92
   0 -11   8   35.72    2.31
   0  11   8   40.76    3.13
   0  11  -8   36.18    2.80
   0  11  -9    5.85    0.92
   0  11   9    5.44    1.75
   0  11   9    6.65    1.29
   0 -11   9    4.59    0.80
   0 -11   9    4.62    0.55
   0 -11  -9    4.16    0.77
   0  11  10    7.23    1.47
   0 -11  10    4.45    0.67
   0 -11 -10    3.51    0.60
   0  11  10    4.39    1.03
   0  11 -10    6.09    0.76
   0  12   0   14.06    1.12
   0  12   0   12.89    1.21
   0 -12   0   12.82    1.99
   0  12   0    9.80    1.44
   0 -12   0   12.85    1.16
   0 -12   0   10.08    1.72
   0 -12   0   11.54    1.24
   0 -12  -1   22.74    2.37
   0  12  -1   26.40    1.92
   0  12  -1   24.89    2.21
   0 -12   1   25.61    1.88
   0  12  -1   26.59    1.71
   0  12   1   26.01    3.11
   0  12   1   24.57    2.34
   0 -12  -1   22.54    2.60
   0  12   1   24.82    1.91
   0  12   1   26.21    1.77
   0 -12   1   30.13    2.92
   0  12  -1   31.17    1.93
   0 -12   1   24.92    2.48
   0 -12  -1   25.17    1.94
   0  12   1   21.94    2.17
   0 -12   1   26.41    1.90
   0  12   1   24.08    1.85
   0  12  -2  218.50   12.72
   0 -12  -2  250.36   12.83
   0 -12   2  258.78   12.94
   0 -12  -2  234.66   13.52
   0  12   2  252.09   13.48
   0  12  -2  252.56   13.37
   0  12   2  255.95   12.83
   0  12  -2  252.65   12.94
   0 -12   2  215.17   13.54
   0  12   2  229.08   13.53
   0  12  -2  251.25   12.68
   0 -12   2  252.01   12.96
   0  12   2  244.38   12.98
   0 -12  -2  232.45   13.69
   0  12   2  246.23   12.92
   0  12   2  271.63   14.58
   0 -12  -2  232.85   12.93
   0 -12   2  246.94   13.99
   0  12  -2  262.46   14.18
   0 -12  -3   46.32    3.62
   0 -12  -3   53.80    3.87
   0  12   3   60.36    4.76
   0  12  -3   47.60    3.06
   0  12   3   48.30    3.04
   0  12  -3   51.30    2.87
   0 -12  -3   47.55    2.94
   0 -12   3   41.46    3.03
   0  12  -3   53.36    3.54
   0 -12   3   50.93    3.86
   0 -12   3   54.49    3.15
   0 -12  -3   53.31    3.20
   0  12   3   52.23    3.69
   0 -12  -3   42.52    3.11
   0  12  -3   54.26    4.17
   0 -12   3   46.44    4.02
   0 -12   3   45.80    3.06
   0  12   3   50.06    3.13
   0  12   4    7.16    0.91
   0  12  -4    8.05    0.91
   0 -12  -4    7.36    1.05
   0 -12  -4    8.08    1.42
   0 -12  -4    7.27    1.47
   0 -12   4    8.00    1.03
   0  12  -4    7.46    1.80
   0  12   4    7.99    1.02
   0 -12  -4    9.35    1.24
   0  12  -4    7.14    1.25
   0 -12  -4    7.62    1.55
   0 -12   4    7.34    1.88
   0  12   4    6.18    2.20
   0 -12  -4    7.22    0.80
   0 -12   4    7.39    1.56
   0 -12  -4    6.03    1.40
   0  12   4    8.32    1.58
   0  12  -4    6.68    1.28
   0 -12   4    8.07    0.97
   0  12  -5    2.43    1.34
   0  12  -5    1.19    0.49
   0 -12  -5    2.09    1.23
   0 -12   5    1.44    0.57
   0 -12   5    1.69    1.06
   0 -12  -5    1.50    1.18
   0  12   5    1.60    1.13
   0 -12  -5    1.64    0.88
   0  12   5    1.45    1.86
   0 -12  -5    1.85    0.79
   0 -12   5    1.81    0.56
   0  12  -5    1.65    0.89
   0  12   5    1.58    0.52
   0 -12  -5    1.47    0.42
   0  12   5    1.49    0.71
   0  12  -5    1.41    0.44
   0 -12  -5    0.76    0.97
   0 -12   5    1.74    0.68
   0 -12   5    0.17    1.08
   0  12   5    2.16    0.63
   0  12  -5    0.82    0.90
   0 -12  -6   13.56    1.99
   0  12   6   16.03    1.96
   0 -12   6   12.50    1.98
   0 -12   6   14.21    1.29
   0  12  -6   13.15    1.55
   0 -12  -6   13.12    1.76
   0  12  -6   14.15    1.67
   0  12   6   13.57    1.42
   0  12   6   15.42    2.64
   0 -12  -6   11.90    1.34
   0  12   6   14.21    1.35
   0 -12   6   14.66    1.23
   0 -12  -6   13.40    1.67
   0 -12   6   14.39    1.68
   0 -12   6   15.43    1.43
   0  12  -6   13.67    1.65
   0  12   7  190.14   10.59
   0 -12   7  164.81    9.19
   0  12   7  159.37    8.86
   0 -12   7  167.10    8.73
   0 -12  -7  160.06    8.84
   0 -12  -7  139.71    9.10
   0  12  -7  171.82    9.09
   0  12  -8    0.17    0.70
   0 -12  -8   -0.11    0.85
   0 -12  -8    0.33    0.57
   0 -12   8   -0.96    0.92
   0 -12   8   -0.28    0.38
   0  12   8    0.39    1.62
   0 -12  -9   13.18    1.16
   0 -12   9   11.75    0.87
   0  12   9   14.58    2.05
   0  12  -9   13.41    1.23
   0  13   0    0.37    0.53
   0  13   0    0.15    0.48
   0  13   0   -0.40    0.75
   0 -13   0    0.21    0.48
   0  13   0    0.43    0.55
   0 -13   0    0.77    1.39
   0 -13   0    0.93    1.04
   0  13   1   55.70    4.63
   0 -13  -1   47.78    3.68
   0 -13   1   47.85    3.05
   0 -13  -1   47.21    3.13
   0 -13   1   45.70    3.69
   0 -13  -1   50.94    4.04
   0 -13   1   47.95    4.05
   0  13  -1   46.08    3.41
   0  13  -1   50.12    2.89
   0  13   1   50.53    2.96
   0  13  -1   49.34    3.09
   0  13   1   45.01    3.07
   0  13   1   43.04    3.55
   0  13  -1   46.31    3.02
   0  13   1   47.90    3.08
   0 -13   1   46.53    3.05
   0 -13  -2   19.56    2.35
   0 -13   2   16.41    1.51
   0  13   2   18.78    2.03
   0  13   2   25.87    3.22
   0  13   2   19.62    1.61
   0  13  -2   22.33    2.78
   0  13  -2   23.34    1.51
   0 -13   2   20.33    1.64
   0  13   2   19.01    1.64
   0 -13   2   22.34    2.35
   0 -13  -2   16.84    2.10
   0  13  -2   21.63    2.05
   0 -13   2   20.92    2.59
   0 -13  -2   21.24    1.59
   0 -13   2   19.55    1.66
   0 -13  -2   17.41    1.66
   0  13   2   20.52    1.68
   0  13  -2   25.50    1.77
   0 -13   3    7.25    1.53
   0 -13   3    8.50    1.03
   0  13   3    9.30    2.37
   0 -13  -3    8.31    1.11
   0  13  -3    8.46    2.03
   0 -13  -3   10.97    1.62
   0 -13  -3    7.65    0.90
   0 -13   3    7.83    1.04
   0  13   3    9.38    1.09
   0  13   3    8.23    1.02
   0 -13   3    9.14    1.02
   0  13  -3   10.14    0.91
   0 -13   3    9.56    2.09
   0 -13  -3   11.33    1.73
   0  13   3    9.21    1.52
   0  13  -3   10.63    1.07
   0 -13  -3   11.11    1.71
   0  13  -3    7.77    1.33
   0 -13  -4    0.97    0.44
   0  13   4    0.07    0.40
   0 -13  -4    1.97    1.03
   0 -13   4    2.46    1.51
   0  13   4    0.65    0.51
   0  13   4    1.13    1.19
   0 -13  -4    1.50    0.96
   0 -13  -4   -0.16    1.17
   0  13   4    0.49    1.93
   0  13  -4    0.76    0.49
   0  13  -4    0.76    0.74
   0 -13   4    1.12    0.58
   0 -13  -4    0.61    1.08
   0 -13  -4    0.49    0.67
   0 -13   4    0.58    0.56
   0  13   5    6.97    1.50
   0  13  -5    5.60    1.65
   0  13   5    6.15    1.03
   0 -13  -5    7.10    1.57
   0 -13   5    5.71    0.90
   0  13   5    7.14    0.82
   0 -13   5    7.60    0.87
   0 -13  -5    6.43    1.40
   0  13   5    7.21    0.96
   0  13  -5    6.03    0.70
   0 -13  -5    6.66    1.48
   0  13  -5    6.02    1.16
   0 -13   5    5.65    0.85
   0  13   5    5.33    2.30
   0 -13  -5    5.98    0.95
   0  13  -6   34.60    2.54
   0  13   6   29.28    3.56
   0 -13   6   32.93    2.10
   0 -13  -6   28.29    2.22
   0 -13   6   31.39    2.23
   0 -13   6   31.70    2.16
   0 -13   6   28.08    2.88
   0  13   6   31.88    2.34
   0  13   6   33.01    2.82
   0 -13   7    6.34    0.79
   0  13   7    4.78    1.32
   0 -13  -7    5.79    0.89
   0  13   7    8.00    2.08
   0  13  -7    7.24    1.16
   0 -13   7    6.96    0.90
   0  13   8    3.40    1.59
   0 -13  -8    4.00    0.72
   0 -13   8    3.55    0.53
   0  13   8    3.20    1.05
   0  13  -8    3.71    0.86
   0  13   9    6.20    1.45
   0 -13  -9    5.97    0.73
   0  13  -9    7.35    0.86
   0  13   9    7.13    1.12
   0  14   0  823.59   42.22
   0  14   0  832.20   41.43
   0 -14   0  773.73   42.27
   0 -14   0  790.55   41.55
   0 -14   0  803.10   42.67
   0 -14   0  807.36   41.56
   0  14   0  810.23   41.59
   0  14   0  852.16   41.64
   0  14  -1  256.73   13.81
   0 -14   1  252.58   14.42
   0  14  -1  255.89   13.30
   0 -14   1  227.09   13.90
   0  14   1  237.49   13.88
   0 -14   1  252.24   13.23
   0  14   1  249.55   13.13
   0  14   1  268.85   14.94
   0 -14   1  253.01   13.22
   0 -14  -1  238.96   13.88
   0  14   1  250.09   13.25
   0 -14  -1  246.26   14.22
   0  14  -1  250.97   13.05
   0 -14   2   -0.12    0.46
   0 -14  -2   -0.13    0.50
   0 -14  -2    0.90    0.68
   0 -14   2   -0.14    0.54
   0  14  -2    1.49    1.51
   0  14   2    0.08    0.41
   0  14   2   -0.33    0.52
   0  14  -2    0.89    0.78
   0  14  -2   -0.05    0.49
   0  14   2    0.21    0.64
   0  14   2   -0.25    1.82
   0 -14  -2   -0.46    1.09
   0  14   2   -0.89    0.85
   0 -14   2    1.90    1.67
   0  14  -2    0.49    0.48
   0 -14  -2    0.52    1.21
   0 -14   2   -0.46    0.49
   0  14  -3   71.68    3.80
   0  14   3   64.58    3.96
   0  14   3   57.57    4.30
   0  14  -3   61.34    4.89
   0 -14  -3   67.16    4.08
   0 -14  -3   61.14    3.83
   0 -14  -3   68.87    4.72
   0  14   3   78.04    5.78
   0 -14  -3   67.03    4.64
   0 -14  -3   72.83    4.77
   0 -14   3   71.25    5.20
   0  14   3   69.08    4.07
   0 -14   3   66.28    4.00
   0  14  -3   65.74    4.41
   0  14   3   67.90    4.08
   0 -14   3   59.65    3.85
   0  14   4   16.92    1.58
   0  14  -4   19.54    1.94
   0 -14  -4   17.07    2.06
   0  14  -4   19.97    1.59
   0  14   4   17.71    1.46
   0 -14  -4   17.85    2.13
   0  14   4   26.11    3.23
   0  14   4   15.51    1.96
   0 -14   4   20.69    1.59
   0  14  -4   17.20    2.41
   0 -14   4   20.53    2.56
   0 -14  -4   16.82    1.57
   0 -14   4   16.87    1.47
   0 -14  -5   11.93    1.31
   0  14  -5   13.22    1.07
   0  14   5   14.79    2.65
   0  14  -5   14.83    1.59
   0  14   5   13.45    1.43
   0 -14   5   14.65    1.22
   0 -14  -5   13.72    1.83
   0  14  -5   13.95    1.99
   0  14   5   14.19    1.83
   0 -14   5   13.45    1.26
   0  14   6   15.94    1.49
   0 -14  -6   16.46    1.42
   0  14  -6   17.45    1.68
   0 -14   6   13.83    1.17
   0  14   6   14.15    1.75
   0 -14   6   15.18    1.27
   0  14   6   14.33    2.53
   0 -14   6   17.71    2.09
   0  14   7    5.27    1.18
   0 -14   7    5.31    0.67
   0  14  -7    6.90    1.04
   0 -14  -7    4.47    0.79
   0  14  -8    8.74    1.00
   0  14   8    9.71    1.68
   0  14   8    6.38    1.02
   0 -14   8    6.48    0.61
   0 -14  -8    6.67    0.79
   0  15   0    0.41    0.49
   0  15   0   -0.24    0.51
   0  15   0   -0.74    0.94
   0 -15   0    0.19    1.35
   0 -15   0    0.87    0.57
   0  15   0    0.51    0.57
   0 -15   0    0.22    0.49
   0  15   1   12.01    1.27
   0  15   1   12.80    2.62
   0  15   1   13.06    1.27
   0  15   1   15.34    1.36
   0 -15  -1   14.70    2.13
   0  15  -1   13.29    1.21
   0 -15   1   15.37    2.30
   0  15  -1    9.38    1.49
   0 -15   1   14.80    1.29
   0 -15   1   11.59    1.23
   0  15  -1   12.65    1.27
   0 -15   2   25.00    1.92
   0  15  -2   26.37    2.93
   0 -15   2   25.40    1.86
   0  15   2   28.18    3.38
   0  15  -2   22.69    2.26
   0  15  -2   27.68    1.84
   0 -15  -2   26.81    2.49
   0  15   2   26.20    1.98
   0 -15   2   22.88    2.52
   0 -15   2   22.29    2.84
   0 -15  -2   25.24    1.85
   0  15  -2   28.78    2.03
   0  15  -3    2.96    0.60
   0  15   3    3.09    0.80
   0 -15   3    1.20    1.40
   0  15  -3    0.75    1.42
   0 -15  -3    1.80    1.12
   0 -15   3    2.44    0.68
   0 -15  -3    2.15    1.08
   0 -15  -3    1.68    0.51
   0  15   3    4.76    2.04
   0 -15  -3    2.93    0.80
   0  15   4    0.23    1.87
   0 -15  -4    1.32    0.66
   0  15  -4    1.32    1.25
   0 -15   4    0.60    0.51
   0 -15  -4   -0.42    1.04
   0 -15   4   -0.06    0.43
   0  15   4    1.03    0.86
   0 -15   4   -1.30    1.56
   0  15  -4    0.14    0.45
   0  15   5   -0.63    1.56
   0  15   5    1.35    0.74
   0 -15   5    0.20    0.38
   0 -15   5    0.18    0.48
   0 -15  -5   -0.07    0.63
   0  15  -5    0.39    0.83
   0  15   5    0.50    0.89
   0 -15  -5    0.50    0.93
   0 -15   6   19.11    1.39
   0 -15  -6   18.18    1.49
   0  15   6   17.16    1.72
   0  15  -6   20.70    1.73
   0 -15   6   18.52    1.28
   0  15   6   23.60    2.64
   0  15   6   18.10    1.55
   0 -15   7    8.26    0.75
   0  15  -7   10.54    1.06
   0  15   7    8.73    1.75
   0  15   7    6.18    1.00
   0 -15  -7    6.94    0.83
   0  15   8   29.23    2.31
   0 -15  -8   24.12    1.50
   0  15  -8   32.11    1.71
   0 -15   8   20.17    1.31
   0 -16   0   17.64    1.50
   0  16   0   22.24    1.61
   0 -16   0   18.18    1.49
   0 -16   0   17.78    2.34
   0 -16  -1   19.03    2.24
   0 -16  -1   18.36    1.50
   0  16  -1   18.98    1.50
   0  16   1   18.81    2.82
   0 -16   1   19.62    2.44
   0  16   1   19.79    1.60
   0 -16   1   17.40    1.48
   0 -16   1   19.27    1.49
   0  16   2    1.08    1.67
   0  16  -2    0.91    1.26
   0 -16   2    1.74    0.59
   0 -16  -2    2.31    1.27
   0 -16  -2    1.52    0.51
   0 -16   2   -0.92    1.39
   0  16   2    1.25    0.68
   0  16  -2    1.90    0.57
   0  16  -3   13.48    2.00
   0  16   3   15.51    1.40
   0 -16  -3   15.32    1.75
   0 -16   3   11.58    0.99
   0 -16   3   14.26    1.24
   0 -16   3   13.85    2.10
   0  16  -3   13.64    1.14
   0 -16  -3   13.20    1.82
   0  16   3   12.21    2.35
   0  16  -4    0.67    1.04
   0 -16   4    0.51    0.38
   0  16  -4    1.68    0.86
   0 -16   4    0.46    0.46
   0 -16  -4    0.25    0.55
   0  16  -4    1.28    0.48
   0 -16  -4    0.85    0.90
   0 -16   4    0.94    1.15
   0  16   4    1.18    1.49
   0 -16  -5   16.66    1.72
   0  16   5   14.83    1.43
   0  16   5   15.94    2.36
   0  16  -5   18.49    1.61
   0 -16   5   16.81    1.27
   0 -16   5   15.51    1.15
   0 -16  -5   15.60    1.33
   0 -16  -6    2.05    0.53
   0  16  -6    2.13    0.74
   0 -16   6    1.83    0.43
   0 -16   7    5.10    0.49
   0 -16  -7    4.71    0.59
   0  16  -7    5.18    0.72
   0 -16   7    4.30    0.46
   0  16   7    3.47    1.17
   0 -17   0    0.45    1.03
   0 -17   0   -0.06    0.40
   0 -17   0    0.05    0.37
   0  17   0   -0.38    0.56
   0 -17   1    2.22    0.53
   0  17   1    2.93    0.70
   0 -17  -1    3.52    1.15
   0 -17  -1    2.09    1.05
   0  17  -1    2.73    0.65
   0 -17   1    1.72    1.22
   0  17  -1    0.16    1.24
   0 -17   1    2.05    0.48
   0 -17  -1    1.98    0.50
   0 -17   2    1.20    0.44
   0  17   2    1.48    0.69
   0  17   2   -0.18    1.51
   0  17  -2   -0.15    1.17
   0 -17  -2    1.08    0.42
   0  17  -2    0.96    0.53
   0 -17  -2    0.49    0.97
   0 -17   2    0.67    0.45
   0 -17   2    2.46    1.16
   0  17   3   12.92    1.22
   0 -17   3    9.80    0.92
   0  17  -3   10.03    1.55
   0 -17  -3   11.04    1.46
   0 -17   3   11.85    1.68
   0 -17  -3    8.42    0.91
   0 -17   3   10.49    0.96
   0  17   3   12.33    2.07
   0 -17  -4   22.40    1.59
   0  17  -4   27.70    1.98
   0  17   4   24.12    1.81
   0 -17   4   22.68    1.52
   0 -17  -4   26.86    2.12
   0 -17   4   23.44    2.24
   0 -17   4   22.73    1.61
   0  17   4   25.61    2.59
   0 -17   5    0.55    0.24
   0  17  -5    1.02    0.67
   0  17   5    0.40    1.17
   0 -17   5    1.11    0.39
   0 -17  -6    1.08    0.31
   0 -17   6    1.84    0.35
   0  17  -6    1.58    0.56
   0 -18   0    1.64    0.37
   0 -18   0    2.11    1.01
   0  18   0    2.05    0.60
   0  18   0    1.83    1.24
   0 -18   0    1.60    0.82
   0  18   1    7.93    0.91
   0 -18  -1    6.34    1.22
   0 -18   1    6.04    1.27
   0 -18   1    7.23    0.73
   0 -18  -1    6.62    0.67
   0  18  -1    8.66    1.44
   0 -18  -1    8.61    1.25
   0  18  -1    7.48    0.84
   0  18   2   45.86    2.62
   0 -18  -2   43.26    2.90
   0  18  -2   45.01    2.46
   0 -18   2   38.21    2.35
   0 -18  -2   34.76    2.26
   0  18  -2   42.55    2.92
   0 -18   2   37.29    2.17
   0 -18   3   16.66    1.13
   0 -18   3   15.80    1.06
   0  18  -3   16.17    1.41
   0  18   3   16.62    1.94
   0 -18  -3   11.91    1.01
   0 -18   3   14.16    1.62
   0 -18  -3   14.87    1.49
   0 -18   4    2.20    0.31
   0 -18   4    2.86    0.79
   0  18   4    2.47    1.11
   0 -18  -4    1.66    0.34
   0  18  -4    3.98    0.74
   0 -18   4    2.95    0.44
   0 -18  -4    2.49    0.76
   0 -19   0    0.10    0.29
   0 -19   0    0.61    0.60
   0  19   0    0.42    0.42
   0 -19   0    0.08    0.65
   0  19   0   -0.54    0.85
   0  19   1   10.64    1.37
   0 -19   1   10.26    0.79
   0  19  -1   13.08    0.98
   0 -19  -1   12.02    1.20
   0 -19   1    9.61    0.70
   0  19  -1    8.83    1.11
   0  19   1   11.31    1.00
   0 -19   1   13.40    1.31
   0 -19   1   11.70    1.18
   0 -19   2    0.23    0.22
   0 -19   2    0.33    0.27
   0  19  -2   -0.14    0.49
   0  19   2   -0.32    0.81
   1   0 -12  136.72    7.18
  -1   0  12  129.91    7.20
   1   0 -11    0.48    0.64
   1   0 -11   -0.23    0.84
  -1   0  11   -0.20    0.40
  -1   0  11    0.70    0.74
  -1   0  11   -0.26    1.16
  -1   0  11    0.19    0.74
   1   0 -11   -0.05    0.51
  -1   0  10    3.32    1.46
  -1   0  10    3.28    0.87
   1   0 -10    3.44    0.85
   1   0 -10    2.66    0.51
   1   0 -10    3.48    1.13
  -1   0  10    4.30    1.06
   1   0 -10    3.10    0.79
  -1   0  10    2.29    1.43
  -1   0  10    3.52    1.03
   1   0 -10    3.32    0.48
  -1   0  10    5.43    0.79
   1   0 -10    3.37    1.26
   1   0  -9    0.32    0.62
   1   0  -9    0.04    0.34
  -1   0   9   -0.07    0.48
  -1   0   9    0.11    0.84
  -1   0   9   -0.93    1.37
   1   0  -9   -0.74    1.07
  -1   0   9    0.17    0.78
  -1   0   9   -0.10    0.78
   1   0  -9   -0.11    0.30
  -1   0   8    1.13    1.27
   1   0  -8    2.02    0.42
   1   0  -8    0.90    1.00
  -1   0   8    1.69    0.69
  -1   0   8    0.80    0.85
   1   0  -8    2.65    1.13
  -1   0   8    1.02    0.69
   1   0  -8    1.36    0.64
   1   0  -8    1.38    0.41
   1   0  -7   -0.10    0.82
   1   0  -7    0.13    0.31
   1   0  -7    0.56    0.93
   1   0  -7    0.03    0.31
  -1   0   7    0.13    1.02
  -1   0   7   -0.15    0.59
   1   0  -6    1.46    0.89
  -1   0   6    1.62    1.03
   1   0  -6    1.63    0.66
   1   0  -6    1.76    0.40
   1   0  -6    2.11    0.41
   1   0  -6    1.41    0.73
   1   0  -5   -0.12    0.59
   1   0  -5   -0.08    0.51
  -1   0   5    0.29    0.80
   1   0  -5    0.77    0.77
   1   0  -5    0.28    0.28
   1   0  -5    0.05    0.30
  -1   0   5   -0.57    0.90
  -1   0   4  273.08   18.41
   1   0  -4  434.90   18.23
   1   0  -4  417.58   18.27
   1   0  -4  321.52   18.48
   1   0  -4  296.68   18.25
   1   0  -3   -0.12    0.29
   1   0  -3    0.11    0.65
   1   0  -3    0.20    0.28
  -1   0   3    0.04    0.67
  -1   0   2  991.56   49.59
   1   0  -2  955.76   49.51
   1   0  -2 1015.50   49.58
  -1   0   1   -0.05    0.38
  -1   0   0  151.48    7.85
  -1   0   0  167.88    8.10
   1   0   1   -0.03    0.32
  -1   0  -1    0.29    0.39
  -1   0  -1   -0.36    0.80
  -1   0  -2 9626.57  490.00
   1   0   2 9954.13  490.07
   1   0   2 9633.20  490.04
  -1   0  -2 9999.00  490.18
  -1   0  -2 9946.64  490.39
   1   0   3    0.09    0.52
  -1   0  -3   -0.22    0.58
   1   0   3    0.10    0.27
  -1   0  -3    0.19    0.98
  -1   0  -3    0.20    0.16
  -1   0  -3    0.04    0.21
   1   0   4  339.49   17.52
  -1   0  -4  326.35   17.72
  -1   0  -4  334.77   17.23
  -1   0  -4  357.34   17.65
   1   0   4  355.62   17.28
  -1   0  -4  335.55   17.17
  -1   0  -4  340.83   17.86
  -1   0  -5    0.04    0.17
   1   0   5   -0.14    0.32
  -1   0  -5   -0.10    1.02
  -1   0  -5   -0.31    0.71
  -1   0  -5   -0.18    0.82
   1   0   5    0.34    0.73
   1   0   5    0.44    0.69
  -1   0  -5   -0.05    0.26
  -1   0  -6  162.92    8.45
  -1   0  -6  172.24    9.25
  -1   0  -6  169.23    8.57
  -1   0  -6  149.71    9.39
  -1   0  -6  167.43    9.37
   1   0   6  160.11    9.14
   1   0   6  176.24    9.14
   1   0   6  148.86    8.87
   1   0   6  173.85    8.68
  -1   0  -7    0.60    0.36
   1   0   7   -0.26    0.50
  -1   0  -7   -0.27    1.14
   1   0   7    0.31    0.46
   1   0   7   -0.86    1.07
  -1   0  -7    1.70    1.50
   1   0   7   -0.11    1.05
  -1   0  -7    0.31    1.14
  -1   0  -7   -0.15    0.67
   1   0   7   -0.08    0.68
  -1   0  -7    1.15    0.56
   1   0   8   10.62    1.36
  -1   0  -8    7.38    1.71
  -1   0  -8    9.81    1.06
  -1   0  -8    7.55    1.87
   1   0   8   10.86    2.07
   1   0   8    6.75    1.65
   1   0   9    4.65    0.94
  -1   0  -9    9.53    1.03
  -1   0  -9   11.32    1.47
   1   0   9    5.09    1.87
  -1   0  -9   -0.34    1.36
  -1   0  -9    2.49    1.43
  -1   0  -9    9.40    1.23
   1   0   9    2.00    1.01
   1   0  10   23.22    1.92
  -1   0 -10   22.02    1.62
  -1   0 -10   17.19    2.27
  -1   0 -10   27.22    2.03
   1   0  10   19.80    2.17
   1   0  10   18.22    2.42
  -1   0 -10   21.24    1.67
   1   0  11   -0.14    1.16
   1   0  11    0.79    0.83
  -1   0 -11    0.28    0.63
   1   0  11   -0.20    0.62
   1   0  12    4.91    1.04
   1   0  12    5.35    0.68
   1   0  12    5.20    0.87
  -1   0 -12    4.11    0.65
   1   1 -12    6.92    0.85
  -1  -1  12    6.09    0.85
  -1   1  12    7.40    0.90
   1  -1 -12    7.35    0.86
   1   1 -11   42.38    2.67
  -1  -1  11   39.91    2.48
   1   1 -11   29.36    2.70
   1  -1 -11   34.76    3.01
  -1   1  11   45.79    2.80
   1   1 -11   41.31    2.55
  -1  -1  11   46.26    2.79
   1  -1 -11   39.87    2.62
  -1  -1  11   41.53    3.30
  -1  -1  11   34.61    2.78
   1  -1 -10    7.87    0.74
  -1  -1  10    7.55    1.84
  -1   1  10    6.98    1.68
   1   1 -10    7.32    0.70
   1  -1 -10   10.90    1.12
   1  -1 -10    9.82    1.11
   1   1 -10    6.35    0.76
  -1  -1  10    8.66    0.97
  -1  -1  10    8.01    1.28
  -1   1  10    8.79    1.30
   1  -1 -10   11.27    1.71
   1  -1 -10    8.33    0.80
  -1   1  10    8.42    1.18
   1   1 -10    9.47    1.11
  -1   1  10    7.75    1.35
  -1  -1  10   10.21    1.21
  -1   1  10    5.15    1.55
  -1   1  10    7.30    0.91
  -1  -1  10    8.55    1.31
   1   1 -10    9.65    1.51
   1  -1  -9   14.12    1.41
   1   1  -9   15.73    1.46
   1   1  -9   14.76    1.12
  -1  -1   9   12.01    1.52
  -1   1   9   17.12    1.77
  -1  -1   9   15.74    1.63
  -1   1   9   16.45    1.36
  -1   1   9   14.70    1.50
  -1   1   9   11.51    2.04
  -1  -1   9   13.66    2.29
  -1  -1   9   14.07    1.31
   1  -1  -9   14.21    1.89
   1   1  -9   13.93    1.04
  -1  -1   9   15.25    1.49
   1  -1  -9   14.59    1.39
   1   1  -9   13.44    1.82
  -1   1   9   12.99    1.97
  -1   1   9   14.40    1.60
   1  -1  -9   12.73    1.08
  -1  -1   8    6.72    0.97
  -1  -1   8    6.61    0.80
  -1  -1   8    7.56    1.12
  -1   1   8    5.27    1.07
   1  -1  -8    5.48    0.59
   1   1  -8    5.26    0.86
   1  -1  -8    5.87    0.88
   1   1  -8    5.15    1.26
  -1   1   8    4.57    1.40
  -1   1   8    4.64    0.93
  -1   1   8    5.34    0.78
   1  -1  -8    6.74    1.41
  -1   1   8    6.13    1.51
  -1  -1   8    7.25    1.71
  -1  -1   8    5.48    0.99
  -1  -1   8    4.30    1.39
   1  -1  -8    4.56    0.58
   1   1  -8    4.98    0.60
  -1   1   8    4.86    1.02
  -1  -1   7  362.83   18.41
  -1   1   7  330.01   18.74
   1  -1  -7  361.48   18.83
  -1   1   7  348.07   18.71
   1   1  -7  349.22   17.99
  -1  -1   7  372.52   18.20
   1  -1  -7  352.01   17.97
   1   1  -7  356.99   18.73
   1  -1  -7  352.54   17.98
   1  -1  -7  330.14   18.35
  -1  -1   7  342.35   18.83
  -1   1   7  340.55   18.40
  -1  -1   7  320.57   18.84
   1   1  -7  358.13   18.01
   1   1  -7  360.91   18.68
  -1  -1   7  369.00   18.31
  -1  -1   6  259.68   15.83
   1   1  -6  270.96   15.62
  -1   1   6  237.09   15.65
   1   1  -6  329.15   15.30
   1  -1  -6  291.25   15.24
   1   1  -6  316.96   15.85
  -1  -1   6  252.88   15.77
   1  -1  -6  265.44   15.52
  -1   1   6  252.13   15.70
   1  -1  -6  296.99   15.22
   1  -1  -6  291.86   15.84
   1   1  -5  176.17    7.47
  -1   1   5  120.57    7.25
   1   1  -5  203.34    7.51
   1   1  -5  112.62    7.34
   1  -1  -5  168.51    7.42
   1  -1  -5  164.36    7.45
   1  -1  -5  146.06    7.93
  -1  -1   5  121.07    7.78
  -1   1   5  111.60    7.64
   1   1  -5  164.09    7.88
   1  -1  -5  135.01    7.60
  -1   1   5  135.93    7.81
  -1  -1   4  113.77    6.89
   1  -1  -4  128.75    6.58
  -1   1   4  125.44    6.86
  -1   1   4  115.13    6.48
   1   1  -4  148.71    6.66
   1   1  -4  146.60    6.92
   1  -1  -4  131.47    6.56
   1   1  -4  149.39    6.71
   1   1  -4  112.87    6.51
   1  -1  -4  133.70    6.99
   1   1  -3  116.76    5.99
   1  -1  -3  126.02    6.34
   1  -1  -3  112.31    6.06
  -1  -1   3  118.73    6.34
   1  -1  -3  112.39    6.03
   1   1  -3  123.53    6.29
  -1   1   3  124.47    6.25
   1   1  -3  124.64    6.16
   1  -1  -2  104.00    5.56
  -1   1   2  119.26    5.68
   1  -1  -2  118.51    5.73
  -1  -1   2  102.83    5.73
   1  -1  -2  104.94    5.53
   1  -1  -1   13.70    0.83
   1  -1  -1   16.92    1.00
  -1  -1   1   13.87    0.99
   1  -1  -1   14.35    0.83
  -1   1   1   13.60    0.97
  -1  -1   1   14.36    1.07
  -1  -1   0  205.47   10.61
  -1   1   0  212.76   10.73
  -1   1   0  201.03   10.47
   1  -1   0  210.02   10.52
  -1  -1  -1  581.39   28.43
   1   1   1  538.55   28.39
  -1   1  -1  596.97   28.73
  -1  -1  -1  575.24   28.64
  -1   1  -2 1371.01   67.97
  -1   1  -2 1382.88   68.20
  -1  -1  -2 1312.11   68.14
   1   1   2 1328.30   67.79
   1  -1   2 1351.07   67.82
  -1  -1  -2 1350.56   67.95
   1  -1   2 1360.56   67.91
   1   1   2 1351.17   67.79
  -1   1  -2 1351.52   67.74
   1   1   3  347.19   17.45
   1   1   3  348.31   17.35
   1  -1   3  328.58   17.57
  -1   1  -3  341.80   17.31
  -1  -1  -3  352.43   17.36
  -1  -1  -3  338.14   17.82
   1  -1   3  335.49   17.39
  -1   1  -3  344.42   17.64
  -1   1  -3  340.94   17.26
  -1  -1  -3  354.63   17.63
  -1   1  -3  337.06   17.84
  -1  -1  -4  105.69    5.60
  -1   1  -4   91.59    5.08
  -1  -1  -4  102.00    5.72
   1  -1   4  106.91    5.24
   1  -1   4   97.99    5.56
  -1   1  -4  102.27    5.60
   1   1   4  103.91    5.44
   1   1   4  106.68    5.22
  -1   1  -4   93.40    5.68
  -1  -1  -4   94.17    5.77
  -1  -1  -4  100.39    5.13
   1  -1   4  109.64    5.53
  -1   1  -4   96.52    5.15
  -1   1  -4  100.47    5.83
  -1  -1  -4  104.76    5.20
   1  -1   5    8.49    1.22
  -1  -1  -5    9.55    0.65
   1   1   5    9.92    1.13
  -1  -1  -5   10.06    0.74
  -1   1  -5   10.32    1.55
   1  -1   5   10.34    1.15
  -1   1  -5    8.99    1.19
  -1  -1  -5   10.19    1.29
  -1   1  -5    9.19    0.69
  -1  -1  -5    9.64    1.52
  -1   1  -5   10.82    1.36
  -1  -1  -5    9.80    1.25
   1   1   5    8.94    0.76
  -1   1  -5    9.19    0.59
   1  -1   5    9.93    0.82
  -1   1  -6    9.86    1.29
  -1   1  -6    7.23    0.49
  -1  -1  -6    5.24    0.50
  -1  -1  -6    6.48    1.19
   1  -1   6    8.04    1.27
   1  -1   6    6.03    1.22
   1  -1   6    7.04    0.72
   1   1   6    6.64    1.10
  -1   1  -6    7.20    1.35
   1  -1   6    5.60    0.82
  -1  -1  -6    6.43    1.38
   1   1   6    5.72    0.90
  -1  -1  -6    6.42    0.64
   1   1   6    6.43    1.12
  -1  -1  -6    4.92    1.14
  -1  -1  -7   99.66    5.72
   1  -1   7   97.02    6.08
   1  -1   7  108.34    5.53
  -1   1  -7  103.48    6.42
  -1   1  -7  105.18    6.14
   1   1   7  104.62    6.05
  -1  -1  -7   99.04    6.25
  -1  -1  -7  101.20    5.38
   1   1   7  106.91    5.73
  -1   1  -7  107.40    5.75
   1   1   7   99.24    6.07
  -1  -1  -7   94.54    5.23
  -1  -1  -7  100.61    5.75
  -1  -1  -7  103.36    6.17
  -1  -1  -7   93.21    5.47
  -1   1  -7   96.73    5.68
   1  -1   7   99.45    6.16
   1   1   7   97.90    5.62
  -1   1  -7   94.15    6.18
   1  -1   7  108.21    5.75
   1  -1   7   90.54    5.52
   1  -1   8   97.51    5.24
   1   1   8   92.82    4.97
   1  -1   8   86.19    5.69
   1  -1   8   83.33    5.68
  -1   1  -8   77.39    5.62
  -1  -1  -8   87.70    4.90
  -1   1  -8   77.38    5.72
  -1  -1  -8   77.33    5.80
  -1   1  -8   86.37    5.07
   1   1   8   86.13    5.67
   1   1   8   85.28    5.60
  -1  -1  -8   90.97    5.82
  -1   1  -8   86.77    4.73
  -1  -1  -8   90.76    5.17
   1   1   8   91.56    5.17
  -1  -1  -8   89.35    5.65
  -1   1  -8   82.30    4.85
  -1  -1  -8   78.93    4.74
   1  -1   8   86.14    4.92
  -1  -1  -9   51.15    3.01
   1   1   9   48.61    3.85
  -1   1  -9   48.90    3.24
  -1   1  -9   47.58    2.94
  -1  -1  -9   52.21    3.28
  -1   1  -9   34.67    3.54
  -1   1  -9   42.36    2.78
  -1  -1  -9   42.80    3.82
  -1  -1  -9   37.71    3.75
  -1  -1  -9   48.38    3.74
   1  -1   9   51.31    3.29
   1  -1   9   46.58    3.91
   1   1   9   54.87    3.32
  -1  -1  -9   53.08    3.24
  -1   1  -9   46.29    3.81
   1   1  10   11.81    2.12
   1  -1  10   15.92    1.64
   1   1  10   18.96    2.04
  -1   1 -10   20.56    1.53
  -1   1 -10   23.18    1.78
   1  -1  10   19.81    1.95
  -1  -1 -10   13.87    2.04
   1  -1  10   15.58    2.26
  -1  -1 -10   15.76    1.37
  -1  -1 -10   15.81    1.65
  -1   1 -10   20.51    1.43
   1   1  10   13.65    1.56
  -1  -1 -10   14.79    1.47
   1   1  11    4.14    1.09
  -1  -1 -11    2.86    0.77
   1   1  11    2.95    1.27
  -1   1 -11    3.52    0.80
  -1  -1 -11    3.24    1.12
   1  -1  11    2.95    0.68
   1   1  11    3.33    0.67
   1  -1  11    3.42    0.98
   1  -1  11    1.66    1.20
   1  -1  11    3.45    0.76
   1  -1  12    2.24    0.69
   1   1  12    1.52    0.69
   1   1  12    1.54    0.49
   1  -1  12    1.51    0.84
   1  -1  12    1.39    0.48
  -1   1 -12    1.96    0.50
   1  -2 -12    2.34    0.78
  -1  -2  12    2.65    0.59
   1  -2 -12    3.71    0.68
   1   2 -12    2.35    0.60
  -1   2  12    1.96    0.59
  -1   2  11    5.56    0.94
  -1  -2  11    3.58    0.66
   1  -2 -11    3.25    1.19
  -1  -2  11    5.88    0.90
   1   2 -11    4.95    0.75
  -1   2  11    4.39    1.12
  -1  -2  11    2.12    0.93
   1  -2 -11    5.32    0.86
   1   2 -11    4.87    0.88
  -1  -2  10    1.60    0.60
  -1  -2  10    1.33    1.52
  -1   2  10    1.22    0.53
   1   2 -10    1.86    0.74
   1  -2 -10    1.10    0.37
   1   2 -10    0.58    0.84
   1   2 -10    1.20    0.38
  -1   2  10    1.15    1.26
   1  -2 -10    1.13    0.57
  -1   2  10    1.61    0.78
  -1  -2  10    1.85    0.74
  -1   2  10    0.85    1.18
  -1  -2  10    1.26    1.53
   1  -2 -10   -0.16    1.22
  -1  -2  10    1.58    0.90
   1  -2 -10    0.85    0.66
  -1   2  10    2.33    1.00
   1  -2 -10    1.62    0.44
  -1   2   9    3.22    1.41
   1   2  -9    1.97    0.39
  -1   2   9    3.56    1.39
  -1  -2   9    4.23    1.62
  -1   2   9    2.28    0.61
   1   2  -9    0.13    1.03
  -1  -2   9   -0.34    1.40
   1  -2  -9    2.98    0.82
  -1   2   9    1.17    0.80
  -1  -2   9    2.15    0.84
  -1  -2   9    2.46    0.80
   1  -2  -9    2.62    1.12
   1  -2  -9    2.07    0.67
   1  -2  -9    1.97    0.43
  -1   2   9    2.82    0.85
  -1  -2   9    3.01    0.99
   1   2  -9    2.39    0.46
   1  -2  -8    6.27    0.66
   1  -2  -8    7.38    0.70
  -1  -2   8    7.08    1.68
  -1   2   8    7.53    0.88
  -1  -2   8    6.71    1.67
   1  -2  -8    6.51    0.90
  -1   2   8    7.73    1.65
   1   2  -8    8.63    1.04
   1   2  -8    9.06    1.38
   1  -2  -8    7.75    0.99
  -1  -2   8    7.76    1.07
  -1   2   8    6.47    1.00
  -1  -2   8    7.50    1.11
  -1  -2   8    6.94    1.08
  -1  -2   8    6.36    0.86
  -1   2   8    6.63    1.41
   1   2  -8    8.30    0.76
  -1   2   8    7.28    1.15
   1  -2  -8    7.37    1.45
  -1  -2   7   26.86    2.01
   1  -2  -7   26.85    1.63
   1   2  -7   24.55    1.64
  -1   2   7   22.94    2.35
  -1  -2   7   25.68    2.60
  -1   2   7   28.81    2.41
  -1  -2   7   27.77    1.83
   1  -2  -7   26.08    2.14
   1  -2  -7   29.35    2.32
   1  -2  -7   28.38    2.41
  -1  -2   7   27.80    2.56
   1  -2  -7   24.41    1.61
  -1   2   7   21.47    1.95
   1   2  -7   30.99    2.30
  -1  -2   7   31.10    1.98
   1   2  -7   25.70    1.64
   1   2  -6   23.90    1.55
   1  -2  -6   27.80    2.01
  -1  -2   6   24.89    2.38
  -1   2   6   25.86    2.11
   1   2  -6   25.30    1.55
   1  -2  -6   24.03    1.99
   1  -2  -6   24.18    1.48
   1   2  -6   26.04    2.11
  -1   2   6   23.90    2.04
   1  -2  -6   26.35    1.52
  -1   2   6   23.05    1.43
  -1   2   6   21.97    1.82
   1   2  -6   27.80    1.99
  -1  -2   6   27.05    2.31
   1  -2  -6   26.48    2.22
  -1   2   5  194.25    9.86
   1   2  -5  177.66    9.48
   1  -2  -5  199.44   10.00
  -1  -2   5  160.47    9.96
   1   2  -5  203.48    9.93
   1   2  -5  176.46    9.46
   1  -2  -5  180.59    9.41
   1  -2  -5  211.36    9.85
   1  -2  -5  194.21    9.82
  -1   2   5  175.55    9.37
  -1  -2   5  174.68    9.97
   1  -2  -5  190.85    9.40
  -1   2   5  160.85   10.18
   1  -2  -4  318.35   15.30
   1  -2  -4  291.57   14.85
  -1  -2   4  260.98   15.27
   1  -2  -4  291.45   14.82
   1   2  -4  287.95   14.92
   1   2  -4  315.87   15.25
  -1   2   4  317.54   15.16
  -1   2   4  283.53   14.84
   1   2  -3   60.12    3.19
   1  -2  -3   63.31    3.27
  -1  -2   3   57.58    3.64
   1   2  -3   66.27    3.42
  -1   2   3   62.48    3.28
   1  -2  -3   62.46    3.23
   1  -2  -3   66.96    3.62
  -1  -2   2   99.57    5.67
  -1   2   2   90.61    5.58
   1  -2  -2  103.55    5.34
   1  -2  -2  103.76    5.38
   1  -2  -2  118.84    5.66
  -1   2   2  113.35    5.43
  -1   2   1   15.78    1.13
  -1  -2   1   14.24    1.32
  -1   2   1   17.45    0.98
   1  -2  -1   18.40    1.25
  -1   2   1   17.69    1.03
   1  -2  -1   16.64    0.93
  -1   2   0 1670.47   81.73
  -1   2   0 1554.30   81.78
  -1  -2   0 1600.98   81.84
   1  -2   0 1672.44   81.86
   1   2   1  294.94   15.40
  -1  -2  -1  331.04   15.70
  -1   2  -1  326.55   15.85
  -1  -2  -2  310.55   15.08
   1  -2   2  301.55   14.94
   1   2   2  280.57   14.87
  -1  -2  -2  303.17   15.26
  -1   2  -2  312.49   15.38
  -1  -2  -3  667.90   34.45
   1   2   3  740.44   34.59
  -1  -2  -3  656.86   34.91
  -1  -2  -3  661.56   34.75
   1  -2   3  660.42   34.79
  -1   2  -3  668.52   35.00
   1  -2   3  703.17   34.52
  -1   2  -3  684.75   34.35
  -1  -2  -3  679.02   34.49
  -1  -2  -4  197.63    8.35
   1   2   4  166.16    8.49
  -1   2  -4  162.62    8.69
  -1  -2  -4  162.80    8.69
  -1   2  -4  155.78    8.14
  -1   2  -4  156.92    8.79
  -1  -2  -4  156.01    8.90
   1  -2   4  148.25    8.71
   1  -2   4  159.09    8.59
  -1  -2  -4  157.14    8.77
   1  -2   4  160.48    8.33
  -1   2  -4  149.16    8.89
  -1  -2  -5   75.61    4.04
  -1  -2  -5   75.16    4.70
   1   2   5   83.11    4.46
  -1   2  -5   75.24    3.93
  -1   2  -5   68.64    4.81
   1  -2   5   81.85    4.72
   1  -2   5   77.89    4.16
  -1   2  -5   75.53    4.68
  -1   2  -5   80.36    4.63
   1  -2   5   73.68    4.50
  -1  -2  -5   77.92    4.88
  -1  -2  -5   76.80    4.12
  -1  -2  -5   82.52    4.66
  -1   2  -6    1.01    0.86
  -1  -2  -6    0.77    0.28
  -1  -2  -6    0.21    0.84
   1  -2   6    0.09    0.90
   1   2   6   -0.09    0.85
   1  -2   6    0.24    0.39
   1  -2   6   -0.11    1.07
  -1  -2  -6   -0.26    1.02
   1   2   6    0.15    0.57
  -1  -2  -6    0.81    0.96
  -1   2  -6    1.29    0.19
   1   2   6    0.16    0.77
   1   2   6   -0.04    0.37
  -1   2  -6    0.77    1.07
  -1   2  -6    0.11    0.83
   1   2   7    0.51    0.59
   1   2   7   -0.11    0.88
  -1   2  -7    0.54    0.68
  -1  -2  -7    0.18    0.24
  -1  -2  -7    0.50    0.90
   1   2   7   -0.20    0.42
  -1  -2  -7   -0.34    0.50
   1   2   7    0.57    0.54
   1  -2   7   -0.42    1.13
  -1  -2  -7   -0.23    0.67
  -1   2  -7    0.93    1.00
   1  -2   7   -0.06    0.43
   1  -2   7    1.10    1.17
  -1   2  -7   -0.22    0.68
  -1   2  -7    0.15    1.10
  -1   2  -7    0.07    0.30
   1   2   7    0.72    1.02
   1  -2   7   -0.05    0.46
  -1  -2  -7    0.42    1.10
  -1  -2  -7    0.04    0.36
  -1  -2  -8   29.48    2.63
   1   2   8   27.91    2.62
  -1  -2  -8   31.03    2.30
  -1   2  -8   25.46    2.71
   1   2   8   27.33    1.97
   1  -2   8   30.48    2.07
   1  -2   8   28.11    2.77
  -1  -2  -8   25.63    1.71
  -1  -2  -8   27.57    2.82
   1  -2   8   26.12    2.81
   1  -2   8   31.94    2.29
  -1  -2  -8   28.98    1.88
   1   2   8   28.04    2.63
   1   2   8   24.35    1.88
  -1   2  -8   25.95    1.78
  -1  -2  -8   29.21    2.02
  -1  -2  -8   27.68    2.77
  -1   2  -8   30.62    2.75
   1   2   8   32.40    2.25
  -1  -2  -8   33.52    2.23
  -1   2  -8   33.75    2.58
  -1   2  -8   32.57    2.31
  -1   2  -9   57.89    3.30
  -1   2  -9   63.44    3.77
   1  -2   9   57.10    3.45
   1   2   9   58.60    4.00
  -1  -2  -9   58.47    3.35
  -1  -2  -9   43.51    4.07
  -1  -2  -9   54.65    3.44
   1   2   9   50.31    4.03
   1  -2   9   53.98    4.28
  -1  -2  -9   51.14    3.93
  -1  -2  -9   54.27    4.22
  -1  -2  -9   52.37    3.52
   1   2   9   56.42    3.56
  -1   2  -9   46.52    3.08
  -1  -2 -10   65.29    4.17
  -1  -2 -10   61.62    3.92
  -1   2 -10   72.24    4.02
  -1   2 -10   74.04    4.27
   1   2  10   79.84    4.71
   1  -2  10   63.66    4.92
  -1  -2 -10   67.62    3.92
   1   2  10   60.20    4.07
   1   2  10   68.44    4.80
  -1  -2 -10   68.15    4.80
  -1   2 -10   66.73    3.87
  -1   2 -11    0.54    0.63
   1  -2  11    1.64    1.22
   1  -2  11    0.99    0.82
  -1  -2 -11    1.12    0.66
   1   2  11    0.31    0.87
   1   2  11   -0.13    1.22
   1  -2  11    0.57    0.61
  -1  -2 -11    0.24    0.92
   1  -2  12    1.51    0.46
  -1   2 -12    1.59    0.46
   1  -2  12    1.30    0.85
   1   2  12    2.23    0.54
   1   2  12    2.76    0.76
  -1  -3  12    4.37    0.51
   1  -3 -12    3.38    0.95
   1   3 -12    4.96    0.67
  -1   3  12    5.54    0.76
   1  -3 -12    6.63    0.76
  -1  -3  12    5.07    0.82
   1   3 -11   11.67    1.09
   1  -3 -11    8.86    1.59
  -1  -3  11    8.26    1.26
  -1  -3  11   12.03    1.19
  -1  -3  11   11.31    1.04
   1  -3 -11   10.84    1.15
  -1   3  11   10.59    1.22
   1   3 -11   12.92    1.22
  -1  -3  11   10.25    1.69
   1   3 -10    0.77    0.67
  -1  -3  10   -0.07    0.56
  -1   3  10    0.61    0.74
  -1  -3  10    1.33    1.49
  -1  -3  10    0.40    0.65
   1  -3 -10    0.38    0.66
  -1  -3  10   -0.10    0.82
  -1   3   9    1.40    1.23
  -1  -3   9    0.17    0.66
   1  -3  -9    0.49    0.34
  -1   3   9    0.13    1.03
   1  -3  -9    0.52    0.62
  -1  -3   9    0.52    0.49
   1   3  -9    0.75    0.70
   1  -3  -9    0.62    1.16
   1  -3  -9    0.31    0.64
  -1  -3   9   -0.83    1.36
  -1   3   9   -0.41    1.14
  -1   3   9    0.70    0.72
   1   3  -9    0.04    0.30
  -1   3   9   -0.11    0.81
  -1  -3   9    0.09    0.69
   1  -3  -9    0.47    1.04
  -1   3   9    0.39    0.51
  -1  -3   9    0.17    1.42
   1  -3  -9   -0.09    0.36
   1   3  -9    0.31    0.35
  -1  -3   9   -0.20    0.66
  -1   3   8   18.81    2.20
   1  -3  -8   26.35    2.37
  -1   3   8   21.50    2.17
  -1  -3   8   22.02    1.62
  -1  -3   8   20.93    2.46
   1  -3  -8   19.09    2.20
  -1   3   8   19.39    1.75
   1   3  -8   21.50    1.77
  -1  -3   8   17.29    2.50
  -1  -3   8   23.12    1.84
   1   3  -8   22.17    2.03
  -1   3   8   23.17    2.14
  -1   3   8   23.02    1.64
   1  -3  -8   22.20    1.71
  -1  -3   8   21.00    1.88
  -1   3   8   19.15    1.85
   1   3  -8   21.53    1.42
   1  -3  -8   19.97    1.40
   1  -3  -8   23.66    1.74
   1  -3  -8   20.42    1.42
   1   3  -8   22.23    1.46
   1  -3  -8   18.28    1.97
  -1  -3   8   22.77    1.78
   1   3  -7  133.08    7.10
   1  -3  -7  136.22    7.06
   1  -3  -7  128.53    7.27
  -1   3   7  130.12    7.66
   1  -3  -7  154.67    8.07
  -1   3   7  157.42    7.82
   1  -3  -7  145.49    7.77
   1  -3  -7  139.27    7.82
  -1  -3   7  139.63    8.09
   1   3  -7  130.03    7.60
  -1  -3   7  119.55    8.04
  -1  -3   7  137.63    7.50
  -1   3   7  122.14    7.48
   1  -3  -7  131.89    7.06
  -1   3   7  135.68    7.83
   1  -3  -6   50.05    2.69
  -1  -3   6   47.67    3.57
   1  -3  -6   51.17    3.29
  -1  -3   6   45.87    3.54
  -1   3   6   48.51    3.15
  -1   3   6   51.77    3.30
   1  -3  -6   49.19    2.71
   1   3  -6   50.59    3.13
   1  -3  -6   57.12    3.52
   1   3  -6   47.47    2.78
   1   3  -6   47.97    2.76
   1  -3  -6   53.08    3.31
  -1   3   6   46.80    2.70
  -1   3   6   41.56    3.02
   1   3  -5    2.00    0.42
   1   3  -5    2.40    0.45
   1  -3  -5    3.08    0.36
   1  -3  -5    2.16    0.36
   1  -3  -5    4.24    0.85
  -1  -3   5    2.11    1.06
  -1  -3   5    1.94    1.15
  -1   3   5    2.81    0.80
   1  -3  -5    1.61    0.87
  -1   3   5    2.28    0.36
   1   3  -4   50.21    2.69
   1  -3  -4   62.60    3.37
  -1  -3   4   50.87    3.42
  -1   3   4   51.35    3.05
   1  -3  -4   58.58    2.80
   1  -3  -4   56.18    2.76
  -1  -3   4   53.84    3.38
  -1   3   4   48.57    2.65
  -1   3   4   54.54    3.46
   1   3  -4   57.02    2.95
  -1   3   3  140.44    7.08
   1   3  -3  136.97    7.11
   1  -3  -3  136.56    7.12
  -1  -3   3  129.37    7.59
   1  -3  -3  140.04    7.08
   1   3  -3  132.45    7.30
   1  -3  -3  147.82    7.53
  -1   3   3  145.50    7.19
   1  -3  -2  147.46    7.47
  -1  -3   2  140.76    7.87
  -1   3   2  135.38    7.75
  -1   3   2  153.38    7.56
   1   3  -2  143.14    7.47
   1  -3  -2  161.31    7.83
  -1   3   1  156.97    8.99
   1  -3  -1  173.14    8.79
   1  -3  -1  181.72    9.12
  -1   3   1  184.62    8.92
  -1   3   1  177.84    8.86
   1   3  -1  149.12    8.91
   1  -3  -1  177.10    8.75
   1   3   0    6.96    0.49
   1  -3   0    8.87    0.98
  -1  -3   0    7.75    0.81
  -1   3   0    8.12    0.74
  -1   3   0    8.60    0.60
  -1   3  -1  199.28    9.79
  -1   3  -1  208.57   10.23
   1   3   1  182.65    9.64
   1  -3   1  192.82    9.76
  -1  -3  -1  210.16   10.01
  -1   3  -2   20.59    1.83
   1   3   2   16.85    1.02
  -1  -3  -2   18.59    1.35
   1  -3   2   19.29    1.16
  -1  -3  -2   16.72    1.50
  -1   3  -2   19.62    1.00
  -1  -3  -3   16.89    0.98
   1   3   3   16.14    0.92
  -1  -3  -3   13.65    1.53
  -1   3  -3   14.58    0.88
   1  -3   3   15.47    1.02
  -1   3  -3   15.24    1.67
  -1  -3  -3   17.54    1.35
   1   3   3   14.31    1.34
   1   3   4  105.64    5.14
  -1  -3  -4   99.70    5.35
   1  -3   4   98.14    4.96
   1  -3   4   92.59    5.43
  -1  -3  -4   97.07    5.55
  -1   3  -4   98.75    4.83
   1   3   4   92.32    4.87
  -1   3  -4   94.37    5.61
   1   3   4   86.28    5.24
  -1   3  -4   91.83    5.41
  -1  -3  -4   97.10    4.94
  -1   3  -4   90.45    4.72
  -1   3  -5   37.79    2.07
   1   3   5   45.15    2.64
   1   3   5   39.76    2.28
   1  -3   5   41.52    2.34
   1  -3   5   39.10    2.92
   1  -3   5   38.24    2.76
  -1   3  -5   38.52    2.84
  -1  -3  -5   43.43    3.10
  -1  -3  -5   43.85    2.86
  -1  -3  -5   43.87    2.95
  -1  -3  -5   42.64    2.32
  -1  -3  -5   41.72    2.25
   1   3   5   41.69    2.69
  -1   3  -5   41.05    2.20
  -1  -3  -6   71.75    4.71
  -1  -3  -6   66.94    3.89
   1   3   6   81.99    4.51
   1   3   6   74.81    4.00
  -1  -3  -6   71.06    4.25
  -1   3  -6   71.94    4.83
   1  -3   6   66.48    4.67
   1  -3   6   78.59    4.07
  -1  -3  -6   75.65    4.64
  -1   3  -6   73.74    3.88
   1  -3   6   71.81    4.60
  -1   3  -6   69.73    4.67
  -1   3  -6   72.12    4.27
  -1  -3  -6   72.38    4.89
  -1  -3  -6   72.25    3.99
   1   3   6   68.10    4.29
  -1   3  -7   44.20    3.65
  -1  -3  -7   47.33    3.53
   1  -3   7   45.64    3.60
   1   3   7   54.37    3.54
  -1  -3  -7   45.28    2.96
   1  -3   7   49.21    2.97
  -1   3  -7   49.82    3.20
  -1   3  -7   50.66    3.12
   1   3   7   54.78    3.52
  -1   3  -7   47.59    2.74
  -1  -3  -7   46.55    2.75
  -1  -3  -7   51.18    3.00
   1  -3   7   50.00    3.72
  -1  -3  -7   45.86    3.83
   1   3   7   44.45    3.07
   1   3   7   46.81    2.89
  -1  -3  -7   51.49    3.15
  -1  -3  -7   47.45    3.70
  -1  -3  -7   50.44    3.19
   1   3   7   54.44    3.17
   1  -3   7   51.49    3.24
   1   3   8    0.39    0.95
  -1  -3  -8    0.72    1.03
   1  -3   8   -0.19    0.80
   1   3   8    0.50    1.11
  -1   3  -8   -0.27    0.78
   1   3   8    0.14    1.05
  -1  -3  -8    0.09    0.72
   1  -3   8   -0.16    1.33
  -1  -3  -8    0.13    0.53
  -1  -3  -8    0.16    1.15
   1  -3   8   -0.26    0.54
  -1   3  -8    1.23    1.08
  -1   3  -8   -0.23    0.71
  -1  -3  -8   -0.24    0.64
  -1  -3  -8    0.40    0.29
   1  -3   8    0.78    0.69
  -1  -3  -8    0.18    1.22
   1   3   8   -0.26    0.42
  -1   3  -8    0.08    0.31
   1   3   8   -0.17    0.64
  -1  -3  -9   11.03    1.32
  -1  -3  -9   11.90    1.15
   1  -3   9   10.94    1.34
   1  -3   9    8.98    1.99
  -1  -3  -9   11.57    1.71
  -1   3  -9    9.74    1.70
   1   3   9   13.65    1.80
  -1  -3  -9    9.69    1.82
   1   3   9   11.67    1.80
  -1  -3  -9   10.16    1.89
   1  -3   9   10.11    1.16
  -1  -3  -9    9.18    1.16
  -1   3  -9   10.86    0.90
  -1   3  -9   11.69    1.08
   1   3   9    8.39    1.16
   1   3  10    3.17    1.46
  -1  -3 -10    2.89    0.63
  -1  -3 -10    1.08    1.26
   1   3  10    1.53    1.11
  -1  -3 -10    1.49    0.64
  -1  -3 -10    1.33    0.81
  -1   3 -10    3.21    0.93
   1  -3  10    1.48    1.55
   1  -3  10    1.89    0.83
   1   3  11   12.49    1.54
   1  -3  11   13.77    1.41
  -1  -3 -11   10.98    1.50
   1   3  11   10.99    1.69
   1  -3  11   12.99    1.75
  -1   3 -11   14.08    1.30
   1   3  12    0.47    0.42
   1   3  12   -0.06    0.59
  -1   3 -12    0.72    0.43
   1  -3  12   -0.45    0.40
   1  -4 -12    6.10    0.72
  -1  -4  12    5.07    0.82
   1   4 -12    5.57    0.68
   1  -4 -12    4.37    0.95
  -1  -4  12    5.40    0.55
  -1   4  12    5.30    0.70
  -1  -4  11    3.39    1.39
   1   4 -11    5.35    0.75
   1  -4 -11    5.57    0.88
  -1   4  11    7.32    1.26
  -1  -4  11    4.82    0.71
  -1   4  11    4.97    0.88
  -1  -4  11    5.01    1.01
   1  -4 -10    2.79    1.19
  -1   4  10    3.35    1.17
   1   4 -10    2.98    0.75
  -1   4  10    4.48    0.91
  -1  -4  10    0.99    1.43
   1  -4 -10    4.02    0.86
  -1  -4  10    4.02    1.03
   1  -4  -9   14.57    1.12
   1  -4  -9   11.94    1.90
  -1   4   9   18.70    1.97
   1  -4  -9   15.23    1.97
  -1  -4   9   16.77    1.35
  -1  -4   9   16.03    2.48
  -1  -4   9   17.44    1.67
  -1   4   9   13.34    1.73
  -1  -4   9   10.99    2.26
   1   4  -9   15.18    1.49
  -1   4   9   15.26    1.54
  -1   4   9   12.08    1.96
   1  -4  -9   14.33    1.16
   1   4  -9   15.55    1.16
   1  -4  -9   15.11    1.45
   1   4  -9   15.06    1.08
  -1  -4   8   12.88    1.18
  -1   4   8   14.53    1.86
   1   4  -8   13.32    1.34
  -1   4   8   13.05    1.64
   1  -4  -8   12.43    0.99
   1   4  -8   11.90    0.98
   1  -4  -8   15.25    1.85
   1  -4  -8   12.45    1.66
  -1   4   8   14.14    1.19
  -1   4   8   12.13    1.61
   1  -4  -8   10.89    1.23
  -1  -4   8   13.50    2.09
  -1  -4   8    9.58    1.99
  -1   4   8   13.70    1.34
  -1  -4   8   13.73    1.47
   1  -4  -8   12.38    0.99
   1   4  -8   12.53    1.01
  -1   4   8    8.54    1.35
   1  -4  -8   13.03    1.25
   1  -4  -8   12.41    1.62
  -1  -4   7   -0.16    0.61
  -1  -4   7    0.50    1.29
   1  -4  -7    0.20    0.32
  -1   4   7    1.51    1.08
   1  -4  -7    0.24    0.49
   1  -4  -7    0.34    0.84
  -1   4   7    1.37    0.83
   1   4  -7    0.21    0.55
   1  -4  -7    0.07    0.30
  -1   4   7    0.19    0.85
  -1  -4   7    0.32    0.52
   1   4  -7    0.33    0.35
   1  -4  -7    0.53    0.95
  -1   4   7    0.25    0.64
  -1  -4   7    0.72    1.35
  -1   4   7    0.18    0.25
  -1   4   7    0.58    0.42
   1  -4  -7    0.34    0.91
  -1   4   7   -0.17    0.62
   1  -4  -6   67.86    4.21
  -1   4   6   66.89    3.99
   1  -4  -6   65.08    3.39
   1   4  -6   63.17    3.49
  -1  -4   6   49.59    4.17
   1  -4  -6   69.95    4.05
  -1   4   6   58.15    3.76
  -1   4   6   59.45    3.41
   1  -4  -6   63.65    3.37
  -1   4   6   59.28    3.77
  -1  -4   6   55.89    4.15
   1  -4  -6   64.66    3.99
   1   4  -6   60.45    3.46
  -1   4   6   53.32    4.29
   1  -4  -5    1.07    0.68
   1  -4  -5    1.05    0.29
   1   4  -5    0.39    0.40
  -1   4   5    0.96    0.75
  -1  -4   5    0.22    1.09
  -1  -4   5    0.10    1.06
   1  -4  -5    1.09    0.28
  -1   4   5    1.22    0.34
   1  -4  -5    1.75    0.91
   1  -4  -4  156.27    7.52
   1   4  -4  142.79    7.47
  -1  -4   4  133.62    8.14
  -1  -4   4  150.78    8.14
  -1   4   4  141.15    7.78
   1   4  -4  157.54    7.73
  -1   4   4  139.47    7.44
   1  -4  -4  166.21    8.14
   1  -4  -3  455.73   21.98
   1  -4  -3  424.31   21.49
   1   4  -3  437.36   21.54
  -1  -4   3  382.87   22.02
  -1   4   3  422.51   21.59
  -1   4   3  422.06   21.48
   1   4  -2   11.07    0.91
   1  -4  -2   10.98    0.67
   1  -4  -2   11.21    1.26
   1   4  -2   11.22    0.69
  -1   4   2   11.99    0.82
   1  -4  -2   10.40    0.63
  -1   4   2    9.65    1.06
  -1   4   1 1242.58   63.22
   1   4  -1 1281.90   63.47
  -1   4   1 1173.30   63.37
   1  -4  -1 1270.94   63.12
   1  -4  -1 1261.89   63.53
  -1  -4   1 1243.81   63.25
  -1   4   1 1294.39   63.27
   1   4   0  157.33    9.09
   1   4   0  163.62    8.93
  -1   4   0  171.48    9.12
  -1  -4   0  182.13    9.14
  -1   4   0  187.67    9.03
   1  -4   0  193.09    9.33
   1  -4   0  176.46    8.85
  -1   4   0  182.13    8.99
  -1   4  -1   39.08    1.88
   1  -4   1   36.26    1.86
   1   4   1   30.39    1.66
   1  -4   1   41.71    2.35
  -1  -4  -1   37.10    2.18
   1   4   1   30.76    2.05
  -1  -4  -2    1.83    0.91
   1   4   2    1.25    0.18
  -1   4  -2    1.50    0.36
   1   4   2    0.97    0.56
  -1  -4  -2    1.73    0.66
  -1   4  -2    1.78    1.13
   1  -4   2    3.75    0.41
  -1   4  -2    1.57    0.16
  -1  -4  -3  128.82    7.00
   1   4   3  121.99    6.58
   1  -4   3  136.32    6.71
  -1  -4  -3  127.00    6.68
  -1  -4  -3  127.45    7.19
  -1  -4  -3  129.13    7.15
  -1   4  -3  127.11    7.32
  -1   4  -3  134.96    6.57
   1   4   3  120.47    7.00
  -1  -4  -4  121.02    6.26
  -1  -4  -4  124.08    6.72
   1   4   4  120.06    6.20
  -1   4  -4  109.33    6.91
  -1  -4  -4  117.14    6.74
  -1  -4  -4  117.51    6.91
  -1  -4  -4  119.21    6.85
   1   4   4  113.36    6.62
   1  -4   4  123.06    6.30
  -1   4  -4  120.82    6.15
   1   4   5   63.35    3.46
   1  -4   5   58.66    3.17
  -1  -4  -5   57.23    3.65
   1  -4   5   55.23    3.65
  -1   4  -5   55.98    3.00
  -1   4  -5   54.88    3.90
   1   4   5   57.93    3.53
  -1  -4  -5   58.41    3.74
  -1  -4  -5   52.56    3.86
   1   4   5   51.91    3.07
  -1  -4  -6   27.34    1.70
  -1  -4  -6   27.34    2.03
  -1   4  -6   27.96    2.04
   1   4   6   25.49    1.73
   1  -4   6   26.36    1.78
  -1  -4  -6   29.73    1.92
  -1  -4  -6   28.14    2.38
  -1   4  -6   25.45    2.45
  -1  -4  -6   25.99    2.58
  -1  -4  -6   26.51    1.98
  -1  -4  -6   25.70    2.37
   1  -4   6   28.17    2.40
   1   4   6   33.04    2.26
  -1   4  -6   29.01    1.63
   1  -4   6   27.63    2.06
   1   4   7    0.81    0.65
  -1  -4  -7    0.65    0.34
  -1   4  -7   -0.64    1.06
  -1   4  -7    1.17    0.63
   1  -4   7    0.84    0.53
   1   4   7    1.62    1.04
  -1  -4  -7    1.31    0.93
   1   4   7    0.57    0.96
  -1   4  -7    0.16    0.67
   1   4   7    1.01    0.94
  -1  -4  -7    0.65    0.66
  -1  -4  -7    0.31    0.52
  -1  -4  -7   -0.34    1.26
  -1  -4  -7    1.74    1.20
  -1   4  -7    0.58    1.05
  -1  -4  -7    0.61    0.66
   1  -4   7    1.15    0.79
  -1   4  -7    0.73    0.30
   1   4   7    0.52    0.55
   1  -4   7    1.45    0.72
   1  -4   7    0.55    1.18
   1   4   8   13.77    1.27
  -1   4  -8   15.35    1.53
   1   4   8   15.42    1.87
   1  -4   8   13.92    1.31
   1   4   8   18.51    1.99
   1   4   8   12.08    1.39
  -1  -4  -8   14.88    1.46
   1   4   8   18.33    1.93
  -1   4  -8   14.60    1.39
   1  -4   8   15.60    2.24
  -1  -4  -8   12.36    1.83
  -1  -4  -8   13.75    2.05
   1  -4   8   15.97    1.59
  -1   4  -8   14.54    1.06
  -1   4  -8   14.32    1.87
   1  -4   8   13.80    1.52
  -1  -4  -8   14.21    1.51
  -1  -4  -9    0.73    0.78
  -1   4  -9    0.18    0.80
   1  -4   9   -0.38    0.57
   1   4   9   -0.69    1.06
   1  -4   9   -0.17    1.48
  -1  -4  -9    0.67    1.20
  -1  -4  -9    0.19    1.15
  -1  -4  -9    0.61    0.67
   1   4   9    0.69    1.19
   1  -4   9    0.48    0.87
  -1   4  -9   -0.19    0.34
  -1  -4 -10   12.57    1.40
  -1  -4 -10   12.72    1.20
  -1  -4 -10   10.85    1.74
   1   4  10   15.31    1.83
   1  -4  10   14.35    2.11
   1  -4  10   14.16    1.26
   1   4  10   12.51    1.85
  -1   4 -10   14.48    1.45
   1  -4  10   14.48    1.49
   1   4  11    5.34    1.15
   1  -4  11    6.58    1.40
  -1   4 -11    4.62    0.84
  -1  -4 -11    3.45    1.00
   1  -4  11    4.26    0.83
   1  -5 -12    1.36    0.47
  -1   5  12    0.87    0.43
  -1  -5  12    0.99    0.31
   1   5 -12    1.12    0.46
  -1  -5  12    1.06    0.71
  -1  -5  12    0.69    0.52
  -1  -5  11   45.49    3.19
   1  -5 -11   43.52    3.51
  -1   5  11   49.92    3.50
  -1  -5  11   48.03    3.60
  -1   5  11   49.36    3.09
   1  -5 -11   52.84    3.11
   1   5 -11   53.32    3.00
   1  -5 -10    0.82    0.71
   1  -5 -10    0.61    1.25
  -1   5  10   -1.04    1.17
  -1  -5  10    0.16    1.31
  -1  -5  10   -0.20    0.57
  -1   5  10   -0.24    0.71
  -1  -5  10    0.38    0.76
  -1  -5   9    8.74    1.31
   1   5  -9   12.56    1.33
   1  -5  -9    9.46    1.71
   1  -5  -9   10.49    1.17
  -1  -5   9   10.27    1.16
  -1   5   9   13.47    1.68
  -1   5   9   11.31    1.85
   1   5  -9    8.94    0.78
  -1  -5   9    7.14    1.82
   1   5  -9    9.29    0.88
   1  -5  -9    8.18    0.83
  -1  -5   9   10.76    1.05
   1  -5  -9   11.32    1.69
   1  -5  -8  130.62    7.88
   1  -5  -8  128.93    7.30
  -1  -5   8  139.24    7.57
  -1   5   8  136.13    7.99
  -1  -5   8  119.71    8.30
  -1  -5   8  135.71    7.35
   1   5  -8  142.85    7.50
   1   5  -8  132.31    7.07
   1  -5  -8  138.03    8.11
  -1  -5   8  134.07    8.23
  -1   5   8  147.99    7.99
  -1   5   8  133.65    7.66
   1   5  -8  126.11    7.02
   1  -5  -8  136.26    7.95
   1  -5  -8  128.98    7.04
  -1   5   7    0.09    0.29
  -1  -5   7   -0.60    1.35
  -1   5   7   -0.23    0.88
   1  -5  -7   -0.42    1.01
   1  -5  -7    0.51    0.31
   1   5  -7    0.34    0.34
   1   5  -7    0.38    0.62
  -1   5   7    0.20    0.54
  -1  -5   7    0.06    0.45
   1   5  -7    0.04    0.34
   1  -5  -7    1.18    0.98
  -1  -5   7    0.70    1.34
  -1  -5   7    0.19    0.49
  -1   5   7    0.11    0.79
  -1   5   7   -0.27    0.76
   1  -5  -7    0.61    0.94
   1  -5  -7    0.25    0.51
  -1  -5   7    0.08    0.66
  -1   5   7    0.36    0.82
  -1   5   6   -0.09    0.89
  -1   5   6    0.10    0.74
  -1   5   6    0.15    1.19
   1  -5  -6    1.56    0.99
   1  -5  -6    0.31    0.28
   1  -5  -6    0.05    0.45
  -1  -5   6    1.93    1.26
  -1   5   6    0.55    0.64
   1   5  -6    0.38    0.35
  -1  -5   6    0.51    0.37
  -1  -5   6    0.13    1.19
  -1   5   6    0.21    0.32
  -1   5   6    0.08    0.66
   1  -5  -6    0.73    0.88
   1  -5  -6    0.19    0.73
   1   5  -5    0.29    0.20
   1  -5  -5    0.33    0.26
   1  -5  -5    0.38    0.71
   1  -5  -5    0.13    0.55
  -1   5   5    0.58    0.95
  -1  -5   5    0.87    1.18
  -1   5   5    0.21    0.14
   1   5  -5    0.04    0.36
   1  -5  -5    0.40    0.83
  -1  -5   5    0.32    0.99
  -1   5   5    0.53    0.35
   1   5  -4    0.93    0.24
  -1  -5   4   -0.21    1.23
   1  -5  -4    1.10    0.90
  -1  -5   4    0.87    0.93
   1   5  -4    0.36    0.46
  -1   5   4    0.97    0.59
  -1   5   4    1.12    0.24
   1  -5  -4    1.18    0.29
  -1   5   4    1.62    0.40
  -1   5   3  473.75   23.90
   1   5  -3  482.85   23.95
   1  -5  -3  517.97   23.87
  -1  -5   3  464.43   24.36
  -1   5   3  415.73   24.29
   1  -5  -3  486.02   23.83
   1   5  -3  448.89   23.75
  -1   5   3  475.42   24.07
   1  -5  -3  526.23   24.46
  -1   5   3  496.33   24.01
  -1   5   2   23.66    1.47
   1   5  -2   25.97    1.65
  -1   5   2   23.51    1.79
   1  -5  -2   26.11    1.99
  -1  -5   2   25.24    1.44
   1  -5  -2   25.21    1.37
   1  -5  -2   24.21    1.41
  -1   5   2   25.91    1.57
   1   5  -2   27.91    1.44
  -1   5   1   14.79    1.01
   1  -5  -1   12.51    1.37
   1   5  -1   15.14    1.30
  -1  -5   1   17.38    1.13
  -1   5   1   12.79    1.17
  -1   5   1   14.63    0.96
   1  -5   0    1.32    0.20
   1   5   0    1.10    0.36
  -1   5   0    0.88    0.32
   1   5   0    0.80    0.70
   1  -5   0    1.02    0.86
  -1  -5   0    1.32    0.65
  -1   5   0    0.78    0.34
   1   5   0    0.91    0.50
  -1   5   0    0.59    0.56
   1   5   1   70.13    4.30
   1  -5   1   69.95    3.88
  -1   5  -1   77.41    3.94
  -1  -5  -1   77.33    4.22
   1  -5   1   77.61    4.40
   1   5   1   69.27    4.09
  -1   5  -2   17.72    0.94
   1  -5   2   18.02    1.13
  -1   5  -2   18.93    1.19
  -1  -5  -2   16.92    1.55
   1   5   2   14.31    1.37
  -1  -5  -3   53.29    3.44
  -1  -5  -3   52.88    3.43
   1   5   3   53.57    2.97
  -1  -5  -3   60.16    3.63
   1  -5   3   61.85    3.14
  -1  -5  -3   57.37    3.68
  -1   5  -3   59.51    2.96
   1   5   3   58.03    3.45
  -1  -5  -4   62.49    4.22
  -1  -5  -4   64.81    3.56
  -1  -5  -4   63.15    4.01
   1   5   4   62.05    3.45
   1  -5   4   70.72    3.60
  -1  -5  -4   62.44    4.14
   1  -5   4   61.96    3.98
   1   5   4   59.40    3.91
  -1   5  -4   69.17    3.42
  -1  -5  -5   56.85    3.47
   1   5   5   75.21    3.92
   1   5   5   60.05    3.43
  -1  -5  -5   64.12    4.09
   1  -5   5   69.02    3.57
  -1  -5  -5   63.46    4.17
  -1   5  -5   58.06    4.01
  -1  -5  -5   63.44    4.33
  -1  -5  -5   69.08    4.30
  -1   5  -5   61.38    4.26
  -1   5  -5   65.52    3.37
   1   5   5   64.48    3.88
   1   5   6    3.34    0.92
  -1  -5  -6    3.60    0.52
   1   5   6    6.24    1.03
   1  -5   6    3.67    0.60
  -1  -5  -6    3.99    0.85
  -1  -5  -6    4.53    0.80
  -1   5  -6    4.23    0.81
  -1   5  -6    4.77    1.08
   1  -5   6    3.24    1.17
  -1  -5  -6    5.23    0.81
  -1  -5  -6    3.69    1.03
   1  -5   6    2.56    0.77
  -1  -5  -6    3.97    1.17
   1  -5   6    4.50    1.02
  -1  -5  -6    2.51    1.29
  -1   5  -6    4.04    0.42
   1   5   7  117.81    6.58
  -1   5  -7  102.78    6.13
  -1  -5  -7   99.23    5.73
   1   5   7  122.56    6.52
   1  -5   7  112.07    5.95
  -1  -5  -7  103.33    6.05
  -1  -5  -7  117.39    6.67
  -1   5  -7  117.50    6.09
  -1  -5  -7  105.50    6.12
   1   5   7  129.70    6.52
   1  -5   7  102.93    6.64
  -1  -5  -7  111.35    6.73
   1  -5   7  115.46    6.47
   1   5   7  104.28    6.04
  -1  -5  -7  106.26    6.92
  -1   5  -7  103.43    5.62
   1  -5   7  108.92    6.18
   1   5   7   81.83    6.08
   1  -5   8    1.92    0.86
   1  -5   8    3.47    0.70
  -1   5  -8    2.70    0.68
  -1  -5  -8    1.53    0.80
   1   5   8    5.24    1.35
   1   5   8    3.51    1.18
   1  -5   8    2.15    1.54
  -1   5  -8    3.55    0.90
   1  -5   8    3.26    0.99
  -1  -5  -8    2.75    1.36
   1   5   8    1.20    1.08
  -1  -5  -8    1.15    0.70
   1   5   8    2.56    0.62
  -1   5  -8    2.93    0.42
   1  -5   9    9.40    1.27
   1   5   9    7.69    1.53
  -1  -5  -9    9.19    1.24
   1  -5   9    9.12    1.04
   1   5   9   11.08    1.65
  -1   5  -9    8.97    1.22
   1  -5   9    7.91    1.87
  -1  -5  -9    8.13    1.67
   1  -5  10    3.92    0.94
   1   5  10    1.01    1.12
   1   5  10    3.46    1.21
   1  -5  10    0.90    1.33
  -1  -5 -10    2.13    1.12
  -1   5 -10    2.70    0.83
   1  -5  11   39.35    2.68
  -1   5 -11   43.94    2.69
   1   5  11   37.19    3.00
   1   5  11   49.25    3.12
  -1  -5 -11   36.15    2.94
   1   5  11   44.24    2.63
   1  -5  11   40.32    3.09
   1   6 -12    7.63    0.74
  -1   6  12    8.81    1.03
  -1   6  12    7.41    0.67
  -1  -6  12    6.37    0.80
   1  -6 -12    8.07    0.75
  -1  -6  12    7.55    0.61
  -1   6  11    3.63    1.06
  -1  -6  11    5.12    1.22
   1  -6 -11    4.71    0.76
   1   6 -11    4.84    0.67
   1  -6 -11    4.43    1.16
  -1  -6  11    3.63    0.83
  -1  -6  10  197.34   11.55
   1  -6 -10  202.47   10.83
   1   6 -10  218.70   10.88
  -1  -6  10  195.11   11.01
  -1   6  10  206.97   11.44
  -1  -6  10  200.77   10.67
   1  -6 -10  189.57   11.42
   1  -6  -9  147.55    8.10
   1   6  -9  167.73    8.52
  -1  -6   9  153.33    8.27
  -1  -6   9  156.44    9.28
  -1   6   9  152.49    9.14
   1  -6  -9  138.35    9.01
  -1  -6   9  147.00    8.28
   1  -6  -9  150.95    8.38
   1  -6  -9  149.15    9.08
  -1   6   9  162.13    8.47
  -1   6   9  157.91    9.02
  -1  -6   9  157.41    8.61
   1   6  -8  101.70    5.77
  -1  -6   8  114.26    7.06
  -1   6   8  116.62    6.84
   1  -6  -8  110.42    6.91
  -1   6   8  113.24    6.19
   1  -6  -8  108.21    6.09
   1  -6  -8  110.88    6.74
  -1   6   8   99.10    6.23
   1  -6  -8  108.83    6.72
   1  -6  -8  114.56    5.86
   1  -6  -8  100.91    5.83
  -1   6   8  117.92    6.77
  -1  -6   8  104.91    6.03
   1   6  -8  117.56    6.29
   1   6  -8  105.25    5.83
  -1  -6   8  112.54    6.32
  -1  -6   7  287.81   14.82
   1  -6  -7  293.79   14.61
  -1   6   7  302.92   15.42
   1  -6  -7  271.14   14.83
  -1  -6   7  287.90   15.71
   1   6  -7  270.73   14.62
   1  -6  -7  294.28   15.64
  -1   6   7  266.92   15.05
  -1   6   7  322.51   15.52
  -1  -6   7  289.12   14.81
   1  -6  -7  308.92   15.55
   1  -6  -7  291.82   15.39
  -1   6   7  294.53   14.88
  -1   6   7  285.92   14.70
   1  -6  -7  265.67   14.57
   1   6  -7  287.30   14.65
   1   6  -7  284.93   14.99
  -1   6   7  233.02   15.66
  -1   6   6   11.68    1.81
  -1   6   6   11.94    1.41
  -1  -6   6    9.93    0.98
  -1  -6   6    7.05    1.72
   1  -6  -6    9.18    0.99
  -1   6   6    8.88    1.20
   1   6  -6   11.38    0.95
  -1  -6   6    9.65    1.69
  -1   6   6    9.52    1.39
   1  -6  -6   11.12    0.84
   1   6  -6    8.78    1.08
  -1   6   6   10.22    0.93
  -1  -6   6   12.82    1.09
   1  -6  -6   10.04    1.41
   1  -6  -6   12.84    1.63
   1  -6  -6    9.92    0.80
  -1  -6   6   10.25    1.09
   1   6  -5    4.54    0.63
   1   6  -5    4.64    0.44
   1  -6  -5    4.38    0.49
  -1   6   5    3.74    0.37
   1  -6  -5    3.53    0.84
  -1   6   5    4.22    1.28
  -1   6   5    5.11    0.88
  -1  -6   5    3.29    1.21
   1  -6  -5    3.31    0.81
   1  -6  -5    2.66    1.00
  -1  -6   5    5.49    1.03
   1  -6  -5    3.73    0.43
  -1   6   4   15.02    1.02
   1  -6  -4   15.43    1.03
   1   6  -4   16.07    1.05
  -1  -6   4   16.31    1.65
  -1  -6   4   18.33    1.80
   1  -6  -4   17.29    1.50
  -1   6   4   15.72    1.32
   1  -6  -4   15.96    1.67
   1  -6  -4   16.28    1.01
  -1   6   4   18.01    1.22
  -1   6   4   15.52    1.68
   1   6  -4   15.31    1.29
   1   6  -3  676.67   34.20
   1  -6  -3  691.50   34.08
  -1   6   3  611.61   34.60
  -1   6   3  665.13   34.29
   1   6  -3  669.27   33.99
   1  -6  -3  705.22   34.73
  -1  -6   3  665.79   34.62
  -1  -6   3  643.70   34.67
  -1   6   3  688.20   34.15
  -1   6   3  700.55   34.25
  -1   6   2  150.75    7.75
  -1   6   2  140.08    8.07
   1   6  -2  154.78    7.91
   1  -6  -2  151.85    8.25
   1   6  -2  152.09    7.67
  -1  -6   2  143.19    7.71
  -1  -6   2  138.90    8.06
   1  -6  -2  154.52    7.66
  -1   6   2  155.00    7.82
  -1   6   2  142.49    7.79
  -1   6   1  239.30   13.23
  -1   6   1  258.10   13.02
  -1   6   1  236.15   12.99
   1   6  -1  274.08   13.08
   1  -6  -1  263.19   13.50
  -1   6   1  253.14   13.07
   1   6  -1  267.32   13.29
   1   6   0    2.92    0.80
   1  -6   0    1.72    0.39
  -1   6   0    1.89    0.63
  -1   6   0    2.14    0.45
  -1   6   0    1.88    0.39
   1   6   0    2.53    0.47
   1  -6   0    2.40    0.98
  -1   6  -1   46.02    2.03
   1  -6   1   46.94    2.66
   1  -6   1   42.49    1.92
   1   6   1   39.03    2.11
  -1  -6  -1   45.32    2.39
  -1   6  -1   43.30    2.25
  -1   6  -1   50.21    2.64
  -1  -6  -1   44.60    2.61
   1   6   1   41.58    2.50
   1   6   1   45.72    2.23
   1  -6   1   45.20    2.44
  -1   6  -2   29.92    1.74
   1   6   2   25.03    2.15
  -1  -6  -2   28.51    2.25
   1  -6   2   27.27    1.63
   1  -6   2   31.46    2.39
  -1  -6  -2   26.98    2.11
  -1   6  -2   27.30    1.45
  -1  -6  -2   31.19    2.19
   1  -6   2   32.80    2.15
   1   6   2   26.59    1.90
   1  -6   3   65.77    4.26
   1   6   3   64.75    4.45
  -1   6  -3   75.46    4.04
   1  -6   3   74.76    3.92
  -1  -6  -3   69.20    4.43
  -1  -6  -3   72.05    4.28
  -1   6  -3   73.56    3.75
  -1  -6  -3   74.44    4.51
   1  -6   3   86.63    4.54
   1   6   3   67.44    4.22
  -1  -6  -4    1.51    1.12
   1   6   4    1.34    0.81
   1  -6   4    1.98    0.42
   1  -6   4    1.42    0.88
  -1  -6  -4    1.53    0.93
   1  -6   4    1.28    0.77
   1   6   4    0.95    0.62
  -1   6  -4    1.93    0.23
   1   6   5  204.12   11.41
  -1  -6  -5  190.13   11.03
   1  -6   5  218.90   10.84
  -1  -6  -5  224.24   11.51
  -1   6  -5  178.51   11.67
   1  -6   5  198.99   11.40
  -1  -6  -5  218.44   11.72
  -1  -6  -5  201.53   10.82
  -1  -6  -5  217.97   11.63
  -1   6  -5  218.82   10.63
  -1   6  -5  190.63   11.06
   1   6   5  207.69   11.15
  -1  -6  -5  204.97   11.38
   1  -6   5  212.01   11.14
   1   6   6   40.10    3.08
   1   6   6   54.93    3.21
  -1  -6  -6   40.48    2.85
   1  -6   6   45.05    2.66
   1  -6   6   46.99    3.29
  -1   6  -6   40.31    2.87
  -1  -6  -6   43.69    2.87
  -1  -6  -6   42.48    3.50
  -1  -6  -6   44.73    3.38
   1  -6   6   45.33    2.62
   1   6   6   41.78    2.87
  -1   6  -6   42.27    2.39
   1  -6   6   43.75    2.94
  -1   6  -7   63.70    3.93
  -1  -6  -7   65.41    4.46
   1  -6   7   65.79    3.70
  -1  -6  -7   57.22    4.57
  -1  -6  -7   60.46    3.91
   1   6   7   66.76    4.32
   1  -6   7   58.90    4.45
   1   6   7   66.79    4.16
   1   6   7   76.98    4.35
   1   6   7   46.08    3.79
  -1  -6  -7   58.15    3.82
   1  -6   7   62.76    4.25
   1   6   7   55.42    3.75
  -1   6  -7   63.91    3.37
   1  -6   7   69.49    4.03
   1   6   8   -0.42    0.92
   1  -6   8    2.32    0.86
   1   6   8    1.92    1.15
  -1  -6  -8    1.15    1.48
   1  -6   8    1.88    0.60
   1   6   8    1.63    1.04
  -1   6  -8    2.45    0.69
  -1   6  -8    2.03    0.85
   1  -6   8    2.93    1.47
  -1  -6  -8    2.08    1.28
   1  -6   8    2.15    0.98
   1   6   8    1.70    0.56
  -1  -6  -9    1.25    1.23
   1   6   9    1.91    1.13
  -1   6  -9    0.36    0.72
   1  -6   9    2.25    1.41
   1  -6   9    0.56    0.79
   1   6  10   34.67    2.73
  -1  -6 -10   26.31    2.59
   1  -6  10   27.61    2.68
   1  -6  10   31.98    2.29
  -1   6 -11   39.54    2.43
  -1  -6 -11   30.73    2.61
   1   6  11   40.70    2.38
   1  -6  11   34.94    2.73
   1  -6  11   38.82    2.46
   1   6  11   37.61    2.73
   1  -7 -11    3.63    1.02
   1  -7 -11    1.50    0.59
  -1  -7  11    1.44    0.50
   1   7 -11    2.55    0.51
  -1   7  11    2.54    1.00
  -1  -7  11    1.02    0.89
  -1   7  11    1.66    0.50
  -1  -7  11    1.41    0.65
  -1  -7  10    7.36    0.81
  -1  -7  10    8.90    1.65
   1   7 -10    9.30    1.04
   1  -7 -10    7.27    1.00
  -1   7  10    6.68    1.43
   1  -7 -10    7.12    1.45
  -1   7  10    7.35    0.95
  -1  -7  10    8.16    1.11
   1   7  -9  406.02   19.60
   1  -7  -9  350.06   19.19
  -1  -7   9  386.14   19.37
  -1   7   9  361.57   20.21
   1  -7  -9  364.09   20.21
   1  -7  -9  375.78   19.48
  -1   7   9  404.37   20.17
  -1   7   9  382.81   19.46
  -1  -7   9  384.02   20.36
   1  -7  -9  362.74   20.13
  -1  -7   9  395.89   19.70
   1   7  -9  358.83   19.15
   1  -7  -8   39.91    2.39
   1   7  -8   35.16    2.27
  -1   7   8   38.16    3.19
  -1  -7   8   38.09    2.47
   1  -7  -8   39.10    3.28
   1   7  -8   40.49    2.75
   1  -7  -8   41.96    3.25
   1  -7  -8   39.84    2.62
  -1   7   8   40.60    3.18
  -1   7   8   39.52    2.62
   1  -7  -8   40.37    3.24
  -1  -7   8   39.87    2.57
  -1  -7   8   43.04    3.60
  -1   7   8   33.66    2.73
   1  -7  -7   85.99    5.28
   1  -7  -7   76.16    5.22
   1   7  -7   73.46    4.31
  -1  -7   7   78.82    4.42
   1  -7  -7   77.27    4.54
   1   7  -7   78.48    4.69
  -1   7   7   75.71    4.50
  -1  -7   7   78.79    5.36
  -1   7   7   81.71    5.04
   1  -7  -7   75.47    4.99
  -1  -7   7   80.48    4.51
   1   7  -7   79.93    4.35
  -1   7   7   72.91    4.75
  -1   7   7   60.40    5.21
  -1   7   7   76.45    4.43
  -1   7   7   87.82    5.20
   1  -7  -7   80.77    4.31
   1  -7  -6   18.59    1.76
  -1   7   6   24.61    2.01
   1  -7  -6   19.92    1.34
   1  -7  -6   19.80    1.90
   1   7  -6   18.66    1.44
   1   7  -6   18.04    1.40
   1  -7  -6   19.38    1.52
  -1   7   6   23.04    2.05
  -1   7   6   15.83    2.14
  -1   7   6   18.24    1.45
  -1  -7   6   18.48    2.19
   1  -7  -6   23.26    2.22
   1   7  -6   18.72    1.67
  -1  -7   6   18.68    1.48
  -1   7   6   22.38    1.52
   1  -7  -6   18.64    1.30
  -1  -7   6   20.54    1.63
  -1  -7   6   21.64    1.57
   1  -7  -5  126.94    7.33
   1   7  -5  124.24    6.47
  -1   7   5  114.77    6.41
  -1  -7   5  118.36    6.67
   1  -7  -5  127.87    6.49
  -1   7   5  132.46    7.20
  -1  -7   5  122.04    7.29
   1  -7  -5  130.19    7.06
  -1  -7   5  128.43    7.19
  -1  -7   5  123.99    6.72
  -1   7   5  120.25    6.86
   1  -7  -5  120.72    6.99
  -1   7   5  139.20    7.48
   1   7  -5  122.87    6.68
   1   7  -4    1.78    0.56
  -1   7   4    3.23    1.05
  -1  -7   4    2.30    1.12
  -1   7   4    2.23    0.38
   1  -7  -4    3.23    0.42
   1  -7  -4    2.66    1.04
  -1   7   4    2.79    0.68
   1  -7  -4    3.12    0.87
  -1  -7   4    1.27    0.91
  -1   7   4    2.93    0.54
   1   7  -4    2.34    0.39
  -1   7   3  124.11    6.30
   1   7  -3  114.30    6.33
   1  -7  -3  125.94    6.22
  -1   7   3  119.37    6.42
  -1   7   3  109.93    6.80
  -1  -7   3  108.49    6.91
  -1   7   3  122.16    6.40
   1  -7  -3  127.25    6.94
   1   7  -3  115.01    6.13
  -1  -7   3  123.87    6.80
  -1   7   2  117.50    6.26
   1   7  -2  120.47    6.42
   1  -7  -2  115.24    6.12
  -1   7   2  107.32    6.61
  -1  -7   2  124.11    6.24
  -1  -7   2  113.28    6.85
   1  -7  -2  106.14    6.62
   1  -7  -2  124.62    6.84
  -1   7   2  116.12    6.29
  -1   7   2  119.94    6.31
   1   7  -2  123.65    6.16
  -1  -7   2  119.76    6.63
   1   7  -1 1573.71   74.28
   1  -7  -1 1424.83   74.05
  -1   7   1 1402.00   74.45
  -1   7   1 1543.01   74.26
   1  -7  -1 1479.23   74.75
  -1   7   1 1452.83   74.17
   1   7  -1 1545.02   74.48
  -1   7   1 1428.88   74.75
   1   7  -1 1457.60   74.18
  -1   7   1 1508.01   74.20
  -1  -7   1 1390.66   74.78
  -1   7   0  275.17   13.65
  -1   7   0  278.72   13.91
   1   7   0  275.97   14.00
  -1   7   0  263.83   13.55
   1   7   0  261.68   13.68
   1   7   0  264.48   13.68
   1  -7   0  291.62   14.25
  -1  -7   0  266.27   14.21
  -1   7   0  274.31   14.18
   1  -7   0  254.62   14.04
  -1   7   0  292.02   13.70
   1  -7   0  237.62   13.50
  -1   7  -1    1.71    0.39
   1   7   1    1.24    0.76
   1   7   1    1.80    0.56
  -1   7  -1    0.69    0.59
  -1   7  -1    2.76    1.01
  -1  -7  -1    1.42    0.75
  -1  -7  -1    1.62    0.91
   1  -7   1    2.11    0.86
   1  -7   1    1.16    1.04
   1   7   1    1.01    0.52
  -1   7  -1    1.20    0.11
  -1   7  -2    0.04    0.35
   1   7   2    0.26    0.72
   1  -7   2    0.63    1.07
  -1  -7  -2    0.10    0.90
  -1   7  -2    0.24    0.27
   1  -7   2   -0.43    0.78
   1   7   2   -0.13    0.26
  -1  -7  -2    0.49    0.84
   1   7   2    0.38    0.46
  -1   7  -2    0.42    0.11
   1  -7   3    2.01    0.40
  -1   7  -3    2.25    0.45
  -1  -7  -3    2.60    0.90
   1   7   3    1.67    0.84
  -1   7  -3    2.64    0.35
   1  -7   3    4.00    1.22
   1  -7   3    0.19    0.87
  -1  -7  -3    2.63    1.04
   1  -7   3    1.79    0.84
  -1  -7  -3    1.38    0.98
  -1  -7  -3    0.91    0.70
   1   7   3    0.87    0.57
   1   7   3    1.57    0.33
  -1  -7  -4  116.26    6.61
   1   7   4  110.42    6.47
   1  -7   4  122.90    6.58
   1  -7   4  115.75    5.86
  -1  -7  -4  114.21    6.63
  -1  -7  -4  106.58    6.32
   1  -7   4  103.20    6.31
   1   7   4  107.72    6.17
   1   7   4  103.99    5.80
  -1   7  -4  110.13    5.64
  -1   7  -5  340.31   21.04
   1   7   5  364.49   20.63
   1  -7   5  413.19   20.12
   1   7   5  455.89   20.74
  -1   7  -5  357.36   20.35
  -1  -7  -5  387.98   20.92
  -1  -7  -5  391.12   21.06
   1  -7   5  372.97   20.70
   1   7   5  400.24   20.46
  -1   7  -5  395.74   19.87
   1  -7   5  379.79   20.42
   1  -7   5  429.93   20.93
   1   7   6   81.46    5.61
   1   7   6  118.69    5.86
   1  -7   6   91.48    5.94
   1  -7   6   98.56    5.23
   1   7   6  104.73    5.88
  -1  -7  -6   95.93    5.37
  -1   7  -6   89.51    5.48
   1   7   6   96.83    5.48
  -1  -7  -6   93.50    5.91
   1  -7   6   89.34    5.18
  -1  -7  -6   84.98    5.40
   1  -7   6   91.26    5.93
  -1  -7  -6  100.45    6.27
  -1   7  -6   94.81    4.94
   1  -7   6   98.18    5.56
   1   7   7  158.54   10.39
   1   7   7  227.48   10.96
  -1  -7  -7  188.55   10.34
  -1  -7  -7  200.50   11.41
   1  -7   7  199.06   10.99
  -1   7  -7  194.80   10.52
   1  -7   7  199.06   10.15
  -1  -7  -7  194.37   11.06
   1   7   7  183.65   10.39
   1  -7   7  200.85   10.29
   1  -7   7  196.44   10.59
  -1  -7  -8    4.92    1.25
   1  -7   8    7.38    0.89
  -1  -7  -8    7.21    0.99
   1   7   8    6.85    1.46
  -1  -7  -8    5.15    1.39
   1   7   8    4.27    0.73
   1  -7   8    5.39    1.05
  -1   7  -8    7.44    1.11
  -1  -7  -8    6.08    1.63
  -1   7  -9   39.37    2.87
   1   7   9   47.99    3.38
  -1  -7  -9   38.89    3.32
   1  -7   9   42.44    2.93
   1  -7  10   -0.30    0.69
  -1  -7 -10   -0.48    0.95
   1   7  10    0.11    0.93
   1   7  11    6.47    1.08
   1  -7  11    4.99    0.75
  -1   7 -11    7.36    0.79
  -1  -8  11    9.67    0.89
   1   8 -11   10.05    0.81
   1  -8 -11   10.60    0.98
  -1   8  11   10.41    1.32
  -1   8  11    9.71    0.79
  -1  -8  11   10.29    1.28
   1  -8 -11    8.33    1.26
  -1  -8  11   10.17    1.03
  -1  -8  10   45.92    3.31
  -1  -8  10   42.71    2.53
   1  -8 -10   44.95    3.28
  -1   8  10   38.04    2.53
  -1   8  10   40.20    3.21
   1  -8 -10   42.13    2.69
   1   8 -10   42.32    2.66
  -1  -8  10   39.83    2.75
  -1  -8   9  258.45   15.11
   1  -8  -9  272.75   14.43
  -1   8   9  296.76   15.13
  -1   8   9  275.99   14.32
   1  -8  -9  253.43   15.01
   1   8  -9  280.45   14.52
   1  -8  -8   28.86    2.00
  -1   8   8   26.55    2.35
  -1   8   8   29.00    2.67
   1  -8  -8   33.92    2.96
  -1   8   8   31.26    2.18
  -1  -8   8   33.10    2.19
   1  -8  -8   29.49    2.77
  -1  -8   8   32.67    3.07
   1  -8  -8   30.38    2.25
  -1  -8   8   32.76    2.18
   1  -8  -8   32.46    2.84
   1   8  -8   31.49    2.37
   1   8  -8   32.70    2.00
  -1   8   8   34.86    2.89
  -1  -8   7    7.03    1.00
  -1   8   7    6.10    1.63
   1   8  -7    6.14    0.71
   1  -8  -7    5.58    1.42
  -1  -8   7    6.45    1.62
  -1  -8   7    6.64    0.86
   1  -8  -7    6.61    0.95
  -1   8   7    5.77    1.37
   1   8  -7    5.19    1.00
  -1   8   7    7.29    1.32
  -1   8   7    6.02    0.85
   1  -8  -7    5.58    1.36
  -1   8   7    4.84    1.08
   1  -8  -7    5.87    1.40
   1  -8  -7    6.09    0.70
  -1   8   7    5.70    0.80
   1   8  -6    3.98    0.65
  -1  -8   6    5.67    0.87
  -1   8   6    3.56    1.44
   1  -8  -6    4.13    0.56
   1   8  -6    3.77    0.66
   1  -8  -6    3.72    0.76
  -1  -8   6    3.47    0.97
  -1   8   6    4.60    0.71
  -1   8   6    5.17    1.27
  -1  -8   6    4.14    1.45
   1  -8  -6    5.45    1.12
  -1  -8   6    4.63    0.74
  -1  -8   6    4.05    0.69
   1  -8  -6    3.18    0.92
   1  -8  -6    4.55    1.29
   1   8  -6    4.91    0.91
   1   8  -5   25.59    1.65
  -1   8   5   25.49    1.61
   1  -8  -5   26.77    1.67
   1   8  -5   27.51    1.86
   1  -8  -5   29.49    2.21
  -1  -8   5   25.66    1.84
  -1  -8   5   29.50    2.52
  -1   8   5   27.57    2.35
  -1  -8   5   27.05    1.87
   1  -8  -5   24.85    2.16
  -1   8   5   26.04    2.03
  -1  -8   5   24.41    2.26
  -1  -8   5   24.53    2.33
  -1   8   5   27.56    2.50
   1  -8  -5   29.52    2.49
  -1   8   4  102.77    5.79
   1  -8  -4  108.82    5.76
  -1  -8   4  105.26    6.34
  -1  -8   4  103.95    6.44
   1  -8  -4  113.79    6.39
   1   8  -4  106.57    5.83
   1  -8  -4  126.99    6.32
  -1   8   4  106.64    5.96
   1  -8  -4  110.31    6.56
  -1  -8   4  104.20    6.55
  -1   8   4  130.60    6.73
  -1   8   4  104.17    6.04
   1   8  -4  113.54    6.09
  -1   8   3   13.87    1.03
   1  -8  -3   14.22    0.96
  -1  -8   3   10.52    1.37
  -1   8   3   15.61    1.59
  -1  -8   3   10.05    1.41
   1  -8  -3   12.51    1.45
   1   8  -3   12.79    0.87
  -1   8   3   15.49    1.19
   1  -8  -3   16.23    1.75
  -1   8   3   14.64    1.18
  -1   8   2    4.03    0.54
   1  -8  -2    4.33    1.22
   1   8  -2    4.29    0.69
  -1   8   2    3.65    0.85
   1   8  -2    3.53    0.64
  -1  -8   2    3.93    0.89
  -1   8   2    4.34    0.65
  -1  -8   2    4.50    0.61
   1  -8  -2    4.23    1.06
  -1  -8   2    4.05    1.19
   1   8  -2    4.18    0.46
  -1   8   2    3.80    0.61
   1  -8  -1   87.22    5.27
  -1   8   1   89.40    4.66
   1   8  -1   87.78    4.90
  -1   8   1   89.05    4.63
  -1   8   1   84.35    4.97
   1  -8  -1   72.55    4.47
  -1  -8   1   77.08    4.89
   1   8  -1   94.30    4.79
  -1  -8   1   84.78    5.32
  -1   8   1   87.23    4.71
   1   8  -1   94.04    4.63
  -1   8   0    3.64    0.57
   1   8   0    3.84    0.83
   1  -8   0    3.41    0.44
   1   8   0    5.24    0.71
  -1   8   0    3.79    0.80
  -1  -8   0    3.45    1.11
  -1   8   0    4.07    0.53
  -1   8   0    4.79    1.21
   1  -8   0    4.26    1.12
  -1  -8   0    3.04    0.84
  -1   8   0    4.87    0.62
   1   8   0    4.24    0.62
   1  -8   0    4.95    1.26
  -1   8  -1    8.58    1.10
   1   8   1    9.30    1.19
  -1   8  -1   11.27    0.92
   1  -8   1    9.84    0.74
   1   8   1   10.14    1.07
   1  -8   1   10.12    1.36
  -1  -8  -1   10.40    1.46
  -1   8  -1    8.67    1.45
   1  -8   1   10.23    1.54
   1   8   1   10.29    0.98
   1   8   2   29.54    2.43
   1   8   2   32.94    1.87
   1  -8   2   32.57    1.88
   1  -8   2   35.85    2.62
  -1  -8  -2   28.63    2.54
   1  -8   2   33.12    2.77
  -1   8  -2   32.61    1.88
  -1  -8  -2   29.22    2.42
  -1   8  -2   36.04    2.72
  -1   8  -2   32.44    2.03
   1   8   2   30.38    2.16
  -1   8  -3  101.05    5.22
   1   8   3   95.70    5.66
   1  -8   3   91.85    5.75
   1   8   3   89.85    5.00
   1  -8   3   98.23    5.97
  -1   8  -3   95.44    4.98
   1  -8   3   89.95    5.42
  -1  -8  -3   88.80    5.39
  -1  -8  -3   93.63    5.72
  -1  -8  -3   98.58    5.76
  -1  -8  -3   97.85    5.82
   1   8   3   97.98    5.35
   1   8   4   13.99    1.52
  -1  -8  -4   11.12    1.16
  -1  -8  -4   10.52    1.35
  -1   8  -4   11.27    1.41
   1  -8   4   21.84    2.70
  -1   8  -4   11.88    0.89
   1  -8   4   17.31    2.15
  -1  -8  -4   12.67    1.66
  -1   8  -4   18.24    3.03
   1   8   4   12.80    1.24
  -1  -8  -4   15.96    1.85
   1   8   4   12.40    0.97
   1  -8   4   22.27    2.35
   1   8   5   82.47    5.11
   1   8   5   98.25    5.26
  -1  -8  -5   83.96    5.41
  -1   8  -5   75.89    5.63
  -1  -8  -5   87.97    5.56
  -1   8  -5   76.20    4.84
  -1  -8  -5   84.95    4.78
   1  -8   5   78.23    5.16
  -1  -8  -5   80.82    5.16
   1  -8   5   82.11    4.65
   1   8   5   83.38    4.86
   1  -8   5   78.63    4.88
   1  -8   5   85.76    5.42
   1   8   6   97.95    5.45
   1  -8   6   81.09    4.66
   1   8   6   85.53    4.94
  -1   8  -6   80.20    4.97
  -1  -8  -6   76.63    5.62
   1  -8   6   83.00    5.37
   1  -8   6   83.01    4.68
  -1  -8  -6   81.16    4.84
   1   8   6   72.97    5.01
   1  -8   6   79.52    4.99
   1  -8   7    1.52    0.83
  -1  -8  -7    1.47    1.23
   1   8   7    3.56    1.00
  -1  -8  -7    1.87    0.70
  -1   8  -7    1.22    0.81
   1  -8   7    2.45    0.51
   1  -8   7    0.72    1.20
  -1  -8  -7    1.93    1.06
  -1  -8  -7    3.95    1.52
   1  -8   7    2.92    1.30
   1   8   7    1.57    0.63
   1  -8   8   -0.19    0.77
   1   8   8    1.08    1.02
  -1   8  -8   -0.09    0.83
   1  -8   8   -0.29    1.31
  -1  -8  -8    0.22    0.63
  -1  -8  -8    0.30    1.05
  -1  -8  -8   -0.19    1.11
   1   8   8   -0.07    0.42
  -1  -8  -8    0.14    0.90
   1  -8   9    7.97    1.10
  -1   8  -9    8.76    1.15
   1   8   9    9.57    1.53
   1   8   9    8.57    1.35
  -1  -8  -9    7.87    0.98
  -1  -8  -9    6.21    1.40
   1  -8  10    7.45    1.34
   1   8  10   10.06    1.42
  -1   8 -10    8.73    1.04
  -1  -8 -10    7.27    1.21
   1   8  10    9.24    0.92
   1  -8  10    9.11    1.07
  -1   8 -11   27.15    1.65
   1   8  11   26.17    1.90
   1   8  11   22.09    1.47
   1  -8  11   23.37    1.65
   1  -9 -11    0.94    0.46
  -1  -9  11    1.10    0.70
   1   9 -11    1.28    0.31
  -1  -9  11    1.35    0.39
   1  -9 -11    1.22    0.67
  -1   9  11    2.15    0.85
   1  -9 -10    1.47    0.57
  -1  -9  10    0.50    0.40
   1   9 -10    0.82    0.57
  -1  -9  10   -0.11    0.95
   1  -9 -10    0.46    0.82
  -1   9  10    0.52    0.36
  -1   9  10    0.57    1.04
   1   9  -9   11.20    1.23
   1  -9  -9   11.56    1.19
   1  -9  -9    7.95    1.52
  -1   9   9   12.50    1.80
  -1  -9   9    9.79    1.70
  -1   9   9   12.17    2.16
  -1   9   9   10.09    0.96
   1  -9  -8   57.26    3.44
   1  -9  -8   62.81    4.40
   1  -9  -8   58.47    4.30
   1   9  -8   57.69    3.77
   1  -9  -8   62.11    3.68
  -1   9   8   67.96    4.29
  -1  -9   8   59.09    4.36
  -1   9   8   66.26    4.40
  -1   9   8   55.81    3.44
  -1   9   8   53.66    3.77
   1  -9  -8   58.90    4.20
  -1  -9   8   63.31    3.59
  -1  -9   8   53.28    4.14
  -1  -9   8   54.87    3.53
  -1  -9   8   59.06    3.70
   1   9  -8   59.05    3.36
   1   9  -7   -0.05    0.39
  -1  -9   7   -0.16    0.60
  -1  -9   7    0.30    0.96
   1  -9  -7   -0.05    0.40
   1   9  -7    0.10    0.37
   1  -9  -7   -0.49    1.12
  -1  -9   7    0.15    1.35
  -1   9   7    0.79    0.90
  -1  -9   7    0.20    0.43
   1  -9  -7    0.94    1.08
  -1   9   7   -0.29    0.52
  -1   9   7    0.73    1.02
   1  -9  -7   -0.30    0.62
  -1   9   7    0.10    0.80
   1  -9  -7   -0.13    0.98
  -1  -9   6    3.88    0.76
  -1   9   6    3.40    1.36
   1  -9  -6    3.46    0.57
   1   9  -6    3.58    0.68
  -1   9   6    3.61    1.26
   1  -9  -6    3.99    0.77
  -1   9   6    3.83    0.66
  -1  -9   6    5.79    1.48
   1  -9  -6    1.52    0.98
  -1  -9   6    3.92    0.72
  -1  -9   6    3.60    1.15
  -1  -9   6    3.56    0.70
  -1  -9   6    3.73    1.08
   1  -9  -6    3.57    1.31
   1  -9  -6    3.35    0.99
  -1  -9   5    1.71    0.60
  -1   9   5    1.36    0.36
   1   9  -5    2.00    0.43
  -1  -9   5    1.59    0.50
   1  -9  -5    2.68    0.48
   1  -9  -5    2.90    1.03
  -1   9   5    1.40    0.98
  -1  -9   5    2.84    0.51
  -1  -9   5    1.37    1.01
   1  -9  -5    2.30    1.18
  -1   9   5    2.80    1.52
   1  -9  -5    2.32    0.98
  -1   9   5    2.14    1.17
  -1  -9   5    2.13    0.58
  -1  -9   5    2.37    1.10
  -1  -9   5    2.70    1.25
  -1   9   5    2.89    0.64
  -1   9   5    1.72    0.83
  -1   9   4   50.49    2.98
   1   9  -4   52.13    3.03
   1  -9  -4   47.98    2.92
  -1   9   4   58.98    3.85
  -1   9   4   53.89    4.16
   1  -9  -4   55.85    3.46
   1  -9  -4   48.17    3.11
  -1  -9   4   48.89    3.53
  -1  -9   4   51.11    3.83
  -1   9   4   54.03    3.67
   1  -9  -4   49.53    3.53
  -1  -9   4   52.50    3.13
  -1   9   4   50.67    3.15
   1  -9  -4   47.38    3.40
  -1  -9   4   59.26    3.29
   1  -9  -4   49.46    3.75
  -1   9   4   52.84    3.27
   1   9  -4   54.71    3.27
  -1  -9   4   55.28    3.69
  -1   9   3  105.40    5.50
  -1   9   3   93.22    6.10
  -1  -9   3  106.17    6.02
  -1   9   3  107.71    5.66
  -1  -9   3   87.04    5.86
   1  -9  -3   90.95    5.99
   1   9  -3   98.19    5.30
  -1   9   3  107.39    5.62
   1  -9  -3  109.55    6.27
   1   9  -2   42.71    2.67
  -1   9   2   43.36    2.50
  -1   9   2   44.69    2.59
   1  -9  -2   40.10    2.35
  -1   9   2   40.76    2.99
  -1  -9   2   43.10    2.53
   1  -9  -2   34.31    2.26
  -1   9   2   42.55    2.56
  -1  -9   2   40.62    2.89
   1  -9  -2   38.00    3.03
  -1  -9   2   41.16    3.24
   1   9  -2   48.68    2.68
   1   9  -2   44.58    2.40
   1  -9  -2   42.81    3.21
  -1   9   1    2.36    0.49
   1   9  -1    2.43    0.63
   1  -9  -1    2.06    0.34
  -1  -9   1    3.16    0.89
   1   9  -1    2.77    0.63
   1  -9  -1    2.78    1.13
  -1   9   1    2.18    0.53
  -1   9   1    2.42    0.81
  -1  -9   1    4.04    1.28
  -1   9   1    2.41    0.57
   1   9  -1    2.44    0.47
   1  -9   0  177.07   10.01
   1   9   0  192.18    9.64
  -1   9   0  173.41    9.62
  -1  -9   0  164.14    9.56
   1   9   0  175.35    9.43
   1  -9   0  166.81    9.04
  -1  -9   0  187.05    9.57
  -1   9   0  183.98    9.30
  -1   9   0  175.36    9.19
   1  -9   0  165.07    9.86
  -1   9   0  191.45    9.36
  -1  -9   0  178.62   10.06
  -1   9  -1    7.46    0.80
   1   9   1    6.36    1.11
   1  -9   1    6.35    0.58
  -1   9  -1    6.64    1.02
   1   9   1    4.67    0.94
  -1  -9  -1    5.03    1.17
   1   9   1    7.28    0.69
   1  -9   1    7.09    1.32
  -1  -9  -1    6.99    1.62
   1   9   1    9.45    0.95
   1  -9   1    7.71    1.51
  -1   9  -2   49.60    2.88
  -1  -9  -2   47.91    3.33
   1   9   2   46.60    3.26
  -1  -9  -2   44.83    3.15
  -1   9  -2   52.05    3.24
   1  -9   2   46.44    2.64
   1   9   2   47.67    2.68
  -1   9  -2   47.25    2.69
   1  -9   2   47.32    3.49
  -1  -9  -2   44.68    3.49
   1  -9   2   50.61    3.68
   1   9   2   46.89    2.94
   1  -9   3   22.38    1.83
   1   9   3   20.33    1.91
  -1   9  -3   22.88    1.40
  -1  -9  -3   21.38    2.10
   1  -9   3   21.98    1.39
   1  -9   3   19.32    2.27
  -1   9  -3   21.44    2.42
  -1  -9  -3   24.00    2.23
   1  -9   3   25.64    2.32
   1   9   3   21.60    1.42
  -1  -9  -3   20.74    1.64
   1   9   3   22.92    1.73
  -1  -9  -3   21.52    2.13
  -1  -9  -3   18.12    1.70
  -1  -9  -3   21.10    1.91
  -1   9  -3   21.76    1.59
  -1   9  -4  109.03    7.21
  -1  -9  -4  109.57    6.60
   1  -9   4  114.15    6.00
   1   9   4  110.63    6.58
   1   9   4  114.13    6.33
  -1  -9  -4  110.71    6.89
   1  -9   4  119.25    7.15
  -1  -9  -4  114.38    6.29
   1   9   4  112.07    6.03
   1   9   4  117.93    6.59
  -1  -9  -4  102.66    6.46
  -1   9  -4  110.93    5.91
  -1  -9  -4  115.94    6.85
   1  -9   4  117.56    6.21
   1  -9   4  115.55    6.98
   1  -9   4  103.35    6.45
  -1   9  -5   47.65    4.03
   1   9   5   43.04    3.17
  -1  -9  -5   45.43    3.34
  -1  -9  -5   48.05    3.00
   1  -9   5   48.63    2.75
   1  -9   5   45.68    3.77
   1   9   5   52.08    3.41
  -1   9  -5   44.33    3.06
   1  -9   5   38.99    3.23
  -1  -9  -5   48.84    3.73
  -1  -9  -5   42.44    3.27
   1  -9   5   46.19    2.83
  -1  -9  -5   48.41    3.63
   1  -9   5   42.53    3.54
   1   9   5   48.65    3.06
   1  -9   5   42.73    3.05
   1   9   6   78.76    5.44
  -1  -9  -6   87.15    5.80
   1  -9   6   99.36    5.20
  -1   9  -6   92.92    5.54
  -1  -9  -6   88.35    5.33
   1   9   6  106.20    5.94
  -1  -9  -6   91.31    6.21
   1  -9   6   86.50    5.75
  -1  -9  -6   84.48    5.77
   1  -9   6   86.14    6.17
   1  -9   6   96.40    5.23
   1   9   6   92.60    5.46
   1  -9   6   91.95    5.51
   1  -9   7   10.65    1.86
   1  -9   7   11.80    1.74
   1  -9   7   11.63    1.09
   1  -9   7   11.87    1.06
   1   9   7   12.99    1.72
  -1   9  -7    9.68    1.32
  -1  -9  -7   10.67    1.22
   1   9   7   11.21    1.55
  -1  -9  -7    8.77    1.52
  -1  -9  -7   11.47    1.95
   1   9   7   11.44    1.20
   1  -9   7   13.06    1.79
   1  -9   7   12.02    1.38
   1   9   7   12.08    1.47
   1  -9   8    1.18    0.75
  -1  -9  -8    0.43    0.60
   1  -9   8    0.51    0.36
  -1   9  -8    1.26    0.78
   1   9   8    1.92    0.94
   1  -9   8    0.13    1.06
  -1  -9  -9    3.47    0.70
   1  -9   9    2.84    1.02
  -1   9  -9    2.88    0.86
   1  -9   9    2.61    0.83
  -1   9 -10    0.47    0.58
   1  -9  10   -0.46    0.82
   1  -9  10   -0.12    0.60
   1   9  10    0.04    0.38
  -1 -10  10    0.75    0.88
   1 -10 -10    0.93    0.53
  -1  10  10    0.52    0.93
   1  10 -10    0.05    0.46
  -1 -10  10    0.32    0.33
   1 -10 -10   -0.30    0.76
   1 -10  -9    2.69    0.73
  -1 -10   9    4.43    1.28
  -1  10   9    2.19    1.21
   1  10  -9    3.06    0.77
  -1  10   9    1.19    1.42
   1 -10  -9    1.74    1.05
  -1 -10   8    8.48    1.07
   1 -10  -8    9.52    1.09
  -1 -10   8    8.28    0.95
  -1  10   8    9.52    2.06
  -1 -10   8    8.69    1.64
  -1  10   8    8.98    1.66
  -1  10   8    7.51    1.16
   1 -10  -8    7.62    1.43
  -1 -10   8    9.00    0.97
   1  10  -7    0.39    0.38
  -1 -10   7    0.73    0.89
   1 -10  -7    0.66    1.19
   1 -10  -7    0.05    0.37
   1 -10  -7    0.26    1.08
  -1 -10   7    0.77    0.62
   1 -10  -7    0.68    0.63
  -1  10   7    0.15    1.01
  -1  10   7    0.52    1.03
  -1  10   7    0.84    1.68
  -1  10   7   -0.21    0.83
  -1 -10   7    0.21    0.52
  -1  10   7   -0.15    0.48
  -1 -10   7   -0.15    1.28
   1 -10  -6   21.18    2.34
  -1  10   6   18.05    2.28
   1 -10  -6   21.73    1.56
   1  10  -6   21.36    1.64
   1 -10  -6   23.75    2.34
  -1 -10   6   21.11    1.71
   1 -10  -6   21.54    2.10
   1 -10  -6   20.72    1.75
  -1 -10   6   23.96    1.76
  -1 -10   6   23.77    2.40
  -1  10   6   27.30    3.01
  -1 -10   6   22.52    2.23
   1 -10  -6   23.83    2.18
  -1  10   6   23.73    2.40
  -1 -10   6   18.86    2.13
  -1  10   6   21.53    1.74
  -1 -10   6   21.59    1.73
   1  10  -6   24.19    1.63
   1  10  -5    0.77    0.51
  -1 -10   5    1.15    0.56
  -1  10   5    0.15    1.14
   1  10  -5    1.17    0.39
  -1  10   5    0.80    0.34
   1 -10  -5    1.71    0.46
  -1 -10   5    0.46    0.41
   1 -10  -5   -0.31    1.07
  -1  10   5    1.71    1.20
   1 -10  -5    0.85    0.93
  -1  10   5   -0.20    1.55
  -1 -10   5    0.85    0.54
   1 -10  -5    0.11    0.79
  -1 -10   5    0.66    1.16
  -1  10   5    1.49    0.79
  -1 -10   5    0.88    0.49
  -1 -10   5    1.74    0.98
  -1 -10   5    0.92    1.08
  -1  10   5    0.82    0.52
  -1  10   4   57.11    3.47
   1  10  -4   57.71    3.52
  -1  10   4   67.44    4.88
   1 -10  -4   57.49    3.43
   1 -10  -4   60.81    3.88
   1 -10  -4   57.03    4.23
  -1  10   4   65.41    4.30
  -1 -10   4   57.63    4.07
   1 -10  -4   58.11    4.13
  -1 -10   4   55.64    3.45
  -1 -10   4   57.11    4.11
  -1 -10   4   56.10    3.60
  -1 -10   4   79.68    3.48
  -1  10   4   58.51    3.65
  -1  10   4   60.11    3.77
  -1 -10   4   66.88    3.76
  -1 -10   4   59.62    4.43
   1 -10  -4   54.43    3.93
  -1  10   4   69.77    4.39
  -1  10   3   29.07    1.98
   1  10  -3   31.22    2.08
  -1  10   3   27.29    2.60
   1 -10  -3   28.64    2.07
  -1  10   3   34.32    2.80
   1  10  -3   29.91    2.21
  -1  10   3   38.44    3.40
  -1 -10   3   28.90    2.47
  -1  10   3   31.64    2.18
   1 -10  -3   33.72    2.78
   1 -10  -3   28.50    2.59
  -1  10   3   32.18    2.14
  -1 -10   3   30.66    2.17
  -1 -10   3   29.35    2.07
   1  10  -2   53.31    3.26
   1  10  -2   57.60    3.35
  -1  10   2   57.35    4.31
  -1  10   2   46.70    3.67
   1 -10  -2   54.15    3.88
  -1 -10   2   54.51    3.17
  -1 -10   2   49.64    3.15
  -1 -10   2   52.33    3.97
  -1 -10   2   48.83    3.53
  -1  10   2   49.45    3.16
   1 -10  -2   47.61    3.71
   1  10  -2   56.78    3.05
  -1  10   2   53.28    3.23
  -1 -10   2   56.00    3.28
  -1  10   1    2.87    0.61
  -1  10   1    2.85    0.53
   1  10  -1    2.39    0.65
  -1 -10   1    2.95    1.32
  -1 -10   1    1.77    0.86
   1 -10  -1    2.34    1.14
   1  10  -1    2.13    0.63
  -1  10   1    2.62    0.90
   1  10  -1    1.83    0.45
  -1 -10   1    2.84    0.74
  -1  10   1    4.23    1.50
  -1  10   1    2.60    0.61
  -1  10   0   39.75    2.43
   1  10   0   42.91    2.70
  -1  10   0   36.98    2.78
   1 -10   0   36.92    2.11
   1 -10   0   37.99    3.14
  -1 -10   0   37.98    2.48
  -1  10   0   38.75    3.48
   1  10   0   35.97    2.56
   1 -10   0   40.79    3.19
  -1  10   0   39.25    2.34
  -1  10   0   40.91    2.48
   1 -10   0   38.12    2.38
  -1 -10   0   35.04    2.73
  -1 -10   0   38.35    2.68
  -1 -10   0   35.46    3.12
  -1  10  -1   54.92    3.17
   1  10   1   50.93    3.40
  -1 -10  -1   53.54    3.23
  -1  10  -1   48.94    3.47
   1 -10   1   50.95    3.89
  -1  10  -1   53.57    3.02
   1 -10   1   50.32    2.83
   1  10   1   44.03    3.26
  -1 -10  -1   51.69    3.50
  -1  10  -1   54.73    4.22
   1 -10   1   52.32    3.98
   1  10   1   58.56    2.99
   1 -10   1   53.33    3.14
  -1 -10  -1   49.69    3.82
  -1 -10  -1   45.86    3.41
   1  10   1   56.99    3.21
  -1  10  -2    0.10    0.70
  -1  10  -2    0.66    0.46
   1  10   2    0.67    0.64
   1 -10   2    0.13    0.25
   1 -10   2    2.08    1.26
   1  10   2   -0.17    1.27
  -1  10  -2    0.19    0.38
  -1 -10  -2    0.20    0.74
  -1 -10  -2   -0.28    1.02
  -1 -10  -2   -0.07    0.55
   1 -10   2   -0.18    0.45
  -1  10  -2    0.53    1.25
   1  10   2   -0.13    0.48
   1 -10   2   -0.16    1.30
  -1  10  -3  137.00    7.15
   1  10   3  129.36    7.50
   1 -10   3  132.94    6.84
  -1 -10  -3  112.84    7.18
   1  10   3  128.65    7.21
  -1 -10  -3  132.24    7.81
  -1  10  -3  134.46    7.53
  -1  10  -3  130.33    8.18
   1 -10   3  135.38    8.03
  -1 -10  -3  123.56    7.67
  -1  10  -3  134.47    6.89
   1  10   3  126.72    6.92
   1 -10   3  137.29    7.15
   1 -10   3  137.19    7.99
  -1 -10  -3  141.72    7.83
  -1 -10  -3  117.51    7.42
  -1 -10  -3  128.00    7.18
   1 -10   4   12.49    1.91
  -1  10  -4   10.80    1.14
  -1  10  -4    9.58    2.03
  -1 -10  -4   11.06    1.21
  -1  10  -4   11.66    0.90
   1 -10   4   10.58    1.36
   1 -10   4   11.47    1.95
   1  10   4   13.34    1.50
   1 -10   4   10.83    0.91
   1  10   4   12.92    1.06
  -1 -10  -4   12.25    1.38
  -1 -10  -4   11.22    1.70
  -1 -10  -4   10.73    1.73
   1  10   4   10.95    1.20
  -1 -10  -4   12.00    1.51
  -1 -10  -5   11.23    1.22
  -1 -10  -5    9.85    1.70
   1  10   5    8.36    1.21
  -1 -10  -5    8.82    1.46
   1 -10   5   12.25    1.00
  -1 -10  -5   12.26    1.82
  -1  10  -5   11.67    1.34
   1  10   5   12.85    1.10
   1  10   5   11.59    1.52
   1 -10   5   10.25    1.46
  -1 -10  -5    8.31    1.39
   1 -10   5   12.21    1.11
   1 -10   5    9.31    1.76
   1 -10   5   10.28    1.74
   1  10   5   10.60    1.18
  -1  10  -5    9.08    2.08
   1 -10   5   10.81    1.34
   1  10   6   24.67    2.01
   1 -10   6   19.79    1.44
  -1 -10  -6   14.66    1.85
  -1 -10  -6   16.48    1.54
   1 -10   6   17.74    1.36
  -1  10  -6   16.27    1.69
   1  10   6   14.47    1.55
   1  10   6   19.07    1.99
   1  10   6   19.03    1.58
  -1 -10  -6   18.15    2.24
   1 -10   6   16.64    1.84
   1 -10   6   17.45    2.33
  -1 -10  -6   14.46    1.82
  -1 -10  -6   15.53    2.12
   1 -10   6   15.76    1.65
   1 -10   7   25.15    1.79
   1 -10   7   24.37    2.25
   1 -10   7   22.81    2.53
  -1 -10  -7   25.71    2.35
  -1 -10  -7   20.07    2.60
   1  10   7   29.25    2.49
  -1 -10  -7   26.03    1.95
  -1  10  -7   24.72    2.06
   1  10   7   26.44    2.14
   1 -10   7   25.81    1.75
  -1 -10  -7   23.67    2.36
   1 -10   7   18.31    2.45
   1  10   7   22.95    1.89
   1 -10   7   26.69    2.09
   1 -10   8    0.77    0.78
   1 -10   8    2.48    1.06
   1 -10   8    2.44    0.47
   1  10   8    1.83    1.05
  -1  10  -8    1.63    0.78
  -1 -10  -8    2.04    0.72
  -1 -10  -8    3.10    1.12
  -1  10  -9   -0.28    0.65
   1  10   9   -0.20    0.89
  -1  10  -9   -0.37    0.98
  -1 -10  -9    0.60    0.87
  -1 -10  -9   -0.05    0.47
   1  10   9    0.19    0.38
   1 -10   9    0.17    0.79
   1 -10   9   -0.49    0.68
   1 -10  10    2.65    0.63
   1  10  10    2.30    0.82
   1  10  10    2.32    1.31
  -1 -10 -10    1.24    0.41
   1 -11 -10    3.32    0.59
   1 -11 -10    4.49    0.90
  -1 -11  10    3.02    0.43
  -1  11  10    3.95    0.95
   1  11 -10    2.97    0.51
  -1  11   9    8.91    0.86
   1  11  -9    9.35    1.01
   1 -11  -9    6.97    0.92
  -1  11   9    7.62    1.36
   1 -11  -9    8.92    1.36
  -1  11   9    6.59    1.69
  -1 -11   8    0.12    0.46
  -1 -11   8    0.12    0.46
  -1 -11   8    1.65    1.12
   1 -11  -8    1.04    0.62
  -1  11   8    0.28    1.06
  -1  11   8    1.32    1.60
   1 -11  -8    1.25    1.02
  -1  11   8    1.37    0.79
  -1 -11   7    4.60    0.78
   1 -11  -7    4.25    0.66
   1 -11  -7    5.64    1.30
   1 -11  -7    5.74    0.86
   1 -11  -7    3.67    1.12
  -1  11   7    2.73    1.34
  -1  11   7    3.34    1.72
  -1  11   7    4.00    1.09
  -1 -11   7    4.31    0.73
  -1 -11   7    5.53    1.47
  -1  11   7    4.99    1.06
   1 -11  -6   48.29    3.10
   1  11  -6   53.39    3.21
  -1 -11   6   51.81    3.29
   1 -11  -6   49.15    3.69
   1 -11  -6   54.83    4.02
   1 -11  -6   53.04    3.69
   1 -11  -6   54.72    3.34
  -1  11   6   54.31    4.03
  -1  11   6   58.50    4.67
  -1 -11   6   56.29    3.33
  -1 -11   6   51.75    3.85
  -1 -11   6   49.80    3.83
  -1  11   6   52.11    3.36
   1 -11  -6   54.45    4.05
  -1 -11   6   58.32    3.99
  -1 -11   6   50.84    3.26
   1  11  -6   53.48    3.12
   1  11  -6   49.95    3.53
  -1  11   5   16.74    1.50
   1  11  -5   17.01    1.30
  -1  11   5   17.79    2.08
  -1 -11   5   16.53    1.99
   1 -11  -5   15.94    1.26
   1  11  -5   14.86    1.53
  -1  11   5   22.31    2.91
  -1 -11   5   13.50    1.18
  -1  11   5   17.03    2.16
  -1 -11   5   16.89    1.43
  -1 -11   5   17.23    1.44
   1 -11  -5   16.92    1.91
  -1 -11   5   16.89    2.05
  -1  11   5   16.45    1.47
  -1 -11   5   13.49    1.82
  -1 -11   5   12.94    1.27
   1  11  -5   16.78    1.35
   1 -11  -5   18.41    2.11
  -1  11   5   18.19    1.72
   1  11  -4   88.96    5.32
  -1  11   4   87.98    4.99
   1  11  -4   91.89    5.08
  -1 -11   4   80.95    4.94
  -1  11   4   95.30    5.24
  -1  11   4  103.73    6.06
   1 -11  -4   89.55    5.55
  -1  11   4   90.08    5.30
  -1 -11   4   78.73    5.56
  -1  11   4  102.44    6.60
  -1 -11   4   79.77    5.09
  -1 -11   4   85.92    5.99
   1 -11  -4   94.32    5.77
  -1 -11   4   94.17    5.24
  -1  11   4   90.90    5.22
   1 -11  -4   89.40    5.88
  -1  11   4  106.76    5.97
   1  11  -4   95.96    5.26
  -1  11   3   16.66    1.35
   1  11  -3   18.18    1.45
   1  11  -3   15.97    1.53
   1 -11  -3   18.74    1.52
  -1  11   3   16.17    2.48
  -1  11   3   15.94    1.99
   1 -11  -3   15.37    2.03
  -1  11   3   19.87    1.60
   1 -11  -3   18.32    1.66
  -1 -11   3   15.71    1.82
  -1 -11   3   18.27    2.29
   1 -11  -3   18.39    2.02
  -1  11   3   18.18    1.52
  -1 -11   3   17.86    1.52
   1  11  -2    2.26    0.67
  -1 -11   2    1.28    0.83
   1  11  -2    1.97    0.55
  -1 -11   2    1.23    0.52
   1  11  -2    2.22    1.07
   1 -11  -2    2.60    1.23
  -1  11   2    1.56    0.61
   1 -11  -2    2.18    0.65
  -1  11   2    2.25    1.04
  -1  11   2    1.84    1.56
   1  11  -2    1.76    0.43
   1 -11  -2    0.74    1.13
  -1 -11   2    2.69    1.38
  -1 -11   2    1.39    0.53
  -1  11   2    1.81    0.54
  -1  11   1    7.88    0.91
   1  11  -1    7.44    1.02
  -1 -11   1    8.37    1.29
   1 -11  -1    9.25    1.65
  -1  11   1    7.17    1.35
   1  11  -1    7.36    0.97
   1  11  -1    9.63    0.88
   1 -11  -1    9.16    0.93
  -1 -11   1    9.12    1.08
  -1  11   1    9.80    1.59
  -1  11   1   10.87    1.04
  -1  11   1   10.82    2.13
  -1  11   1    8.50    0.97
   1  11  -1    6.02    1.44
   1 -11  -1    7.88    0.98
  -1 -11   1    8.73    1.64
  -1 -11   1    9.48    0.94
  -1  11   0  360.27   17.99
   1  11   0  349.29   18.21
   1 -11   0  347.95   17.95
  -1  11   0  330.99   18.40
  -1 -11   0  324.32   17.86
   1  11   0  323.09   18.10
  -1  11   0  351.26   19.29
   1 -11   0  320.02   18.80
   1  11   0  343.61   18.80
  -1 -11   0  346.00   18.26
  -1 -11   0  345.76   18.91
  -1  11   0  346.50   17.86
  -1 -11   0  342.33   18.03
  -1 -11   0  313.27   18.28
   1  11   0  394.98   17.81
   1 -11   0  362.78   18.92
   1  11   0  346.76   17.93
  -1  11   0  352.39   18.04
  -1  11  -1  102.88    5.24
   1  11   1   91.49    5.43
  -1  11  -1   86.69    5.59
  -1  11  -1   88.88    5.01
   1 -11   1   87.66    4.77
   1 -11   1   83.79    5.98
  -1 -11  -1   89.36    5.57
   1 -11   1   96.02    6.12
  -1  11  -1  100.94    6.47
   1  11   1  102.79    5.00
   1  11   1   95.56    6.15
  -1 -11  -1   85.91    5.01
   1 -11   1   96.41    5.19
  -1 -11  -1   93.79    6.02
  -1  11  -1   89.02    5.90
  -1 -11  -1   85.39    5.51
  -1 -11  -1   86.63    5.23
  -1  11  -2   16.05    1.29
  -1  11  -2   14.28    1.65
   1  11   2   11.31    1.41
   1 -11   2   16.37    1.31
   1 -11   2   14.17    0.95
   1  11   2   14.04    2.15
   1 -11   2   16.50    2.17
   1 -11   2   18.20    2.21
  -1 -11  -2   11.72    1.52
  -1  11  -2   17.50    2.41
  -1 -11  -2   13.86    1.12
  -1 -11  -2   13.83    1.98
   1  11   2   12.63    1.25
  -1  11  -2   16.41    1.95
  -1 -11  -2   11.08    1.27
  -1  11  -3   50.13    3.05
  -1  11  -3   48.73    3.45
   1  11   3   42.40    3.24
  -1 -11  -3   45.58    3.58
   1 -11   3   42.04    3.77
  -1 -11  -3   46.97    3.07
   1 -11   3   51.00    2.70
  -1 -11  -3   48.16    2.87
  -1  11  -3   43.89    4.04
  -1 -11  -3   47.92    3.67
  -1  11  -3   48.63    3.71
   1  11   3   50.78    4.15
  -1  11  -3   47.08    2.78
   1  11   3   46.79    2.83
   1 -11   3   47.24    3.00
   1 -11   3   52.19    3.92
   1  11   3   45.63    3.05
  -1 -11  -3   46.70    3.72
  -1 -11  -3   42.20    3.32
   1  11   4    1.60    0.59
   1  11   4    1.10    0.54
  -1 -11  -4    1.96    0.94
  -1 -11  -4    1.04    1.08
  -1  11  -4    0.37    0.85
  -1 -11  -4    2.00    0.59
   1 -11   4    1.84    1.33
   1  11   4    1.48    0.86
  -1  11  -4    0.84    1.40
  -1 -11  -4    0.75    0.69
  -1  11  -4    1.23    0.41
  -1 -11  -4    0.79    1.12
   1 -11   4    1.54    0.39
   1 -11   4    2.23    1.44
  -1 -11  -4    1.18    0.64
  -1  11  -4    2.25    1.31
   1 -11   4   -0.09    0.81
  -1  11  -5   15.69    2.02
   1  11   5   11.84    1.39
  -1 -11  -5   15.50    1.43
  -1 -11  -5   11.67    1.66
   1 -11   5   13.88    1.11
  -1 -11  -5   12.69    1.88
   1 -11   5   14.79    1.55
  -1  11  -5   14.06    1.55
   1  11   5   12.07    1.62
  -1  11  -5   15.07    2.49
  -1 -11  -5   13.32    1.96
  -1 -11  -5   12.49    1.53
   1 -11   5   15.47    1.29
   1  11   5   12.54    1.22
   1 -11   5   16.00    2.27
   1 -11   5   11.78    1.99
   1  11   5   13.60    1.38
   1 -11   5   17.10    1.54
  -1  11  -5   13.79    1.62
   1 -11   6    0.56    0.75
   1  11   6    0.67    0.50
   1  11   6    0.59    0.90
   1 -11   6   -0.16    0.43
  -1  11  -6   -0.26    0.74
  -1 -11  -6    0.52    0.90
   1  11   6    0.12    0.92
   1 -11   6    0.74    1.18
   1 -11   6    0.81    0.87
  -1 -11  -6    0.59    0.90
  -1  11  -6    0.16    1.31
  -1  11  -6    0.39    0.79
   1 -11   6    0.68    0.45
  -1 -11  -6    0.46    1.14
  -1 -11  -6    1.26    1.20
  -1 -11  -6   -0.24    0.65
   1  11   6    0.42    0.50
   1 -11   7   11.71    1.02
   1  11   7    8.37    1.46
   1 -11   7   10.96    1.42
  -1 -11  -7   10.66    1.19
  -1  11  -7   14.26    1.43
  -1 -11  -7    9.95    1.48
  -1  11  -7   12.43    1.83
   1 -11   7    7.61    1.65
   1 -11   7   11.66    1.31
   1 -11   8    2.77    0.80
  -1  11  -8    3.33    0.86
  -1 -11  -8    3.75    0.74
   1  11   8    3.16    1.10
   1 -11   8    3.10    0.92
   1 -11   8    3.55    0.50
  -1  11  -8    2.94    1.22
   1 -11   9    1.64    0.63
  -1  11  -9    1.61    0.67
  -1 -11  -9    1.25    0.49
   1  11   9    0.75    0.81
   1  11   9    2.04    1.47
  -1  11  -9    0.50    0.85
  -1 -11  -9    1.23    0.41
   1 -12  -9    5.69    0.97
   1  12  -9    4.12    0.68
   1 -12  -9    4.38    0.66
  -1  12   9    4.16    1.04
  -1  12   9    2.63    1.32
  -1  12   8   13.48    1.72
  -1 -12   8   10.12    0.97
   1 -12  -8   11.15    1.10
  -1  12   8   10.69    1.98
   1 -12  -8    9.64    1.38
  -1 -12   8    9.86    0.97
  -1  12   8    8.06    1.11
  -1 -12   7    0.32    0.51
   1  12  -7    0.51    0.37
  -1  12   7   -0.15    1.11
  -1  12   7    1.41    1.56
   1 -12  -7   -0.48    0.95
   1 -12  -7   -0.14    0.60
  -1  12   7   -0.89    0.84
   1 -12  -6   17.34    2.08
   1 -12  -6   17.33    1.84
   1 -12  -6   18.21    1.49
   1  12  -6   15.52    1.65
  -1  12   6   14.17    2.06
   1 -12  -6   16.02    1.98
  -1  12   6   18.75    2.69
  -1 -12   6   14.43    1.38
  -1 -12   6   13.01    1.32
  -1  12   6   16.41    1.45
  -1 -12   6   14.72    1.85
   1  12  -6   15.61    1.20
   1  12  -5   29.61    2.35
  -1  12   5   40.91    2.69
  -1 -12   5   30.95    2.01
  -1  12   5   35.96    3.61
  -1  12   5   32.05    3.00
   1  12  -5   29.15    2.11
  -1 -12   5   31.74    2.28
  -1 -12   5   31.79    2.27
   1 -12  -5   33.17    2.79
  -1 -12   5   28.62    2.71
  -1  12   5   32.73    2.35
  -1 -12   5   33.86    3.03
  -1  12   5   33.82    2.91
   1  12  -5   34.86    2.17
   1 -12  -5   33.45    3.01
  -1 -12   4    4.05    1.12
   1  12  -4    2.55    0.65
  -1  12   4    2.45    1.26
  -1  12   4    2.17    0.49
   1  12  -4    3.35    0.61
  -1  12   4    3.63    1.87
  -1  12   4    4.26    0.98
   1  12  -4    2.40    0.69
  -1  12   4    4.00    1.45
   1 -12  -4    2.81    1.29
   1 -12  -4    3.57    0.95
  -1 -12   4    2.21    0.60
   1 -12  -4    3.11    1.15
  -1 -12   4    2.28    0.60
   1 -12  -4    3.04    1.01
  -1 -12   4    3.19    0.72
  -1  12   4    2.64    0.66
   1 -12  -3   11.36    1.19
  -1  12   3   10.61    1.04
   1  12  -3   11.19    1.12
  -1 -12   3   11.42    1.56
   1  12  -3   10.08    1.19
   1 -12  -3   11.56    1.34
   1 -12  -3    8.73    1.62
   1  12  -3    7.66    1.47
  -1  12   3   12.45    2.32
  -1 -12   3   10.33    1.09
  -1  12   3   12.38    1.32
  -1 -12   3   13.73    2.08
   1 -12  -3    9.90    1.63
  -1  12   3   13.18    1.26
  -1 -12   3    8.89    1.13
  -1  12   3   16.01    1.92
   1  12  -3   11.83    1.27
   1 -12  -3   10.13    1.04
   1  12  -2    0.08    0.53
  -1  12   2    0.77    1.15
   1  12  -2    0.27    1.07
  -1 -12   2   -0.50    0.86
   1  12  -2   -0.34    0.58
  -1 -12   2    0.55    1.35
  -1  12   2    0.40    0.51
  -1  12   2    1.80    1.58
   1 -12  -2    0.33    1.17
  -1  12   2    0.46    1.00
   1 -12  -2   -0.43    0.62
   1 -12  -2    0.08    0.64
  -1  12   2   -0.74    0.65
   1 -12  -2    0.06    0.43
  -1 -12   2   -0.33    0.47
   1 -12  -2    0.49    1.14
  -1 -12   2    0.08    0.53
   1  12  -2    0.05    0.35
  -1  12   1    6.34    0.83
   1  12  -1    6.74    0.93
  -1 -12   1    4.59    1.11
   1 -12  -1    4.21    1.37
  -1  12   1    5.00    1.19
   1  12  -1    5.56    0.88
   1  12  -1    7.26    0.74
  -1  12   1    7.11    2.02
  -1  12   1    3.57    1.21
   1 -12  -1    5.47    0.85
   1  12  -1    6.56    0.76
  -1  12   1    6.05    0.87
  -1 -12   1    5.53    0.95
  -1 -12   1    4.06    0.71
   1 -12  -1    5.78    0.83
  -1 -12   1    4.84    1.58
  -1 -12   1    4.41    0.82
  -1  12   1    5.39    0.86
   1  12  -1    4.63    1.33
  -1 -12   0  205.42   11.79
  -1  12   0  234.44   11.97
   1  12   0  226.08   12.12
   1 -12   0  239.91   13.03
  -1  12   0  218.30   12.42
  -1  12   0  233.45   11.87
  -1 -12   0  230.45   12.99
   1  12   0  193.06   12.01
  -1 -12   0  215.15   12.32
   1  12   0  204.15   12.67
  -1 -12   0  225.93   12.24
  -1  12   0  255.36   13.58
   1  12   0  251.29   11.77
   1 -12   0  217.36   12.88
   1  12   0  235.37   11.92
  -1 -12  -1    6.27    1.19
  -1  12  -1    4.75    1.14
  -1  12  -1    5.37    0.79
   1 -12   1    7.32    1.72
   1  12   1    4.93    0.92
  -1 -12  -1    3.63    0.63
  -1  12  -1    6.11    0.76
  -1  12  -1    8.07    1.99
  -1 -12  -1    4.90    1.59
   1  12   1    5.23    1.74
  -1 -12  -1    4.72    0.84
  -1 -12  -1    5.21    1.18
   1 -12   1    4.87    0.77
   1 -12   1    2.41    1.47
   1  12   1    3.79    0.64
  -1  12  -1    5.05    1.50
   1 -12   2    0.92    1.42
  -1  12  -2    3.21    0.70
   1  12   2    3.73    0.83
  -1  12  -2    2.05    0.97
  -1 -12  -2    2.56    0.55
  -1 -12  -2    2.47    0.93
  -1  12  -2    3.27    1.39
  -1  12  -2    2.19    1.61
   1  12   2    3.31    1.60
  -1 -12  -2    3.00    0.77
  -1 -12  -2    2.06    1.27
  -1 -12  -2    2.30    0.49
   1 -12   2    3.40    0.73
   1 -12   2    5.36    1.66
  -1 -12  -2    2.97    1.12
  -1 -12  -2    0.16    1.17
   1  12   2    3.33    0.70
  -1  12  -3   16.00    1.40
   1  12   3   15.49    1.57
  -1  12  -3   12.92    1.63
  -1 -12  -3   14.04    1.98
  -1 -12  -3   14.61    1.43
  -1 -12  -3   14.56    1.20
   1  12   3   13.96    2.38
  -1  12  -3   14.72    1.19
   1  12   3   16.46    1.30
   1 -12   3   14.82    1.38
  -1 -12  -3   14.70    2.02
   1 -12   3   15.58    2.26
   1  12   3   15.34    1.42
  -1  12  -3   15.58    2.01
  -1  12  -3   16.55    2.58
   1 -12   3   12.87    2.20
  -1 -12  -3   15.34    1.73
  -1  12  -4  202.90   11.12
  -1 -12  -4  182.22   10.97
  -1 -12  -4  197.87   10.41
  -1 -12  -4  199.47   10.71
  -1  12  -4  209.37   11.51
  -1  12  -4  175.15   10.73
  -1  12  -4  199.32   11.88
   1 -12   4  200.76   11.68
  -1  12  -4  195.14   10.32
  -1 -12  -4  193.52   11.28
   1  12   4  207.97   10.51
   1 -12   4  210.70   10.63
  -1 -12  -4  195.54   11.38
   1 -12   4  201.82   11.75
   1  12   4  208.73   10.73
   1 -12   4  184.41   10.71
   1 -12   5    0.27    0.69
  -1  12  -5    0.52    0.72
   1  12   5    0.79    0.53
  -1 -12  -5    0.13    0.83
   1  12   5    0.55    0.84
  -1 -12  -5    0.27    0.46
  -1  12  -5    0.44    1.52
   1  12   5    0.66    0.61
  -1  12  -5   -0.20    0.79
  -1 -12  -5    0.92    1.24
  -1 -12  -5   -0.34    1.11
   1 -12   5    2.57    1.52
  -1 -12  -5    0.08    0.67
  -1  12  -5    1.14    1.19
   1 -12   5   -0.95    1.19
   1  12   5    0.25    0.49
  -1 -12  -6   11.75    1.23
  -1 -12  -6    8.61    0.95
  -1  12  -6   11.46    1.36
   1  12   6   13.13    2.45
   1  12   6   10.35    1.44
   1 -12   6    8.87    1.19
   1 -12   6    9.99    1.22
   1 -12   6    9.98    1.00
  -1  12  -6    9.91    1.71
  -1 -12  -7    9.88    0.95
  -1 -12  -7    8.85    1.10
  -1  12  -7   11.12    1.30
   1  12   7   10.01    1.38
   1  12   7   11.69    2.26
   1 -12   7   11.43    1.21
   1 -12   7    8.96    0.90
   1 -12   7   10.18    1.71
  -1  12  -7   12.10    1.71
   1 -12   7   11.93    1.28
   1 -12   8    1.99    0.68
  -1 -12  -8    1.15    0.53
   1  12   8    1.60    0.86
  -1  12  -8    0.78    0.72
   1  12   8    1.38    1.49
  -1 -12  -8    0.54    0.40
  -1  12  -8    1.20    0.95
  -1 -12  -9   40.02    2.24
   1  12   9   39.18    2.40
   1  12   9   55.69    3.43
  -1  12  -9   53.72    2.53
   1 -12   9   49.88    2.45
   1 -13  -9    0.43    0.40
  -1  13   9    0.08    0.77
   1  13  -9   -0.11    0.38
  -1  13   9    1.17    1.07
  -1 -13   8   12.97    1.01
  -1  13   8    9.08    1.80
   1 -13  -8    9.80    1.01
  -1  13   8   10.42    1.10
  -1  13   8   11.20    1.55
  -1 -13   7   16.56    1.36
  -1  13   7   17.05    2.02
  -1  13   7   18.11    2.52
   1  13  -7   15.31    1.56
  -1  13   7   18.32    1.65
   1 -13  -7   17.26    1.44
   1 -13  -6    2.47    0.75
  -1  13   6    1.37    1.20
   1  13  -6    1.54    0.82
  -1  13   6    5.25    1.83
   1 -13  -6    2.99    0.98
  -1 -13   6    1.80    0.65
   1 -13  -6    3.38    0.56
  -1 -13   6    2.76    0.62
   1 -13  -6    1.50    0.93
  -1  13   5   12.45    2.31
   1 -13  -5   13.27    1.71
  -1  13   5   10.22    1.92
  -1 -13   5   11.28    0.97
  -1 -13   5   12.13    1.85
  -1 -13   5   12.18    1.59
  -1 -13   5    9.92    1.15
   1  13  -5   16.07    1.11
  -1 -13   5   12.31    1.18
   1 -13  -5   11.47    1.08
   1 -13  -5   10.77    1.77
   1 -13  -5   11.39    1.47
  -1  13   5   11.57    1.26
   1  13  -5   11.48    1.03
  -1  13   4  154.36    8.34
   1  13  -4  156.88    8.43
  -1  13   4  166.26    8.76
  -1 -13   4  150.07    8.25
   1 -13  -4  143.41    8.63
  -1 -13   4  141.59    8.93
   1 -13  -4  156.23    9.12
  -1 -13   4  154.85    8.47
   1 -13  -4  153.68    8.88
  -1 -13   4  158.59    8.52
  -1  13   4  163.81    8.63
  -1  13   4  168.89   10.20
   1 -13  -4  148.88    9.28
  -1  13   4  162.22    9.13
   1  13  -4  158.27    8.42
  -1  13   3   -0.60    1.12
  -1  13   3    0.27    0.38
   1  13  -3    0.53    0.50
  -1 -13   3   -0.14    0.87
  -1  13   3    0.81    0.81
   1 -13  -3    0.65    0.71
  -1  13   3   -0.16    1.23
   1  13  -3   -0.08    0.58
  -1  13   3   -0.48    1.74
   1 -13  -3    0.17    1.10
   1 -13  -3   -0.38    0.63
   1  13  -3    0.25    0.93
   1  13  -3    0.15    0.47
  -1 -13   3    0.42    0.50
  -1 -13   3    0.57    1.34
   1 -13  -3   -0.15    1.04
  -1 -13   3    0.08    0.55
  -1  13   3   -0.09    0.54
   1 -13  -3    0.45    0.49
   1  13  -2    0.16    0.49
  -1  13   2   -0.08    0.66
  -1 -13   2    0.26    0.87
  -1  13   2   -0.96    1.64
  -1  13   2   -0.16    1.31
   1 -13  -2   -0.70    1.23
   1 -13  -2    0.80    0.54
   1  13  -2   -0.83    1.01
   1 -13  -2   -0.08    0.65
   1 -13  -2   -0.15    0.64
   1  13  -2   -0.24    0.51
  -1 -13   2   -1.34    1.46
  -1 -13   2    0.21    0.49
   1 -13  -2   -0.51    1.19
  -1 -13   2    0.25    0.58
  -1  13   2    0.43    0.55
  -1  13   1   13.62    1.26
   1  13  -1   11.49    1.29
   1 -13  -1   16.22    2.12
  -1  13   1   12.69    1.30
  -1  13   1   14.71    1.90
  -1 -13   1   11.43    1.17
  -1 -13   1    9.28    1.95
   1 -13  -1   12.80    1.27
   1 -13  -1   14.16    1.33
   1  13  -1   14.49    1.17
  -1  13   1   14.15    1.36
  -1  13   1   14.08    2.49
  -1 -13   1   14.80    1.73
   1  13  -1   13.58    1.21
  -1 -13   1   12.83    1.32
   1  13  -1   12.71    1.86
  -1  13   0   97.39    5.34
   1  13   0   92.58    5.44
  -1  13   0  107.85    6.96
  -1  13   0   86.69    5.87
   1 -13   0   91.91    6.22
  -1 -13   0   85.31    5.52
   1 -13   0   85.57    6.18
   1  13   0   83.42    5.98
   1 -13   0  103.20    5.34
   1  13   0   98.25    5.12
  -1  13   0   89.74    5.21
  -1 -13   0   85.69    5.14
  -1 -13   0   91.45    6.29
  -1 -13   0   85.65    5.65
   1  13   0   91.89    5.24
  -1  13  -1  160.76    8.28
   1  13   1  146.95    8.38
  -1 -13  -1  151.78    8.30
   1  13   1  160.22    8.05
  -1  13  -1  149.68    8.78
  -1 -13  -1  132.56    7.99
   1  13   1  146.66    9.22
  -1  13  -1  155.03    8.12
  -1  13  -1  170.31    9.83
  -1 -13  -1  152.90    8.71
   1 -13   1  149.80    9.21
   1 -13   1  158.69    8.27
   1 -13   1  154.63    9.43
  -1 -13  -1  155.75    9.22
   1  13   1  147.50    8.21
  -1 -13  -1  128.49    8.49
  -1  13  -2  169.73    8.35
   1  13   2  144.74    8.38
  -1  13  -2  154.65    8.82
  -1  13  -2  169.67    9.84
   1  13   2  152.88    9.32
  -1 -13  -2  125.83    7.91
   1 -13   2  149.59    9.26
  -1 -13  -2  144.58    8.91
  -1 -13  -2  152.37    8.31
   1 -13   2  171.34    8.31
  -1 -13  -2  170.17    9.24
   1 -13   2  157.85    9.48
  -1 -13  -2  149.23    8.80
  -1  13  -2  155.44    9.10
  -1 -13  -2  140.97    8.57
   1 -13   3   -0.39    1.26
  -1  13  -3    1.61    1.64
  -1  13  -3    0.73    0.56
   1  13   3    1.95    0.65
  -1 -13  -3    0.91    0.43
  -1 -13  -3    0.91    0.72
  -1 -13  -3    0.15    1.13
   1  13   3    0.84    1.62
  -1  13  -3    0.69    0.50
   1  13   3    0.12    0.55
  -1 -13  -3    0.46    1.17
  -1  13  -3    0.68    0.92
  -1 -13  -3    0.12    0.81
   1 -13   3    0.46    0.55
   1 -13   3    0.83    1.47
  -1  13  -3    0.99    1.12
   1  13   3    1.22    0.58
   1  13   4   98.96    5.92
  -1  13  -4  105.32    6.35
  -1 -13  -4   94.20    6.15
  -1 -13  -4   91.92    5.49
  -1 -13  -4  103.07    5.88
  -1  13  -4   95.67    5.99
  -1  13  -4  106.79    7.17
   1 -13   4  103.25    6.78
  -1  13  -4  104.90    5.56
   1  13   4  107.40    5.75
   1 -13   4  112.93    5.83
   1 -13   4  104.48    6.93
  -1  13  -4  105.37    6.63
   1  13   4  104.61    5.88
  -1 -13  -4  104.81    6.53
   1 -13   4   98.11    5.90
   1  13   5    0.40    0.61
   1 -13   5   -0.51    0.72
  -1 -13  -5   -0.04    0.39
  -1 -13  -5    0.23    0.63
  -1  13  -5   -0.21    1.45
  -1  13  -5   -0.10    0.80
  -1 -13  -5    0.59    1.07
   1 -13   5   -0.20    1.25
  -1  13  -5    0.76    1.32
   1 -13   6    3.31    0.80
  -1 -13  -6    3.36    0.54
   1  13   6    2.25    0.88
   1 -13   6    3.29    0.61
  -1  13  -6    4.09    0.90
  -1 -13  -6    2.85    0.78
   1  13   6    2.43    1.81
  -1  13  -6    5.44    1.31
  -1 -13  -7   17.70    1.32
  -1 -13  -7   20.51    1.60
   1  13   7   22.24    2.69
  -1  13  -7   25.90    1.84
   1  13   7   21.41    1.77
   1 -13   7   22.66    1.45
  -1  13  -7   20.56    2.03
   1 -13   7   21.37    1.68
   1  13   8   21.73    1.63
  -1  13  -8   35.29    1.91
  -1 -13  -8   26.14    1.65
   1 -13   8   32.52    1.79
   1  13   8   30.91    2.66
  -1 -14   8    1.32    0.38
   1 -14  -8    2.20    0.53
  -1  14   8    1.35    0.91
  -1  14   8    1.24    1.17
  -1  14   7    1.37    0.75
   1 -14  -7    2.28    0.61
   1  14  -7    1.74    0.74
  -1  14   7    0.33    1.30
  -1 -14   7    1.09    0.46
   1  14  -6   11.38    1.36
  -1  14   6   15.10    2.37
  -1 -14   6   12.61    1.13
   1  14  -6   11.79    0.96
   1 -14  -6   10.72    1.43
  -1 -14   5    4.62    0.60
   1 -14  -5    5.41    0.71
  -1 -14   5    6.33    0.85
  -1 -14   5    6.34    0.84
   1  14  -5    6.18    0.71
  -1  14   5    4.61    1.10
   1 -14  -5    6.96    1.32
  -1 -14   5    5.79    1.38
   1 -14  -4   24.67    2.60
  -1 -14   4   26.58    1.80
  -1  14   4   27.84    2.25
   1 -14  -4   25.65    2.28
  -1  14   4   23.09    2.57
  -1 -14   4   25.38    1.93
  -1 -14   4   25.71    1.97
   1  14  -4   28.44    1.81
   1 -14  -4   29.58    2.60
  -1  14   4   29.14    3.34
  -1  14   4   29.19    2.13
  -1  14   3   14.98    1.26
   1  14  -3   13.80    1.30
  -1 -14   3   11.37    1.65
   1 -14  -3   13.20    1.33
   1  14  -3   10.77    1.48
  -1 -14   3   13.37    1.23
   1  14  -3   12.85    1.28
  -1  14   3   11.61    1.92
  -1  14   3   16.38    2.77
   1 -14  -3   10.46    1.87
  -1 -14   3   12.63    1.26
  -1  14   3   18.71    1.67
   1 -14  -3   12.92    1.23
  -1 -14   3   16.98    2.28
   1 -14  -3   14.95    1.88
  -1  14   3   13.31    1.40
  -1 -14   3   14.18    1.36
  -1  14   3   20.30    2.05
   1  14  -3   16.57    1.21
   1  14  -2    7.24    1.04
  -1  14   2    7.16    0.89
  -1  14   2    6.61    2.23
  -1 -14   2    7.80    1.03
   1 -14  -2    7.53    1.02
  -1  14   2    7.04    1.54
   1 -14  -2    5.65    1.46
   1  14  -2    4.60    1.22
  -1  14   2    5.83    1.02
  -1 -14   2    7.44    1.27
   1 -14  -2    7.83    1.68
  -1 -14   2    5.37    0.84
   1 -14  -2    5.83    0.89
   1  14  -2    7.91    0.84
  -1 -14   2    8.27    1.85
  -1  14   2    7.68    1.00
  -1  14   2   10.50    1.67
  -1  14   1    9.42    1.06
   1  14  -1   10.12    1.17
   1 -14  -1    8.17    1.62
   1  14  -1    7.11    1.55
  -1 -14   1    8.43    1.42
  -1  14   1   14.74    1.94
   1 -14  -1    9.95    1.08
   1  14  -1   12.79    1.07
  -1  14   1   13.09    1.30
  -1 -14   1    9.14    1.01
  -1  14   1    8.86    2.28
  -1 -14   1    9.01    1.82
  -1 -14   1   13.60    1.28
   1 -14  -1    9.64    1.01
   1 -14   0    5.39    1.54
  -1  14   0    5.99    0.85
   1  14   0    5.16    0.87
  -1  14   0    5.14    2.04
  -1 -14   0    4.49    1.09
  -1  14   0    4.15    1.25
   1  14   0    4.77    1.46
   1 -14   0    5.99    1.82
   1  14   0    6.13    0.79
  -1  14   0    5.41    0.91
  -1 -14   0    4.10    0.71
   1 -14   0    4.82    0.85
  -1 -14   0    2.81    1.40
  -1 -14   0    4.92    0.86
   1  14   0    6.05    0.84
  -1  14  -1  183.50    9.41
   1  14   1  177.07    9.51
  -1  14  -1  177.23   10.02
  -1 -14  -1  162.42    9.72
  -1  14  -1  193.53   11.05
   1  14   1  156.09   10.13
   1 -14   1  177.72   10.54
   1  14   1  175.28    9.18
  -1  14  -1  177.35    9.27
  -1 -14  -1  159.09    9.10
   1 -14   1  180.46    9.39
   1 -14   1  177.49   10.40
  -1 -14  -1  180.34   10.38
   1  14   1  169.65    9.32
  -1 -14  -1  153.79    9.64
  -1  14  -2  640.92   30.55
   1  14   2  582.87   30.56
  -1  14  -2  576.18   31.00
   1 -14   2  600.13   31.71
   1 -14   2  635.30   30.49
  -1  14  -2  651.89   32.14
  -1 -14  -2  557.22   30.95
  -1 -14  -2  591.01   30.49
   1  14   2  586.73   31.50
  -1 -14  -2  574.61   31.12
   1 -14   2  587.02   31.45
  -1 -14  -2  627.92   31.40
   1  14   2  577.67   30.46
  -1 -14  -2  527.71   30.73
  -1 -14  -3  197.62   12.08
   1  14   3  215.02   11.90
  -1  14  -3  219.09   11.59
  -1  14  -3  222.08   12.36
  -1 -14  -3  213.07   11.86
   1 -14   3  232.49   13.09
   1  14   3  211.76   12.89
  -1 -14  -3  200.10   12.33
   1 -14   3  230.43   12.85
  -1  14  -3  239.67   13.33
  -1 -14  -3  217.99   12.45
   1  14   3  237.24   11.74
   1 -14   3  243.55   11.85
   1  14   3  216.62   11.82
   1  14   4   21.39    2.69
  -1 -14  -4   17.71    1.61
  -1  14  -4   18.39    1.76
   1 -14   4   19.60    1.55
   1  14   4   18.79    1.56
  -1  14  -4   20.57    2.80
  -1 -14  -4   14.08    1.97
  -1  14  -4   18.34    2.09
   1 -14   4   15.95    2.37
  -1  14  -5    8.60    1.19
  -1  14  -5    9.23    1.98
   1 -14   5    9.06    0.98
  -1 -14  -5    9.03    1.56
   1 -14   5   10.56    1.86
  -1  14  -5    9.22    1.52
  -1 -14  -5    8.70    1.10
   1 -14   6    3.99    0.78
  -1  14  -6    3.05    1.02
  -1  14  -6    5.56    0.94
  -1 -14  -6    4.38    0.78
   1 -14   6    4.68    0.63
  -1 -14  -7    0.25    0.46
   1 -14   7    0.60    0.50
   1 -14   7    0.07    0.27
   1 -14   7    0.17    0.24
  -1  14  -7   -0.06    0.61
   1  14   7   -0.14    1.20
   1 -14   8    3.62    0.54
  -1  14  -8    4.44    0.67
  -1 -14  -8    2.63    0.50
  -1 -15   7   -0.04    0.33
  -1 -15   7   -0.12    0.31
  -1  15   7    0.40    1.16
   1  15  -7    0.27    0.52
   1  15  -6   58.09    3.62
  -1 -15   6   58.26    3.37
  -1  15   6   60.84    4.52
  -1  15   6   55.60    3.65
  -1  15   5   -0.28    0.77
   1 -15  -5   -0.11    0.84
  -1  15   5   -0.39    1.64
   1  15  -5   -0.09    0.74
  -1  15   5    0.25    1.05
  -1 -15   5    0.24    0.48
  -1 -15   5    0.34    0.48
   1  15  -5    0.16    0.40
  -1  15   4    4.72    1.91
  -1 -15   4    3.80    0.60
  -1  15   4    5.77    1.06
  -1  15   4    2.89    1.25
  -1 -15   4    4.73    0.70
   1  15  -4    3.77    0.61
  -1 -15   4    4.35    0.75
   1 -15  -4    3.33    1.11
  -1 -15   3    3.76    0.68
   1 -15  -3    4.35    0.79
  -1  15   3    3.46    0.94
  -1  15   3    2.51    1.89
  -1 -15   3    3.93    0.69
   1 -15  -3    3.90    0.69
  -1 -15   3    4.86    1.50
   1 -15  -3    4.85    1.24
  -1 -15   3    4.32    0.80
   1  15  -3    3.67    0.65
   1  15  -2   10.24    1.49
   1 -15  -2   12.72    1.88
   1  15  -2   13.46    1.15
  -1  15   2   13.19    1.42
  -1  15   2   12.78    2.48
  -1 -15   2   12.95    1.28
   1 -15  -2   10.99    1.06
   1 -15  -2   12.70    1.20
   1  15  -1    1.17    0.51
  -1  15   1    0.08    0.70
   1 -15  -1    0.88    1.20
   1  15  -1    0.13    0.99
   1  15  -1    0.77    0.57
  -1 -15   1    0.06    0.45
   1 -15  -1    0.43    0.56
  -1  15   1    1.44    1.87
  -1 -15   1    0.37    1.33
  -1 -15   1    0.08    0.57
  -1  15   1   -0.68    1.14
  -1  15   0    1.65    0.52
   1  15   0    1.45    0.59
  -1  15   0    3.12    1.96
   1 -15   0    1.79    1.28
   1  15   0    0.60    1.19
   1  15   0    3.21    0.63
  -1  15   0    1.27    0.71
  -1 -15   0    1.43    0.46
   1 -15   0    1.55    0.62
   1 -15   0   -0.19    1.31
  -1 -15   0    3.24    1.34
  -1 -15   0    2.52    0.67
  -1  15  -1    0.08    0.49
   1  15   1    0.26    0.51
   1 -15   1   -0.36    1.05
  -1  15  -1    0.95    1.83
   1  15   1   -0.33    1.18
  -1 -15  -1   -0.30    1.15
   1  15   1    0.24    0.54
   1 -15   1    0.45    0.52
  -1  15  -1   -0.14    0.58
   1 -15   1   -0.40    1.24
  -1 -15  -1   -0.68    1.37
  -1 -15  -1    0.25    0.55
   1  15   2   18.82    2.50
   1 -15   2   25.62    1.88
  -1  15  -2   25.82    3.03
  -1 -15  -2   23.27    2.44
   1 -15   2   20.67    2.76
  -1 -15  -2   25.19    2.57
  -1 -15  -3   32.74    2.37
  -1  15  -3   36.82    3.62
   1  15   3   31.24    3.18
   1 -15   3   32.45    2.12
  -1 -15  -3   31.04    2.84
  -1  15  -3   33.41    2.21
   1  15   3   35.48    2.32
   1 -15   3   34.22    2.30
   1 -15   3   32.56    2.34
   1 -15   3   40.19    3.49
   1 -15   4    3.41    0.72
  -1 -15  -4    2.74    0.75
  -1  15  -4    1.89    0.78
  -1  15  -4    3.54    1.61
   1  15   4    2.44    1.49
   1  15   4    3.19    0.71
   1 -15   4    2.90    0.62
   1 -15   4    4.35    1.54
  -1 -15  -4    4.34    1.14
  -1  15  -5    1.47    0.73
  -1 -15  -5    0.56    0.55
   1 -15   5    0.68    0.44
  -1 -15  -5    2.82    1.04
   1 -15   5    1.26    1.16
  -1 -15  -6    1.54    0.56
   1 -15   6    1.38    0.40
  -1  15  -6    2.59    0.74
  -1 -15  -7   -0.08    0.38
   1 -15   7    0.34    0.23
   1  16  -7   -0.04    0.44
  -1  16   7   -0.77    0.96
  -1 -16   7   -0.11    0.27
  -1  16   6    0.93    1.21
   1  16  -6    1.27    0.67
  -1  16   6    0.90    0.60
  -1 -16   6    1.52    0.43
   1  16  -5    3.13    0.82
  -1  16   5    2.76    1.41
  -1 -16   5    2.45    0.53
  -1  16   5    3.35    0.82
  -1 -16   5    2.87    0.54
   1 -16  -5    2.16    0.86
  -1 -16   4    2.10    0.41
  -1  16   4    4.27    1.64
  -1 -16   4    2.00    0.50
  -1 -16   4    3.34    0.61
   1  16  -4    2.93    0.53
  -1  16   4    3.05    0.85
   1 -16  -4    1.30    0.91
  -1 -16   3   12.82    1.06
  -1 -16   3   14.45    1.23
  -1 -16   3   13.42    1.14
   1  16  -3   13.82    1.11
  -1  16   3   13.61    1.43
   1 -16  -3   11.26    1.09
   1 -16  -3   14.78    1.74
  -1 -16   3   12.48    1.80
   1 -16  -3   12.72    1.52
   1 -16  -3   10.79    0.97
  -1  16   3   16.05    2.50
  -1  16   2    0.86    1.70
  -1  16   2    0.17    0.69
   1  16  -2    0.09    0.79
   1  16  -2    0.81    0.49
   1 -16  -2    0.06    0.48
   1 -16  -2   -0.27    1.03
  -1 -16   2   -0.32    1.09
  -1 -16   2    0.48    0.52
  -1  16   1    0.40    0.67
   1  16  -1   -0.32    0.87
  -1  16   1   -1.76    1.86
   1  16  -1    0.49    0.51
  -1 -16   1    0.49    0.42
   1 -16  -1    0.26    0.48
  -1 -16   1    0.33    1.03
  -1 -16   1    0.21    0.49
  -1  16   1    0.66    1.03
   1 -16   0    7.44    1.65
  -1 -16   0    6.52    0.89
   1  16   0    5.14    1.27
  -1  16   0    6.63    2.07
  -1 -16   0    3.90    1.24
   1  16   0    6.71    0.84
  -1  16   0    5.33    0.89
   1 -16   0    5.37    0.82
  -1 -16   0    5.87    1.59
   1  16   1   15.92    2.14
   1 -16   1   26.08    1.88
  -1 -16  -1   26.19    2.42
   1  16   1   27.62    1.85
  -1  16  -1   24.76    1.87
  -1  16  -1   25.28    3.02
   1 -16   1   23.90    2.69
  -1 -16  -1   26.88    2.62
  -1 -16  -1   24.40    1.88
  -1  16  -2    6.98    1.93
   1  16   2    5.68    1.42
   1 -16   2    6.92    0.86
  -1 -16  -2    6.74    1.34
   1 -16   2    4.28    1.54
  -1 -16  -2    5.40    0.85
  -1  16  -2    6.44    0.87
  -1  16  -3   23.92    2.68
   1  16   3   19.18    2.24
  -1  16  -3   19.30    1.69
   1 -16   3   17.86    1.28
   1 -16   3   19.63    1.51
   1  16   3   19.85    1.57
  -1 -16  -3   19.93    2.07
   1 -16   3   17.79    2.33
   1  16   4    2.72    1.31
  -1  16  -4    0.17    1.37
  -1  16  -4   -0.65    0.70
   1  16   4   -0.06    0.51
   1 -16   4    0.31    0.43
   1 -16   4   -0.15    1.10
  -1 -16  -4   -0.34    0.85
   1  16   5    0.72    1.07
  -1  16  -5    0.43    0.56
   1 -16   5    0.12    0.36
   1 -16   5   -0.25    0.97
  -1  16  -6   18.09    1.30
   1  16   6   14.02    1.65
   1 -16   6   15.38    1.06
   1  17  -5    0.39    0.52
  -1  17   5   -0.12    1.05
  -1 -17   5    0.59    0.33
   1  17  -4    0.56    0.63
  -1  17   4    0.74    1.25
   1 -17  -4    0.58    0.68
  -1 -17   4    0.71    0.39
   1  17  -4    0.94    0.42
  -1  17   4    1.31    0.65
  -1 -17   4    0.61    0.36
  -1 -17   4    0.99    0.85
   1  17  -3    4.73    0.60
  -1 -17   3    3.44    0.51
  -1  17   3    3.07    0.79
  -1  17   3    5.87    1.68
  -1 -17   3    2.67    0.56
   1 -17  -3    3.83    0.98
  -1 -17   3    3.31    0.55
  -1 -17   3    4.71    1.16
   1 -17  -2   17.31    1.73
  -1 -17   2   16.41    1.25
  -1  17   2   20.23    2.56
   1  17  -2   18.33    1.31
  -1  17   2   16.32    1.53
   1 -17  -2   15.28    1.28
  -1 -17   2   17.01    1.97
  -1 -17   1    1.04    0.53
  -1  17   1    3.19    1.59
   1 -17  -1    1.55    1.00
  -1 -17   1    2.36    1.08
  -1 -17   1    1.16    0.95
   1  17  -1    1.81    0.58
  -1  17   1    1.33    0.67
   1 -17  -1    1.06    0.49
  -1 -17   1    1.98    0.55
   1  17   0    6.76    1.15
   1  17   0   10.56    1.02
  -1  17   0   10.17    1.09
   1 -17   0    9.89    0.98
  -1  17   0   11.85    2.13
  -1 -17   0   11.77    1.50
   1 -17   0    8.67    1.53
  -1 -17   0    8.10    1.51
  -1 -17   0   10.09    1.00
  -1  17   0   13.51    1.58
  -1  17  -1    2.55    1.66
   1  17   1    2.03    0.93
   1  17   1    2.35    0.63
  -1 -17  -1    1.39    0.93
  -1  17  -1    2.44    0.67
   1 -17   1    2.32    0.55
   1 -17   1    2.51    1.18
  -1 -17  -1    2.32    0.59
   1  17   2    6.08    1.24
   1 -17   2    6.13    0.63
   1 -17   2    7.79    0.84
  -1  17  -2    7.61    0.85
  -1 -17  -2    8.05    1.26
  -1  17  -2    6.28    1.62
   1 -17   2    5.37    1.37
  -1 -17  -2    7.83    0.85
   1  17   3   -0.30    0.85
  -1  17  -3    2.57    1.41
   1  17   3   -0.16    0.51
  -1 -17  -3    0.20    0.80
   1 -17   3    0.81    0.41
   1 -17   3    0.13    1.00
  -1 -17  -3    0.48    0.43
  -1  17  -4    0.27    0.54
  -1 -17  -4   -0.70    0.78
   1 -17   4    0.24    0.34
   1 -17   4   -0.69    0.92
  -1 -17  -4    0.18    0.38
   1  17   4    0.36    0.87
   1  17   5    4.17    0.88
   1 -17   5    4.82    0.52
  -1 -17  -5    5.29    0.60
  -1  17  -5    6.30    0.70
  -1 -18   4    5.88    0.57
  -1  18   4    6.60    1.25
   1  18  -4    5.58    0.79
  -1 -18   4    6.35    0.58
  -1 -18   3   13.19    0.88
  -1  18   3   16.41    1.91
  -1 -18   3   14.61    1.07
   1  18  -3   16.16    1.10
  -1  18   3   14.23    1.27
  -1 -18   2   -0.17    0.33
  -1 -18   2    0.13    0.34
   1  18  -2    0.38    0.41
   1 -18  -2    1.02    0.79
  -1  18   2    0.95    0.57
   1 -18  -2    0.26    0.34
  -1 -18   2   -0.20    0.70
  -1  18   2    1.66    1.21
  -1  18   1   40.52    3.23
   1  18  -1   38.69    2.29
   1 -18  -1   34.10    2.21
  -1  18   1   39.10    2.44
   1 -18  -1   33.85    2.63
  -1 -18   0   42.77    2.57
  -1  18   0   47.90    3.59
  -1 -18   0   41.21    3.00
   1  18   0   48.69    2.71
   1 -18   0   43.32    2.62
  -1  18   0   42.83    2.74
  -1  18  -1    1.11    1.24
   1 -18   1    0.46    0.26
   1  18   1    0.15    0.50
  -1 -18  -1    1.61    0.80
   1 -18   1    0.90    0.42
   1 -18   1    1.21    0.86
  -1 -18  -1    0.48    0.38
  -1  18  -2    1.38    1.15
   1  18   2    0.86    0.56
   1  18   2    0.59    0.48
  -1 -18  -2    1.09    0.70
   1 -18   2    1.82    0.42
   1 -18   2    1.28    0.82
  -1 -18  -2    1.93    0.45
  -1  18  -3   23.04    2.00
   1 -18   3   21.66    1.27
  -1 -18  -3   20.60    1.63
   1 -18   3   24.08    1.85
  -1 -18  -3   18.21    1.26
  -1  19   1    3.78    1.08
  -1 -19   1    2.28    0.41
   1 -19  -1    3.60    0.41
  -1 -19   0    0.79    0.32
  -1 -19   0    0.74    0.31
   1 -19   0    1.36    0.33
  -1 -19  -1   23.98    1.40
  -1  19  -1   21.92    2.00
   1 -19   1   21.88    1.40
   2   0 -12    0.26    0.44
  -2   0  12    0.63    0.48
  -2   0  11    0.61    0.61
   2   0 -11    0.13    0.59
  -2   0  10  111.28    6.52
  -2   0  10  108.57    6.65
   2   0  -9   -0.61    0.96
   2   0  -9   -0.35    0.36
  -2   0   9   -0.82    1.38
  -2   0   9    0.71    0.76
  -2   0   9   -0.39    0.57
  -2   0   9    0.37    1.02
   2   0  -9   -0.28    0.64
  -2   0   9   -0.11    0.77
   2   0  -9   -0.04    0.34
   2   0  -8   58.43    2.67
  -2   0   8   27.39    3.29
  -2   0   8   46.66    2.85
  -2   0   8   37.78    2.85
  -2   0   8   36.86    2.82
  -2   0   8   35.34    3.09
   2   0  -8   28.37    2.69
   2   0  -8   40.89    3.12
  -2   0   8   30.85    2.83
   2   0  -8   57.33    2.60
   2   0  -7   -0.04    0.36
  -2   0   7    0.05    0.38
   2   0  -7   -0.08    0.55
  -2   0   7    0.04    0.49
  -2   0   7   -0.15    1.19
   2   0  -7    0.19    0.33
  -2   0   7    0.08    0.62
  -2   0   7    0.34    0.53
   2   0  -7    0.10    0.77
  -2   0   7   -0.43    0.93
  -2   0   7    0.09    0.67
  -2   0   6    2.89    0.56
   2   0  -6    3.12    0.53
  -2   0   6    5.08    1.32
  -2   0   6    3.13    0.60
   2   0  -6    3.86    0.50
  -2   0   6    3.03    0.72
  -2   0   6    3.07    0.96
   2   0  -6    3.53    0.85
   2   0  -6    2.09    0.63
   2   0  -5    0.28    0.29
  -2   0   5   -0.22    0.74
  -2   0   5    0.70    1.24
   2   0  -5   -0.19    0.38
   2   0  -5    0.16    0.49
  -2   0   5   -0.57    0.90
   2   0  -5    0.13    0.63
   2   0  -4  167.50    8.00
  -2   0   4  161.08    8.36
   2   0  -4  138.13    7.96
   2   0  -4  154.53    7.91
  -2   0   4  132.73    8.59
  -2   0   3    0.71    0.93
   2   0  -3   -0.13    0.40
   2   0  -3   -0.12    0.31
  -2   0   2 1144.29   50.88
   2   0  -2  979.39   50.53
  -2   0   1    0.32    0.45
  -2   0   0   37.62    2.08
  -2   0   0   39.75    2.68
  -2   0  -1    0.09    0.25
  -2   0  -1    0.16    1.02
   2   0   2  302.12   15.14
  -2   0  -2  284.14   15.70
  -2   0  -2  291.06   15.54
   2   0   3   -0.09    0.37
  -2   0  -3   -0.09    0.79
  -2   0  -3   -0.54    1.12
  -2   0  -4 1859.27   97.42
   2   0   4 1950.80   96.55
  -2   0  -4 1869.52   97.21
  -2   0  -5    0.51    0.64
   2   0   5    1.35    0.86
  -2   0  -5   -0.49    1.05
  -2   0  -5    0.15    1.28
  -2   0  -6  222.10   11.93
  -2   0  -6  218.99   11.90
   2   0   6  243.78   12.22
  -2   0  -6  223.08   11.77
  -2   0  -6  198.18   12.39
  -2   0  -6  213.62   12.71
   2   0   6  225.96   11.77
   2   0   7    2.88    0.88
   2   0   7    3.14    0.75
  -2   0  -7    6.32    1.06
   2   0   7    4.26    1.58
  -2   0  -7    0.95    1.26
  -2   0  -7    5.40    1.60
   2   0   7    0.44    0.76
   2   0   8    2.32    0.60
  -2   0  -8    1.09    0.82
   2   0   8    1.42    1.28
  -2   0  -8    1.47    0.58
  -2   0  -8    2.11    1.31
  -2   0  -8    2.63    1.47
   2   0   8    0.84    0.63
  -2   0  -9   -0.09    0.73
   2   0   9   -0.45    1.31
  -2   0  -9   -0.15    1.13
   2   0   9    0.60    0.58
   2   0  10   13.01    1.61
  -2   0 -10   10.42    1.17
   2   0  10    9.06    1.72
  -2   0 -10   10.44    1.10
  -2   0 -11    0.05    0.46
   2   0  11   -0.46    0.75
   2   0  11   -0.20    0.86
   2   1 -12    5.04    0.68
   2  -1 -12    4.76    0.66
  -2  -1  12    4.15    0.63
  -2   1  12    4.66    0.69
   2  -1 -11   99.39    5.76
  -2  -1  11  101.70    5.78
  -2   1  11   88.99    5.73
  -2  -1  10   76.75    4.65
   2  -1 -10   73.27    4.72
  -2  -1  10   84.88    4.80
  -2   1  10   74.11    4.77
   2  -1 -10   64.78    4.92
   2  -1  -9   20.78    2.21
   2  -1  -9   25.35    1.57
   2   1  -9   30.79    1.67
  -2  -1   9   25.38    1.88
  -2   1   9   13.76    2.40
  -2  -1   9   14.64    2.61
  -2  -1   9   23.88    1.93
  -2   1   9   22.38    1.96
   2  -1  -9   13.07    1.71
  -2   1   9   23.19    1.83
  -2   1   9   15.95    1.87
  -2  -1   9   15.57    1.86
   2   1  -9   30.56    1.65
  -2  -1   9   18.78    2.20
  -2  -1   8    2.02    0.78
   2  -1  -8    0.28    0.64
   2  -1  -8    1.27    0.44
   2   1  -8    2.28    0.50
  -2   1   8    1.01    0.46
  -2  -1   8    0.74    1.30
  -2  -1   8    1.36    0.61
  -2   1   8    0.82    0.78
  -2   1   8    1.28    0.70
  -2   1   8    0.77    0.92
  -2  -1   8    2.08    1.19
  -2   1   8    1.23    1.33
   2  -1  -8    0.86    0.92
   2   1  -8    1.94    0.94
   2   1  -8    0.67    0.62
  -2   1   8    1.18    0.60
  -2   1   8    1.31    0.82
  -2  -1   8    0.69    0.70
   2   1  -8    2.14    0.47
   2  -1  -7   26.79    1.73
  -2   1   7   25.40    1.84
   2   1  -7   31.81    1.88
   2  -1  -7   28.20    2.27
  -2   1   7   22.91    2.48
  -2  -1   7   21.07    2.55
  -2  -1   7   29.79    2.03
  -2   1   7   28.83    1.96
  -2  -1   7   26.99    1.93
  -2   1   7   25.01    2.10
   2  -1  -7   19.66    1.91
  -2  -1   7   27.48    2.03
  -2   1   7   24.54    1.99
  -2   1   7   26.22    2.22
  -2  -1   7   25.51    2.36
   2   1  -7   18.52    1.85
   2   1  -7   25.58    2.13
  -2  -1   7   39.50    1.97
  -2   1   7   24.73    2.08
  -2  -1   7   22.72    2.05
   2   1  -7   28.19    1.81
  -2  -1   6   11.47    1.00
   2   1  -6   12.38    1.24
   2  -1  -6   12.52    0.95
   2   1  -6   11.98    1.04
  -2   1   6    9.62    1.26
   2   1  -6    9.72    1.07
  -2  -1   6    9.29    1.55
  -2   1   6   12.73    1.09
   2  -1  -6    9.45    1.12
  -2   1   6   12.09    1.62
  -2  -1   6   12.47    1.15
  -2  -1   6   11.97    1.52
   2  -1  -6   14.26    1.41
  -2   1   6   10.18    1.22
   2   1  -6   11.21    0.92
  -2   1   6   11.09    1.13
   2  -1  -5  127.66    6.74
   2   1  -5  143.88    6.86
  -2   1   5  139.19    7.36
  -2  -1   5  125.00    7.36
   2  -1  -5  107.23    6.89
   2  -1  -5  172.62    7.29
   2   1  -5  108.75    6.81
  -2   1   5  123.88    7.00
  -2  -1   5  134.77    7.21
   2   1  -5  151.27    7.08
   2   1  -5  132.63    6.78
  -2   1   5  100.38    7.51
  -2  -1   5   97.54    7.46
   2  -1  -4  322.32   15.66
   2   1  -4  338.18   15.79
  -2   1   4  330.96   16.06
  -2  -1   4  313.71   16.14
   2  -1  -4  274.32   15.72
  -2  -1   4  327.24   16.00
   2   1  -4  279.53   15.65
  -2   1   4  286.86   15.96
  -2   1   4  281.01   16.32
   2   1  -4  346.72   15.75
  -2  -1   4  245.41   16.23
   2  -1  -3  300.50   16.34
   2  -1  -3  331.18   16.32
   2   1  -3  295.10   16.23
  -2   1   3  313.28   16.60
  -2   1   3  350.23   16.98
   2  -1  -3  337.06   16.27
  -2  -1   3  285.73   16.83
   2   1  -3  374.32   16.48
   2  -1  -2    1.02    0.27
   2  -1  -2    0.62    0.33
  -2   1   2    1.12    0.56
  -2  -1   2    0.87    0.65
   2  -1  -2    0.91    0.36
   2  -1  -1  172.68    8.76
  -2   1   1  196.51    8.82
  -2   1   1  158.33    8.86
  -2  -1   1  169.26    8.87
  -2  -1   1  176.48    9.11
   2  -1  -1  161.48    8.70
  -2   1   0  126.92    6.63
  -2   1   0  141.90    7.23
   2  -1   0  121.03    6.57
  -2  -1   0  146.24    7.11
  -2   1  -1    7.56    0.59
   2  -1   1    7.68    0.69
  -2  -1  -1    8.02    1.24
  -2   1  -1    7.59    1.28
   2   1   2   49.04    2.76
   2  -1   2   51.48    2.82
  -2  -1  -2   48.20    3.35
  -2   1  -2   47.72    3.42
   2  -1   3    0.96    0.39
  -2  -1  -3   -0.18    0.50
  -2  -1  -3    0.18    0.81
  -2   1  -3    0.45    0.83
  -2  -1  -3   -0.53    1.10
  -2   1  -3    0.11    1.09
  -2  -1  -4 1088.21   61.00
  -2  -1  -4 1134.75   60.85
   2  -1   4 1345.90   60.31
  -2   1  -4 1156.36   60.87
  -2  -1  -4 1131.39   60.46
  -2   1  -4 1120.25   61.09
   2   1   5    7.64    0.82
   2  -1   5    2.52    0.53
  -2  -1  -5    7.75    1.23
  -2  -1  -5    3.59    0.96
  -2  -1  -5    2.54    0.75
  -2  -1  -5    3.60    1.26
  -2   1  -5    1.22    1.09
  -2   1  -5    2.13    0.70
  -2   1  -5    2.96    0.68
  -2  -1  -5    2.69    1.59
  -2   1  -5    2.10    1.21
  -2   1  -6   39.92    3.31
   2   1   6   31.70    2.43
  -2  -1  -6   28.49    2.66
   2   1   6   34.62    2.99
  -2  -1  -6   31.95    2.64
  -2  -1  -6   28.86    3.12
  -2  -1  -6   31.23    3.26
  -2   1  -6   48.92    3.91
  -2  -1  -6   30.97    2.77
   2   1   6   25.67    2.81
   2  -1   6   55.66    2.91
  -2  -1  -6   32.51    2.77
  -2  -1  -7   55.60    3.68
  -2  -1  -7   55.89    3.77
   2   1   7   58.67    3.39
  -2   1  -7   57.77    3.70
  -2   1  -7   59.80    3.55
  -2  -1  -7   51.16    4.42
   2   1   7   64.21    4.14
  -2  -1  -7   59.03    3.55
   2  -1   7   55.77    4.05
  -2   1  -7   61.28    3.52
  -2  -1  -7   58.96    4.33
  -2   1  -7   48.92    4.11
   2   1   7   51.67    3.80
   2  -1   7   50.49    3.77
   2  -1   7   63.49    3.67
   2  -1   8    2.30    0.74
  -2  -1  -8    2.01    0.84
   2   1   8    1.85    0.64
   2  -1   8    1.71    0.57
  -2  -1  -8    2.29    0.71
  -2   1  -8    1.12    1.24
  -2   1  -8    2.79    0.90
   2  -1   8    2.48    1.35
  -2   1  -8    3.68    0.94
   2   1   8    2.64    1.36
  -2   1  -8    2.43    0.61
  -2  -1  -8    1.64    1.36
  -2  -1  -8    2.69    0.98
  -2   1  -8    2.61    1.49
  -2  -1  -9   19.51    1.69
  -2   1  -9   16.36    1.62
   2  -1   9   19.31    2.34
   2  -1   9   16.96    1.54
   2   1   9   17.61    2.16
  -2  -1  -9   19.44    2.15
  -2  -1 -10   33.69    2.40
   2  -1  10   37.61    2.76
   2   1  10   44.28    2.93
   2   1  10   35.12    2.99
  -2   1 -10   33.56    2.37
   2  -1  10   33.52    2.96
  -2  -1 -10   30.66    2.26
  -2   1 -10   35.80    2.33
   2  -1  10   34.24    2.21
  -2   1 -11   13.43    1.10
   2   1  11   16.38    1.46
   2  -1  11   15.95    1.41
   2   1  11   13.56    1.58
   2  -1  11   11.65    1.58
  -2   1 -11   11.06    0.92
   2  -2 -12   34.34    2.16
   2   2 -12   39.18    2.18
  -2  -2  12   33.14    2.13
  -2   2  12   33.83    2.16
  -2  -2  11    5.81    0.82
   2   2 -11    8.75    1.01
  -2   2  11    8.28    0.99
  -2  -2  11    7.50    0.95
   2  -2 -11    6.72    1.08
   2  -2 -11    7.46    0.93
  -2  -2  10    9.21    1.11
  -2  -2  10   11.16    1.24
  -2   2  10    9.96    1.25
  -2  -2  10    9.29    1.51
   2  -2 -10    9.90    1.49
  -2  -2  10    6.89    1.21
   2  -2  -9    0.04    0.32
   2   2  -9   -0.05    0.34
  -2   2   9    0.57    1.23
  -2  -2   9    0.56    0.58
  -2  -2   9    0.34    0.72
  -2   2   9   -0.11    0.83
  -2   2   9    0.09    0.73
  -2  -2   9   -0.41    1.15
   2  -2  -9    0.68    1.08
   2  -2  -9    0.31    0.62
  -2  -2   9    0.85    1.46
  -2  -2   9    0.41    0.77
   2  -2  -9   -0.09    0.33
   2   2  -9    0.19    0.36
   2  -2  -8    0.81    0.73
   2  -2  -8    0.30    0.33
   2   2  -8    0.84    0.44
  -2   2   8    0.48    0.52
  -2  -2   8    2.04    1.25
  -2  -2   8    0.59    0.48
  -2  -2   8    0.42    0.50
  -2  -2   8    1.37    1.51
  -2   2   8    0.96    0.60
  -2  -2   8    0.46    0.57
   2  -2  -8    1.29    0.68
  -2   2   8    0.66    0.90
  -2   2   8   -0.33    1.35
  -2  -2   8   -0.08    0.64
  -2   2   8    0.77    0.67
   2  -2  -8    0.38    0.99
  -2  -2   8    0.68    0.70
   2  -2  -8    0.98    0.35
   2   2  -8    1.38    0.43
   2  -2  -7    1.89    0.44
   2   2  -7    2.01    0.52
   2  -2  -7    2.28    0.62
  -2   2   7    1.82    0.56
  -2  -2   7    1.20    0.55
  -2   2   7    2.43    0.64
  -2  -2   7    3.68    1.59
  -2   2   7    0.91    0.79
  -2  -2   7    1.63    0.64
  -2  -2   7    1.48    1.07
   2  -2  -7    2.06    0.99
  -2   2   7    2.29    0.71
  -2   2   7    2.13    1.33
  -2  -2   7    1.99    0.48
   2  -2  -7    0.91    0.72
   2  -2  -7    2.32    0.43
   2   2  -7    2.05    0.46
  -2   2   6    5.73    1.77
   2  -2  -6    8.67    0.79
   2   2  -6    8.03    0.87
   2  -2  -6    8.38    1.20
  -2   2   6   11.86    1.50
  -2  -2   6   10.17    0.94
  -2  -2   6   10.61    1.69
   2   2  -6    6.94    0.92
  -2  -2   6   10.22    1.04
  -2   2   6    9.75    1.03
  -2  -2   6    9.63    1.46
  -2   2   6   11.31    1.04
   2  -2  -6    7.36    1.05
   2  -2  -6    9.89    0.75
   2   2  -6   10.97    0.89
   2   2  -5    0.67    0.40
  -2   2   5    0.14    1.11
   2  -2  -5    0.54    0.33
   2   2  -5    0.67    0.45
   2  -2  -5    0.70    0.55
  -2  -2   5    1.33    1.06
  -2  -2   5    0.87    0.87
  -2   2   5    0.97    0.73
   2   2  -5    0.59    0.43
  -2   2   5    0.79    0.85
   2  -2  -5    0.56    0.27
   2  -2  -4  449.55   25.81
   2  -2  -4  508.30   25.65
  -2   2   4  541.88   26.04
  -2  -2   4  469.25   26.17
  -2  -2   4  547.61   26.11
  -2   2   4  471.72   26.03
  -2   2   4  502.26   26.46
   2  -2  -4  509.55   25.58
   2   2  -4  552.70   25.84
  -2  -2   3   28.34    1.92
   2  -2  -3   23.35    1.65
   2   2  -3   26.25    1.65
   2  -2  -3   25.82    1.52
  -2   2   3   23.53    1.85
  -2   2   3   28.30    2.21
   2  -2  -3   25.14    1.45
   2   2  -3   28.84    1.77
   2  -2  -2    1.58    0.22
  -2   2   2    2.22    0.91
  -2  -2   2    2.33    0.81
  -2   2   2    3.10    0.57
   2  -2  -2    1.86    0.46
  -2   2   2    1.93    0.67
   2  -2  -1   39.01    2.13
  -2   2   1   36.33    2.35
  -2  -2   1   41.70    2.52
   2  -2  -1   37.22    2.26
   2  -2  -1   38.20    2.10
  -2   2   0  106.93    5.27
   2  -2   0  102.69    5.01
  -2   2   0   91.15    4.99
   2  -2   0  103.45    5.25
  -2   2   0  115.87    5.88
  -2   2  -1    4.59    0.60
   2  -2   1    5.42    0.76
   2  -2   1    4.15    0.59
  -2  -2  -1    4.56    1.10
  -2   2  -1    4.33    1.27
   2  -2   2   25.14    1.60
  -2  -2  -2   26.60    2.19
  -2  -2  -2   26.53    1.99
  -2  -2  -2   24.75    1.54
  -2   2  -2   24.38    2.26
  -2  -2  -3   39.50    2.93
   2   2   3   41.45    2.37
   2  -2   3   40.06    2.44
  -2  -2  -3   42.66    3.15
  -2   2  -3   40.47    3.16
   2  -2   3   49.60    2.66
  -2  -2  -3   42.30    2.55
   2   2   4   24.28    1.62
  -2   2  -4   29.14    2.42
  -2  -2  -4   25.30    1.92
  -2  -2  -4   24.36    2.49
  -2  -2  -4   24.19    2.26
  -2   2  -4   21.40    2.43
  -2  -2  -5  175.83    9.77
   2   2   5  181.23    9.37
   2  -2   5  188.05    9.47
  -2   2  -5  169.17    9.80
  -2  -2  -5  184.02   10.24
  -2   2  -5  176.01   10.48
  -2   2  -5  185.07    9.68
  -2  -2  -5  181.76    9.80
  -2  -2  -5  166.65   10.41
  -2   2  -5  168.15   10.12
  -2  -2  -5  190.28    9.74
  -2   2  -6   29.33    2.05
  -2   2  -6   32.32    2.20
   2   2   6   27.95    1.83
   2  -2   6   27.44    1.88
  -2  -2  -6   28.33    2.20
  -2  -2  -6   29.28    2.16
  -2  -2  -6   26.71    2.15
   2   2   6   38.32    2.57
  -2  -2  -6   29.42    2.86
  -2  -2  -6   22.71    2.15
  -2  -2  -6   25.48    2.57
  -2   2  -6   23.28    2.51
  -2   2  -6   29.36    2.04
  -2   2  -6   25.87    2.85
  -2  -2  -6   33.43    2.14
   2  -2   6   27.19    2.07
  -2   2  -6   33.19    2.27
   2   2   7   17.07    1.35
   2  -2   7   17.89    1.40
  -2  -2  -7   19.06    1.57
   2   2   7   20.38    2.08
   2  -2   7   20.96    2.22
  -2   2  -7   18.53    1.51
  -2  -2  -7   14.85    1.59
  -2   2  -7   16.99    2.13
  -2  -2  -7   13.61    2.02
  -2  -2  -7   14.95    1.71
  -2  -2  -7   18.46    1.70
  -2  -2  -7   16.47    2.33
   2   2   7   15.74    1.73
  -2   2  -7   17.85    1.50
   2  -2   7   16.29    1.69
   2  -2   7   21.38    1.71
   2   2   8   21.52    1.63
   2  -2   8   22.87    2.42
  -2   2  -8   19.91    1.85
  -2  -2  -8   21.37    1.91
  -2   2  -8   20.12    1.84
  -2  -2  -8   21.98    1.66
   2   2   8   26.85    2.42
  -2  -2  -8   18.72    2.39
  -2  -2  -8   22.19    1.90
   2   2   8   17.47    1.72
   2  -2   8   25.05    1.90
  -2   2  -8   19.89    2.55
   2   2   9    0.79    1.03
  -2  -2  -9   -0.51    0.78
  -2   2  -9    1.34    0.77
   2   2   9    0.84    1.31
   2  -2   9    1.54    1.41
  -2  -2  -9    1.05    1.17
   2  -2   9    0.31    0.61
  -2   2 -10   -0.54    0.70
  -2  -2 -10    0.47    0.64
   2   2  10    0.33    0.98
   2   2  10    1.30    1.10
   2  -2  10    0.54    1.23
  -2  -2 -10    1.20    0.88
  -2  -2 -10    0.93    0.55
  -2   2 -10    0.42    0.60
   2  -2  10    0.45    0.52
  -2   2 -11   11.54    1.06
   2   2  11   11.21    1.46
   2  -2  11   13.47    1.54
  -2   2 -11   10.51    0.88
   2   2  11   15.16    1.41
  -2  -3  12    1.14    0.39
   2   3 -12    1.44    0.45
  -2   3  12    0.47    0.44
  -2   3  11    1.96    0.65
  -2  -3  11    1.39    0.59
  -2  -3  11    2.28    0.58
   2  -3 -11    2.44    0.71
   2   3 -11    2.38    0.64
   2  -3 -11    0.48    0.76
  -2  -3  10   22.14    2.24
  -2  -3  10   24.19    1.87
  -2   3  10   24.18    1.88
  -2  -3  10   23.32    1.81
   2  -3 -10   21.08    2.21
  -2  -3  10   21.05    1.97
   2  -3  -9    2.04    0.45
  -2   3   9    3.45    1.42
  -2  -3   9    4.97    0.85
  -2  -3   9    2.61    1.59
  -2   3   9    3.82    1.19
  -2  -3   9    3.21    0.84
  -2   3   9    2.61    0.85
   2  -3  -9    3.83    1.29
  -2  -3   9    4.26    1.37
   2  -3  -9    3.83    0.94
  -2  -3   9    2.22    0.92
   2  -3  -9    4.32    0.54
   2   3  -9    3.44    0.56
   2  -3  -8   18.59    1.39
   2   3  -8   19.12    1.47
  -2   3   8   19.65    1.61
  -2   3   8   20.84    1.67
  -2  -3   8   27.94    1.47
  -2  -3   8   22.34    1.67
   2  -3  -8   18.83    1.63
  -2  -3   8   14.86    2.43
  -2   3   8   22.99    2.14
  -2  -3   8   23.37    1.81
  -2   3   8   19.95    1.78
   2  -3  -8   15.46    1.78
  -2   3   8   17.75    2.23
   2  -3  -8   18.82    1.36
   2   3  -8   20.63    1.47
   2   3  -7    2.40    0.52
  -2  -3   7    1.90    0.68
  -2   3   7    1.24    1.58
   2  -3  -7    1.86    0.42
   2   3  -7    2.35    0.56
   2  -3  -7    2.72    0.64
  -2   3   7    2.07    0.60
  -2  -3   7    3.01    1.52
  -2   3   7    1.99    0.91
  -2  -3   7    2.22    0.51
  -2   3   7    3.03    0.79
  -2  -3   7    2.00    0.57
   2  -3  -7    1.98    0.79
  -2   3   7    1.92    1.13
  -2  -3   7    2.17    0.74
   2  -3  -7    2.57    0.39
  -2  -3   6   11.97    1.09
  -2   3   6    9.65    1.94
   2  -3  -6   11.76    0.96
   2   3  -6   13.30    1.14
   2  -3  -6   11.35    1.32
  -2  -3   6   14.44    1.04
  -2  -3   6   12.20    1.91
  -2  -3   6   11.71    1.17
  -2   3   6   15.58    1.23
  -2   3   6   10.70    1.42
  -2   3   6   12.58    1.59
  -2  -3   6   13.07    1.27
   2  -3  -6   13.96    0.92
   2   3  -6   13.08    1.08
   2   3  -5   -0.15    0.41
  -2   3   5   -0.28    1.14
  -2   3   5   -0.42    0.81
   2  -3  -5   -0.12    0.30
   2   3  -5   -0.06    0.44
   2  -3  -5    0.14    0.59
  -2  -3   5   -0.61    1.11
  -2   3   5    0.34    0.74
   2  -3  -5   -0.20    0.22
   2   3  -4    3.02    0.63
   2   3  -4    2.06    0.24
  -2   3   4    2.04    1.12
   2  -3  -4    2.91    0.39
  -2  -3   4    2.50    1.10
  -2   3   4    2.75    0.83
  -2   3   4    2.69    0.84
   2  -3  -4    2.44    0.65
   2  -3  -4    3.20    0.32
   2   3  -3   16.57    1.14
   2  -3  -3   13.53    0.92
  -2   3   3   14.53    1.31
   2   3  -3   12.49    1.01
  -2   3   3   18.20    1.70
   2  -3  -3   14.00    0.83
   2  -3  -3   14.46    1.18
  -2   3   2   64.35    3.28
  -2   3   2   58.87    3.42
   2  -3  -2   54.63    3.28
   2  -3  -2   55.80    2.98
   2  -3  -1   99.94    4.59
  -2  -3   1  103.38    5.00
   2  -3  -1   97.32    4.89
  -2   3   1   98.73    5.29
   2  -3  -1   85.85    4.49
   2  -3   0   19.96    1.06
   2  -3   0   20.32    1.48
  -2   3   0   17.76    1.73
   2   3   1  211.28   11.02
   2  -3   1  210.93   11.14
   2  -3   1  222.68   11.35
  -2  -3  -1  223.48   11.57
  -2   3  -1  221.56   11.79
   2   3   2  223.01   11.02
   2  -3   2  220.89   11.16
  -2  -3  -2  210.59   11.07
  -2  -3  -2  223.57   11.73
  -2  -3  -2  200.34   11.43
  -2   3  -2  198.82   11.82
   2   3   3  746.53   37.46
   2  -3   3  754.59   37.60
  -2  -3  -3  742.08   37.68
   2  -3   3  733.09   37.72
  -2  -3  -3  748.15   38.31
  -2   3  -3  703.51   38.38
   2   3   4    4.01    0.47
   2  -3   4    3.87    0.57
  -2  -3  -4    4.06    1.33
   2  -3   4    3.69    0.86
  -2  -3  -4    2.87    1.11
  -2  -3  -4    4.67    0.78
  -2   3  -4    3.37    1.28
   2  -3   5    0.87    0.66
  -2  -3  -5    1.18    0.74
   2  -3   5    0.47    0.44
  -2   3  -5    1.26    0.63
   2   3   5    0.55    0.32
  -2  -3  -5    0.89    0.64
  -2   3  -5    1.39    0.65
  -2  -3  -5    0.28    0.63
  -2  -3  -5    0.90    0.57
   2  -3   5    0.43    0.85
  -2  -3  -5    0.38    0.90
  -2  -3  -5    0.77    1.27
  -2  -3  -5    1.25    0.65
   2   3   5    0.58    0.80
  -2   3  -5    0.32    1.25
   2  -3   6    0.16    0.63
   2   3   6    0.41    0.36
   2  -3   6    0.20    0.45
  -2   3  -6    0.08    0.73
  -2  -3  -6    0.57    0.71
  -2   3  -6    0.43    0.55
  -2  -3  -6   -0.49    0.78
  -2  -3  -6    0.29    0.60
  -2   3  -6   -0.25    0.60
  -2  -3  -6    1.17    1.12
  -2  -3  -6    0.83    0.65
  -2  -3  -6    0.54    1.24
  -2   3  -6   -0.18    1.31
   2  -3   7    0.09    0.70
  -2  -3  -7    0.11    0.76
   2   3   7    0.15    0.39
   2  -3   7   -0.40    0.50
  -2  -3  -7    0.71    0.44
  -2  -3  -7   -0.27    0.74
  -2   3  -7    0.25    0.51
   2   3   7    0.94    1.07
   2   3   7   -0.33    0.70
  -2  -3  -7    0.30    0.64
  -2   3  -7    0.06    0.50
  -2  -3  -7   -0.32    1.18
  -2  -3  -7    0.36    0.71
  -2  -3  -7    2.36    1.56
  -2   3  -7    0.17    0.61
  -2   3  -7    1.57    1.40
   2  -3   8    0.18    0.68
   2   3   8    0.66    1.18
  -2   3  -8   -0.18    0.72
   2  -3   8    0.26    0.52
  -2   3  -8    0.26    0.71
  -2  -3  -8    0.73    0.78
   2  -3   8   -1.21    1.62
  -2  -3  -8    0.74    0.59
   2  -3   8   -0.37    0.96
  -2  -3  -8    1.14    1.25
  -2  -3  -8    0.35    0.73
  -2  -3  -8   -0.60    1.37
   2   3   8    0.35    0.54
  -2   3  -8    1.17    1.37
   2  -3   9    2.59    0.81
  -2   3  -9    3.60    0.87
  -2  -3  -9    3.64    0.89
   2   3   9    4.01    1.17
   2   3   9    4.22    1.40
   2  -3   9    2.87    1.41
  -2  -3  -9    4.28    1.30
   2   3  10    0.11    0.90
  -2   3 -10    0.13    0.59
   2   3  10   -0.37    1.08
   2  -3  10   -0.13    1.18
  -2  -3 -10   -0.23    0.80
  -2  -3 -10    0.50    0.51
  -2   3 -10   -0.58    0.65
   2  -3  10   -0.60    0.60
  -2   3 -11    0.21    0.40
   2   3  11    0.21    0.70
   2  -3  11    1.28    0.67
   2   3  11   -0.09    0.86
  -2   3 -11   -0.03    0.33
  -2   4  12    1.71    0.45
   2   4 -12    3.36    0.52
  -2  -4  11    1.08    0.53
   2   4 -11    0.84    0.54
  -2   4  11    1.79    0.60
   2  -4 -11    1.09    0.84
  -2  -4  10    1.22    0.64
  -2   4  10    0.35    0.95
  -2   4  10    1.13    0.66
  -2  -4  10    1.99    1.29
   2  -4 -10    0.13    0.95
  -2  -4  10    1.31    0.66
  -2  -4  10    0.98    0.79
  -2   4   9    5.65    1.48
   2  -4  -9    5.63    0.65
   2   4  -9    4.78    0.64
  -2   4   9    6.44    0.83
  -2   4   9    3.84    1.19
  -2  -4   9    5.26    0.84
  -2  -4   9    4.99    1.84
   2  -4  -9    3.66    1.00
  -2  -4   9    5.70    0.98
  -2   4   9    5.75    0.95
   2  -4  -9    6.24    0.64
   2   4  -9    5.55    0.69
  -2   4   8    6.66    1.65
   2  -4  -8    8.24    0.79
   2   4  -8    9.00    0.91
   2  -4  -8    9.80    1.06
  -2  -4   8    3.95    1.61
  -2  -4   8    9.19    1.09
  -2   4   8    9.22    1.53
  -2  -4   8   10.56    0.82
  -2  -4   8    8.32    1.03
   2  -4  -8    6.51    1.22
   2  -4  -8    8.15    0.75
   2   4  -8    9.05    0.88
  -2  -4   8    8.92    1.22
   2  -4  -7   46.31    2.77
   2   4  -7   47.53    2.95
  -2   4   7   45.13    3.58
   2  -4  -7   42.01    3.27
  -2  -4   7   40.39    3.86
   2  -4  -7   50.66    3.04
  -2  -4   7   56.61    2.85
  -2   4   7   50.96    3.53
  -2  -4   7   48.30    3.10
  -2  -4   7   46.67    3.64
   2  -4  -7   48.13    3.46
  -2  -4   7   53.91    3.07
  -2  -4   7   51.30    3.21
  -2   4   7   49.67    3.09
   2  -4  -7   45.49    2.73
   2   4  -7   47.56    2.90
   2   4  -6    0.68    0.42
  -2  -4   6    0.32    1.15
  -2   4   6    0.71    1.26
   2  -4  -6    0.98    0.36
   2   4  -6    0.06    0.45
  -2  -4   6    0.12    0.41
  -2   4   6    0.76    0.88
   2  -4  -6    0.47    0.65
  -2  -4   6    0.76    0.44
  -2   4   6    1.54    0.57
   2  -4  -6    0.90    0.86
  -2   4   6    1.72    0.96
  -2   4   6    1.22    0.57
  -2  -4   6    0.95    1.11
  -2   4   6    1.41    0.89
   2  -4  -6    0.79    0.46
  -2  -4   6    0.69    0.58
   2  -4  -6    0.74    0.25
  -2  -4   5   58.47    3.75
   2  -4  -5   52.41    3.46
   2  -4  -5   57.13    3.04
  -2   4   5   59.06    3.59
  -2  -4   5   50.35    3.91
  -2   4   5   48.09    3.49
   2  -4  -5   54.23    2.95
  -2   4   5   48.77    3.96
   2   4  -5   59.21    3.31
   2  -4  -4   18.45    1.62
   2   4  -4   18.88    1.21
  -2   4   4   23.07    1.71
   2  -4  -4   21.57    1.27
  -2  -4   4   17.21    2.00
  -2  -4   4   25.31    1.96
  -2   4   4   20.67    1.74
  -2   4   4   18.54    2.07
   2  -4  -4   21.31    1.19
   2   4  -4   21.82    1.60
   2   4  -3  145.03    7.28
  -2   4   3  136.80    7.43
  -2  -4   3  156.41    7.61
  -2  -4   3  120.74    7.00
   2   4  -3  138.17    7.05
   2  -4  -3  128.48    7.34
  -2   4   3  166.73    7.98
   2  -4  -3  137.00    6.90
   2   4  -2   -0.07    0.64
   2  -4  -2    0.33    0.18
   2  -4  -2   -0.11    0.54
  -2   4   2    0.72    0.60
  -2   4   2    0.38    0.59
   2   4  -2    0.52    0.42
   2  -4  -2    0.35    0.09
   2  -4  -1  291.03   14.28
  -2   4   1  267.21   14.65
  -2  -4   1  278.12   14.63
   2  -4  -1  269.94   14.67
  -2   4   1  271.42   14.99
  -2   4   0  473.98   26.36
   2  -4   0  524.67   25.98
   2  -4   0  495.90   26.47
  -2  -4   0  515.14   26.55
  -2   4   0  509.18   26.72
   2   4   1   68.70    3.57
   2  -4   1   70.44    3.77
   2  -4   1   77.13    4.15
  -2  -4  -1   62.79    3.50
  -2  -4  -1   71.70    4.21
  -2   4  -1   78.55    4.35
   2   4   2   16.46    1.00
   2  -4   2   16.65    1.20
  -2  -4  -2   16.62    1.15
  -2  -4  -2   17.82    1.82
  -2  -4  -2   14.17    1.46
  -2   4  -2   16.86    1.96
   2  -4   2   19.12    1.69
  -2  -4  -3    1.84    0.53
   2  -4   3    1.45    0.47
   2   4   3    1.59    0.40
   2   4   3    1.41    0.28
   2  -4   3    0.97    0.60
  -2  -4  -3    1.15    0.78
  -2  -4  -3    1.59    1.15
   2   4   3    0.19    0.77
  -2   4  -3    1.47    1.28
   2   4   4   27.08    1.59
   2  -4   4   28.17    1.77
  -2  -4  -4   26.04    1.95
   2  -4   4   28.88    2.08
  -2  -4  -4   24.55    2.53
  -2   4  -4   25.95    2.63
   2   4   4   27.38    2.29
   2   4   5   26.70    1.57
   2  -4   5   26.62    1.72
  -2   4  -5   24.81    1.87
  -2   4  -5   25.12    1.78
  -2  -4  -5   24.67    1.92
  -2  -4  -5   25.54    1.98
  -2  -4  -5   27.32    1.93
   2  -4   5   23.69    2.08
  -2   4  -5   23.05    1.78
  -2  -4  -5   24.61    2.60
  -2  -4  -5   21.74    2.31
  -2   4  -5   27.48    2.78
  -2  -4  -5   24.75    1.93
  -2  -4  -5   24.89    1.90
   2   4   5   23.07    2.16
   2  -4   5   24.97    1.95
  -2  -4  -6   62.19    4.06
   2   4   6   60.31    3.54
   2  -4   6   68.49    3.70
  -2  -4  -6   61.39    3.64
  -2   4  -6   67.60    3.78
   2  -4   6   60.44    4.21
  -2   4  -6   65.65    3.76
  -2  -4  -6   59.80    4.73
  -2  -4  -6   60.03    3.93
  -2  -4  -6   58.36    4.39
  -2  -4  -6   65.69    3.97
   2   4   6   60.11    4.20
   2  -4   6   71.26    4.05
   2  -4   7    0.37    0.73
  -2   4  -7   -0.09    0.73
   2   4   7    1.06    1.14
  -2   4  -7   -0.09    0.78
   2  -4   7    0.65    0.51
  -2  -4  -7    0.92    0.49
  -2   4  -7    0.28    0.46
  -2  -4  -7    0.36    0.74
  -2  -4  -7    0.46    0.67
  -2   4  -7    0.52    0.49
   2  -4   7   -0.42    1.23
  -2  -4  -7    0.48    1.20
  -2  -4  -7    0.27    0.78
  -2  -4  -7    0.40    1.35
  -2  -4  -7    0.66    0.80
   2   4   7    0.55    0.71
  -2   4  -7    0.98    1.33
   2  -4   8    0.18    0.69
   2  -4   8   -0.39    0.51
  -2   4  -8    0.09    0.67
   2   4   8   -0.13    1.11
  -2  -4  -8    0.81    0.76
   2   4   8   -0.40    1.04
  -2  -4  -8    0.67    0.71
  -2  -4  -8    0.64    1.21
   2  -4   8    0.13    0.94
  -2  -4  -8   -0.09    0.74
  -2  -4  -8    0.20    1.25
   2   4   8   -0.09    0.53
   2  -4   9    7.66    1.07
  -2   4  -9    6.41    0.92
  -2   4  -9    7.05    1.05
   2   4   9    6.64    1.37
   2   4   9    5.32    1.41
  -2  -4  -9    6.80    1.40
   2   4  10    3.83    1.06
  -2   4 -10    2.94    0.71
   2   4  10    4.63    1.20
  -2  -4 -10    3.04    1.00
  -2   4 -10    2.85    0.68
   2  -4  10    2.49    0.69
   2  -4  11    0.91    0.61
  -2   4 -11    0.59    0.42
   2   4  11    0.45    0.71
  -2   4 -11    1.05    0.31
  -2  -5  11   24.18    1.69
   2  -5 -11   23.68    2.06
  -2   5  10   20.82    2.16
  -2  -5  10   24.46    1.80
   2  -5  -9   27.23    1.83
   2   5  -9   27.91    1.84
  -2   5   9   31.54    2.08
  -2   5   9   25.05    2.71
  -2  -5   9   30.60    2.09
   2  -5  -9   29.49    2.13
  -2  -5   9   29.14    2.75
   2  -5  -9   30.77    2.72
  -2  -5   9   28.03    2.26
   2   5  -9   27.94    1.87
  -2  -5   8   66.58    5.97
  -2  -5   8   91.14    5.14
   2  -5  -8   87.30    4.86
  -2   5   8   81.78    5.81
   2  -5  -8   74.15    5.38
   2  -5  -8   97.14    5.19
  -2   5   8   90.80    5.81
  -2   5   8   84.84    5.17
  -2  -5   8   92.29    5.87
   2  -5  -8   95.85    5.80
  -2  -5   8  103.79    4.82
  -2  -5   8   84.22    5.28
   2  -5  -8   84.27    4.81
   2   5  -8   88.05    4.95
  -2  -5   7    8.43    0.78
  -2   5   7    5.63    1.78
  -2  -5   7    8.12    0.93
   2  -5  -7    8.17    0.76
   2   5  -7    6.86    0.87
  -2   5   7    6.64    1.39
   2  -5  -7    7.39    0.90
  -2  -5   7    5.41    1.71
  -2  -5   7    7.59    0.99
  -2   5   7    7.58    0.99
  -2  -5   7    6.02    1.53
   2  -5  -7    7.55    1.35
   2  -5  -7    8.47    1.26
  -2   5   7    6.90    1.25
   2  -5  -7    6.45    1.18
   2  -5  -7    6.38    0.64
   2   5  -7    7.93    0.84
  -2  -5   7    7.84    1.06
   2  -5  -6  142.63    7.45
   2  -5  -6  126.62    7.98
  -2   5   6  145.47    8.16
   2   5  -6  135.71    7.73
  -2  -5   6  121.53    8.47
  -2  -5   6  141.52    7.68
  -2  -5   6  139.38    7.51
  -2   5   6  144.79    7.73
  -2  -5   6  153.34    7.80
   2  -5  -6  148.79    7.67
  -2   5   6  153.78    8.45
  -2  -5   6  142.73    7.71
  -2  -5   6  147.11    8.34
   2  -5  -6  158.29    8.23
  -2   5   6  131.68    8.06
  -2  -5   6  138.88    7.76
   2  -5  -6  143.08    7.39
   2   5  -6  147.18    7.69
  -2   5   6  124.72    8.59
   2   5  -5    5.71    0.82
  -2   5   5    4.85    1.46
   2  -5  -5    6.62    0.59
  -2  -5   5    8.06    0.74
  -2   5   5    6.23    1.01
  -2  -5   5    5.97    1.32
  -2  -5   5    5.46    1.44
  -2  -5   5    5.27    0.73
  -2  -5   5    5.90    0.72
  -2   5   5    4.72    1.01
   2  -5  -5    5.74    0.95
   2  -5  -5    5.59    0.49
   2   5  -4    7.16    0.95
  -2   5   4    5.77    1.41
   2   5  -4    7.14    0.59
  -2   5   4    7.50    1.07
  -2   5   4    8.44    1.06
  -2  -5   4    7.56    1.27
  -2  -5   4    5.61    0.73
   2  -5  -4    6.12    0.99
   2  -5  -4    6.71    0.49
   2   5  -3   16.11    1.21
  -2  -5   3   16.54    1.56
  -2  -5   3   13.53    1.01
  -2   5   3   12.57    1.28
  -2  -5   3   16.80    1.45
   2   5  -3   14.78    0.93
   2  -5  -3   12.20    1.30
  -2   5   3   17.10    1.82
   2  -5  -3   14.36    0.82
   2   5  -2   32.75    2.32
   2  -5  -2   33.09    1.74
  -2   5   2   25.30    2.18
   2  -5  -2   31.42    2.20
  -2  -5   2   35.31    2.39
   2   5  -2   31.39    2.00
  -2   5   2   29.57    2.11
   2   5  -1    1.14    0.89
   2  -5  -1    2.02    0.23
   2  -5  -1    0.95    0.70
  -2   5   1    1.99    0.67
   2  -5  -1    1.99    0.68
  -2  -5   1    2.21    0.64
  -2   5   1    1.09    0.97
   2   5  -1    2.71    0.65
   2  -5   0    4.48    0.30
  -2   5   0    3.97    0.72
  -2   5   0    3.71    0.61
  -2  -5   0    3.80    0.97
  -2   5   0    4.91    1.17
   2   5   0    4.57    0.88
   2  -5   0    5.80    1.02
  -2   5  -1   24.45    1.73
  -2  -5  -1   22.27    1.37
   2   5   1   22.19    1.29
   2  -5   1   25.73    1.60
   2  -5   1   26.75    2.06
  -2  -5  -1   22.79    1.81
  -2   5  -1   27.27    2.16
   2   5   1   22.99    1.91
   2   5   2  126.29    6.79
   2  -5   2  142.12    7.08
  -2  -5  -2  136.58    7.03
  -2  -5  -2  141.81    7.69
  -2  -5  -2  140.03    7.36
   2   5   2  135.41    7.59
  -2   5  -2  140.49    7.32
   2   5   3  132.61    6.93
   2  -5   3  145.89    7.19
  -2  -5  -3  139.56    7.29
   2  -5   3  124.94    7.33
  -2  -5  -3  143.23    7.99
  -2  -5  -3  130.04    7.60
  -2  -5  -3  140.89    7.78
   2   5   3  137.97    7.79
   2   5   4   41.11    2.40
   2  -5   4   46.61    2.65
  -2  -5  -4   52.86    2.93
  -2  -5  -4   46.42    2.87
  -2  -5  -4   51.03    2.89
  -2   5  -4   39.40    3.40
   2  -5   4   42.19    2.92
  -2  -5  -4   46.91    3.52
  -2  -5  -4   43.79    3.18
  -2  -5  -4   42.58    2.84
   2   5   4   39.13    3.13
  -2   5  -5   25.26    1.91
   2  -5   5   26.00    1.71
  -2  -5  -5   22.96    1.69
  -2   5  -5   30.21    1.84
  -2  -5  -5   23.09    1.94
  -2  -5  -5   27.96    1.97
   2  -5   5   22.06    2.11
  -2  -5  -5   25.35    2.59
  -2  -5  -5   24.27    1.96
  -2  -5  -5   22.92    1.91
   2   5   5   27.91    2.34
  -2   5  -6    1.13    0.59
   2  -5   6    0.68    0.50
   2   5   6   -0.11    0.89
  -2  -5  -6    0.85    0.68
  -2  -5  -6    0.66    0.48
  -2   5  -6    0.94    0.46
   2  -5   6    1.33    1.04
  -2   5  -6    0.56    0.48
  -2  -5  -6    0.73    1.15
  -2  -5  -6    1.20    0.68
  -2  -5  -6   -0.56    1.34
   2   5   6    0.58    0.84
  -2  -5  -6    0.50    0.69
   2   5   7  104.72    7.36
  -2  -5  -7  115.32    6.91
   2  -5   7  124.27    6.67
  -2  -5  -7  117.35    6.59
  -2  -5  -7  112.55    7.77
  -2   5  -7  124.43    6.91
  -2   5  -7  128.23    6.94
   2   5   7  147.70    7.46
  -2  -5  -7  133.10    6.88
   2   5   7  150.37    7.47
   2  -5   7  118.44    7.37
  -2  -5  -7  103.07    6.95
  -2  -5  -7  115.49    7.49
  -2  -5  -7  119.09    6.90
   2   5   7  113.00    7.01
  -2   5  -8   37.78    2.70
   2  -5   8   42.98    2.60
  -2   5  -8   40.51    2.76
   2   5   8   41.57    3.18
   2  -5   8   41.06    3.29
  -2  -5  -8   41.54    3.68
  -2  -5  -8   29.25    3.09
   2  -5   8   35.18    3.01
  -2  -5  -8   39.75    2.77
   2  -5   9    2.51    0.78
  -2   5  -9    1.82    0.75
  -2   5  -9    1.46    0.61
   2   5   9    1.11    1.13
   2  -5   9    4.05    1.36
  -2  -5  -9    1.87    1.07
  -2   5 -10   -0.06    0.52
   2   5  10    0.09    0.86
   2   5  10    0.64    0.93
   2  -5  10    1.44    0.99
  -2  -5 -10    0.30    0.79
   2  -5  10    0.71    0.57
  -2  -6  11    2.28    0.54
  -2   6  11    1.15    0.46
   2  -6 -11    2.72    0.89
  -2  -6  10   45.93    2.79
  -2   6  10   43.84    2.70
  -2  -6  10   48.34    3.32
   2  -6 -10   42.58    3.22
  -2  -6  10   35.17    2.74
  -2  -6   9   46.04    2.80
   2  -6  -9   46.13    2.84
  -2  -6   9   41.27    2.72
  -2   6   9   41.33    2.79
  -2  -6   9   39.58    3.36
   2  -6  -9   45.43    3.41
  -2  -6   9   39.17    2.88
  -2  -6   8  322.04   16.27
   2  -6  -8  289.68   15.16
  -2   6   8  298.47   16.21
  -2  -6   8  300.90   15.45
  -2   6   8  315.37   16.17
   2  -6  -8  256.34   15.79
   2  -6  -8  310.18   15.47
  -2   6   8  311.04   16.26
  -2   6   8  312.94   15.47
  -2  -6   8  288.98   15.39
   2  -6  -8  297.92   16.05
  -2  -6   8  297.30   15.59
   2  -6  -8  276.32   15.10
   2   6  -8  292.27   15.25
   2  -6  -7  235.99   12.28
   2   6  -7  243.95   12.52
  -2   6   7  241.88   13.17
   2  -6  -7  208.38   12.91
  -2  -6   7  242.29   12.57
   2  -6  -7  254.99   13.05
  -2   6   7  261.26   13.47
  -2  -6   7  230.02   12.51
  -2   6   7  235.65   12.54
  -2  -6   7  238.57   13.25
   2  -6  -7  247.50   12.55
   2  -6  -7  257.14   13.16
  -2  -6   7  249.29   12.29
  -2   6   7  253.11   13.25
  -2   6   7  224.76   12.94
  -2  -6   7  222.41   12.59
   2  -6  -7  222.45   12.20
   2   6  -7  238.08   12.45
  -2  -6   6  185.47   10.28
   2  -6  -6  167.51    9.99
   2  -6  -6  180.33    9.35
  -2   6   6  193.38   10.12
   2   6  -6  175.80    9.67
  -2  -6   6  170.65    9.60
   2  -6  -6  183.48    9.57
  -2   6   6  198.28   10.28
  -2   6   6  197.48   10.49
  -2  -6   6  169.96    9.55
  -2   6   6  173.41    9.56
   2  -6  -6  212.49   10.23
  -2  -6   6  181.54    9.69
  -2  -6   6  182.43    9.61
  -2   6   6  174.76   10.02
  -2  -6   6  174.52    9.40
  -2  -6   6  180.91    9.65
   2  -6  -6  173.44    9.27
  -2   6   6  178.39   10.68
   2   6  -6  192.56    9.66
   2  -6  -5   88.85    5.63
   2  -6  -5   95.34    5.03
  -2   6   5  107.06    5.70
  -2  -6   5  111.26    5.22
  -2  -6   5   90.60    5.14
  -2  -6   5  103.31    5.91
  -2  -6   5   80.04    5.31
  -2  -6   5   88.05    5.20
  -2  -6   5   98.69    5.35
  -2  -6   5   89.86    5.25
  -2   6   5   91.66    5.62
  -2   6   5   96.18    5.85
   2  -6  -5   93.68    4.95
  -2   6   5   98.38    6.19
   2   6  -5  100.70    5.47
   2   6  -4   35.38    2.16
  -2  -6   4   34.40    2.31
  -2  -6   4   41.89    2.89
  -2   6   4   37.46    2.66
  -2  -6   4   37.91    2.59
   2  -6  -4   37.48    2.01
  -2   6   4   45.74    3.26
   2  -6  -4   33.86    2.64
   2   6  -4   38.16    2.54
   2   6  -3  220.25   10.60
   2  -6  -3  209.50   10.22
  -2   6   3  161.25   10.81
  -2  -6   3  185.42   10.34
  -2   6   3  201.49   10.70
  -2  -6   3  207.47   10.86
   2  -6  -3  179.60   10.72
   2   6  -3  197.25   10.19
   2   6  -2   30.66    2.17
   2  -6  -2   28.89    1.55
  -2   6   2   23.44    2.03
  -2  -6   2   25.38    2.16
  -2   6   2   23.86    1.88
   2  -6  -2   26.00    2.01
   2   6  -2   29.44    1.77
   2   6  -1  287.75   15.20
   2  -6  -1  297.95   14.34
  -2   6   1  264.47   14.81
  -2  -6   1  268.42   14.68
   2  -6  -1  280.86   14.93
  -2   6   1  257.25   15.19
   2   6  -1  271.49   14.74
   2   6   0    4.04    1.17
   2   6   0    2.99    0.29
  -2   6   0    4.02    0.81
  -2  -6   0    3.86    0.83
  -2   6   0    3.60    0.60
  -2  -6   0    5.11    0.99
  -2   6   0    5.14    1.23
  -2   6  -1   72.70    4.04
  -2  -6  -1   61.26    3.60
   2  -6   1   66.67    3.75
  -2  -6  -1   64.54    4.17
  -2  -6  -1   66.64    4.09
  -2   6  -1   67.55    3.73
   2   6   1   69.22    4.13
  -2  -6  -2   10.40    0.99
   2  -6   2   15.21    1.08
  -2  -6  -2   12.11    1.23
  -2   6  -2   16.49    1.87
  -2  -6  -2   13.21    1.68
   2   6   2   14.34    1.46
  -2   6  -2   13.65    1.32
   2  -6   3   40.50    2.28
  -2  -6  -3   33.79    2.34
  -2  -6  -3   34.96    2.99
  -2  -6  -3   34.77    2.60
  -2  -6  -3   35.96    2.76
   2   6   3   38.33    2.78
   2  -6   4   22.44    1.47
  -2  -6  -4   19.78    1.62
  -2   6  -4   18.12    1.53
  -2   6  -4   18.17    2.26
  -2  -6  -4   22.23    1.67
   2  -6   4   18.92    1.74
  -2  -6  -4   17.20    2.18
  -2  -6  -4   18.15    1.88
  -2  -6  -4   18.24    1.63
   2   6   4   24.60    2.04
   2  -6   5    1.95    0.74
  -2  -6  -5    1.93    0.75
  -2  -6  -5    1.78    0.56
   2  -6   5    1.69    0.53
   2   6   5    2.44    0.84
  -2   6  -5    1.92    0.54
  -2   6  -5    2.14    0.67
  -2  -6  -5    2.45    0.72
  -2   6  -5    2.32    0.68
   2  -6   5    1.67    0.96
  -2  -6  -5    0.26    1.04
  -2  -6  -5    3.23    1.43
  -2  -6  -5    2.36    0.75
   2   6   5    1.26    0.91
   2  -6   6    0.66    0.71
   2   6   6    0.99    1.04
  -2   6  -6    1.97    0.68
   2  -6   6    1.34    0.52
  -2  -6  -6    1.29    0.54
   2   6   6    2.39    1.05
   2  -6   6    0.98    1.05
  -2  -6  -6    1.22    0.74
  -2  -6  -6    0.70    0.65
  -2   6  -6    0.74    0.55
   2  -6   6    2.10    1.10
  -2  -6  -6    2.37    0.77
  -2  -6  -6    0.19    1.36
   2   6   6    0.67    0.75
   2   6   7   95.14    6.81
  -2   6  -7  118.40    6.48
   2  -6   7  114.34    6.20
  -2  -6  -7  108.66    6.15
   2   6   7  138.59    6.99
   2   6   7  147.93    7.07
  -2  -6  -7   95.38    6.47
   2  -6   7  107.44    6.84
  -2  -6  -7  105.62    7.30
  -2  -6  -7  102.82    6.40
   2   6   7   99.63    6.45
   2  -6   7  123.90    6.59
  -2   6  -7  119.74    6.48
  -2   6  -8    3.08    0.83
  -2   6  -8    4.65    0.93
   2   6   8    5.39    1.22
   2   6   8    3.51    1.25
   2  -6   8    4.25    1.36
  -2  -6  -8    4.05    1.36
   2  -6   8    4.42    1.19
  -2  -6  -8    2.73    0.86
  -2   6  -9    1.14    0.57
  -2   6  -9    2.44    0.75
   2   6   9    1.85    1.08
   2  -6   9    1.32    1.08
  -2  -6  -9    2.44    1.03
  -2   6 -10    1.02    0.54
   2   6  10    1.07    0.86
   2  -6  10    0.08    0.83
  -2  -6 -10    0.61    0.78
   2  -6  10    2.24    0.64
  -2  -7  11    2.65    0.51
   2  -7 -11    3.10    0.57
  -2   7  11    2.51    0.40
  -2   7  10   11.60    1.53
  -2  -7  10   10.38    1.07
  -2   7  10    9.36    0.92
  -2  -7  10    7.73    1.45
   2  -7 -10   12.15    1.53
   2  -7 -10   11.65    1.09
   2  -7  -9    0.83    0.62
  -2   7   9    2.34    1.12
  -2   7   9    1.56    0.61
  -2  -7   9    1.83    0.60
  -2  -7   9    0.95    1.20
   2  -7  -9    2.17    1.07
  -2  -7   9    1.07    0.67
   2  -7  -8   23.95    1.62
   2   7  -8   23.25    1.69
  -2   7   8   24.29    2.49
  -2  -7   8   25.22    1.87
   2  -7  -8   21.86    2.19
   2  -7  -8   24.42    1.86
  -2   7   8   22.92    2.43
  -2   7   8   26.07    2.61
  -2   7   8   22.43    1.76
  -2  -7   8   25.59    2.58
   2  -7  -8   25.89    2.37
  -2  -7   8   24.40    1.76
  -2  -7   8   21.81    1.89
   2   7  -8   25.83    1.72
   2  -7  -7  141.43    7.88
  -2   7   7  165.04    8.88
   2  -7  -7  130.79    8.55
  -2  -7   7  151.48    7.86
   2   7  -7  149.58    8.12
   2  -7  -7  152.64    8.14
  -2   7   7  164.61    8.97
   2  -7  -7  155.18    8.70
  -2   7   7  165.29    9.14
  -2   7   7  140.61    8.06
  -2  -7   7  166.14    8.98
  -2  -7   7  155.20    8.19
   2  -7  -7  156.74    8.73
  -2  -7   7  145.61    8.05
  -2   7   7  137.99    8.55
  -2  -7   7  143.22    8.18
   2   7  -7  156.33    8.09
   2   7  -6    1.99    0.59
   2  -7  -6    1.73    0.94
   2  -7  -6    2.37    0.44
   2   7  -6    1.29    0.60
  -2   7   6    3.00    1.11
  -2   7   6    3.12    1.02
   2   7  -6    1.86    0.61
  -2   7   6    3.63    1.29
  -2   7   6    2.23    0.57
   2  -7  -6    1.84    0.59
  -2  -7   6    1.11    0.49
  -2  -7   6    2.75    1.25
   2  -7  -6    2.44    1.02
  -2  -7   6    1.52    0.59
  -2  -7   6    2.00    0.56
  -2  -7   6    2.66    0.61
  -2   7   6    2.39    1.08
  -2  -7   6    2.34    0.61
   2  -7  -5  355.53   21.02
  -2   7   5  433.30   21.02
  -2  -7   5  462.95   20.53
  -2  -7   5  354.13   20.44
   2  -7  -5  410.15   20.57
  -2   7   5  419.49   21.30
  -2  -7   5  416.91   21.27
  -2   7   5  411.75   21.48
  -2  -7   5  409.02   20.69
  -2  -7   5  398.72   20.62
  -2   7   5  360.77   20.94
  -2   7   5  410.53   21.60
  -2  -7   5  377.38   20.49
   2   7  -5  410.39   20.80
   2   7  -4   -0.08    0.60
  -2   7   4    1.15    1.12
   2   7  -4    0.28    0.29
   2  -7  -4   -0.08    0.25
  -2   7   4    0.36    0.87
  -2  -7   4    0.44    0.44
  -2  -7   4    1.10    0.98
  -2  -7   4    0.12    0.43
  -2   7   4   -0.09    0.74
  -2  -7   4    0.05    0.39
  -2  -7   4   -0.56    0.75
  -2  -7   4   -0.18    0.51
  -2  -7   4    0.33    0.43
   2   7  -3   18.40    1.50
   2  -7  -3   20.54    1.23
  -2   7   3   14.90    1.80
  -2   7   3   21.16    1.71
  -2  -7   3   20.16    1.91
   2   7  -2    7.42    1.04
   2  -7  -2    8.33    0.59
  -2   7   2    5.53    1.10
  -2   7   2    6.85    0.94
   2  -7  -2    7.99    1.11
  -2  -7   2    7.22    1.32
   2   7  -2    8.78    0.77
   2   7  -1  216.68   11.43
   2  -7  -1  218.28   10.54
  -2   7   1  192.81   11.09
  -2  -7   1  224.85   11.49
  -2  -7   1  188.02   10.85
  -2   7   1  197.08   10.88
   2  -7  -1  200.69   11.20
  -2   7   1  187.62   11.53
   2   7  -1  210.11   10.91
   2   7   0   45.74    3.06
  -2   7   0   39.90    2.70
   2  -7   0   38.97    2.33
  -2  -7   0   39.31    2.66
  -2  -7   0   38.28    2.64
  -2   7   0   42.07    2.41
  -2  -7   0   43.52    2.98
  -2   7   0   41.38    3.13
  -2  -7   0   32.08    2.16
  -2   7  -1  438.85   22.22
   2   7   1  449.41   22.77
  -2  -7  -1  390.71   21.77
   2  -7   1  440.98   21.85
  -2  -7  -1  425.29   22.35
  -2  -7  -1  425.25   22.28
  -2   7  -1  419.30   21.86
   2  -7   1  478.09   22.48
  -2   7  -1  454.25   22.74
   2   7   1  437.23   22.22
   2   7   2    1.36    0.88
  -2   7  -2    0.85    0.68
  -2  -7  -2    1.70    0.49
   2  -7   2    2.51    0.48
  -2   7  -2    1.47    0.42
   2  -7   2    1.37    0.95
  -2   7  -2    2.23    1.19
   2   7   2    1.37    0.74
   2   7   3   36.66    3.09
  -2  -7  -3   31.07    2.26
   2  -7   3   35.08    2.16
  -2  -7  -3   38.70    2.40
  -2  -7  -3   38.43    3.01
  -2  -7  -3   33.31    2.48
  -2   7  -3   28.53    2.93
  -2  -7  -3   37.10    2.77
   2  -7   3   42.53    2.92
  -2  -7  -3   31.54    2.33
   2   7   3   33.52    2.61
  -2   7  -3   35.17    2.56
   2   7   4    9.43    1.61
   2  -7   4    7.68    0.80
  -2   7  -4    7.87    0.85
  -2  -7  -4    6.20    0.85
  -2   7  -4    8.00    0.97
  -2   7  -4    5.45    1.58
  -2   7  -4    8.31    1.08
   2  -7   4    7.25    1.14
  -2  -7  -4    8.75    1.03
  -2  -7  -4    7.09    1.00
  -2  -7  -4    7.07    1.19
  -2  -7  -4    6.48    1.38
   2  -7   4   10.61    1.53
  -2  -7  -4    6.90    1.59
  -2  -7  -4    7.41    1.05
   2   7   4    7.57    1.16
   2  -7   5    6.01    1.05
   2   7   5    6.24    1.45
   2  -7   5    5.92    0.75
   2   7   5    6.02    1.13
  -2   7  -5    5.71    0.93
  -2  -7  -5    5.53    0.80
   2  -7   5    3.76    1.08
  -2  -7  -5    4.39    0.90
  -2   7  -5    6.82    1.00
  -2  -7  -5    4.51    1.18
   2  -7   5    7.82    1.49
  -2  -7  -5    4.43    1.54
  -2  -7  -5    5.51    0.99
  -2  -7  -5    4.32    0.88
   2   7   5    6.19    1.11
   2  -7   6    3.62    0.97
   2   7   6    3.21    1.15
  -2  -7  -6    1.59    0.76
  -2   7  -6    2.59    0.76
   2  -7   6    3.13    0.61
  -2  -7  -6    2.49    0.67
   2   7   6    3.00    0.99
   2  -7   6    1.56    1.04
  -2  -7  -6    4.26    0.91
  -2   7  -6    2.81    0.66
  -2  -7  -6    2.08    1.11
   2  -7   6    3.74    1.28
  -2  -7  -6    1.96    0.87
  -2  -7  -6    1.92    1.44
   2   7   6    2.08    0.84
   2   7   7   53.43    4.22
   2  -7   7   65.59    3.70
   2   7   7   70.37    4.31
  -2   7  -7   58.56    3.88
  -2   7  -7   68.67    3.97
  -2  -7  -7   58.97    3.63
   2  -7   7   56.59    4.70
   2   7   7   82.80    4.50
   2  -7   7   60.51    4.24
  -2  -7  -7   51.33    4.57
   2   7   7   54.70    3.92
   2  -7   7   64.22    4.02
   2  -7   8    1.08    0.73
  -2   7  -8    1.03    0.66
   2   7   8    0.23    0.94
   2   7   8   -0.12    1.00
   2  -7   8    1.71    1.08
   2  -7   8    1.08    1.03
  -2   7  -8    1.12    0.72
  -2   7  -9   30.81    2.17
  -2   7  -9   40.35    2.44
   2   7   9   37.46    2.70
   2   7   9   30.92    2.68
   2  -7   9   31.57    2.62
   2  -7   9   40.69    2.52
  -2   7 -10   11.93    1.03
   2   7  10   11.28    1.22
   2   7  10    9.06    1.29
  -2   7 -10   12.47    1.48
  -2  -8  11    3.62    0.54
   2  -8 -11    3.82    0.52
  -2   8  10   20.82    1.42
  -2  -8  10   22.44    1.67
   2  -8 -10   25.28    1.67
  -2   8  10   23.61    2.13
   2  -8 -10   25.59    2.15
  -2  -8   9   10.32    1.06
   2  -8  -9   10.71    1.12
  -2   8   9    9.30    1.63
  -2   8   9   10.93    0.97
  -2  -8   9   13.95    1.78
   2  -8  -9    9.60    1.57
   2  -8  -8   67.05    3.95
  -2   8   8   71.52    4.82
  -2  -8   8   74.84    4.19
   2  -8  -8   74.45    4.21
  -2   8   8   73.38    4.86
  -2  -8   8   76.23    4.93
  -2   8   8   64.75    3.99
   2  -8  -8   76.75    4.83
   2   8  -8   64.89    4.02
   2   8  -8   73.19    4.03
   2  -8  -7  784.91   40.26
  -2   8   7  861.09   41.21
   2  -8  -7  728.68   41.00
   2   8  -7  791.77   40.47
  -2  -8   7  803.90   40.53
   2  -8  -7  827.51   40.51
  -2   8   7  825.69   41.32
   2  -8  -7  856.14   41.21
  -2  -8   7  796.82   40.19
  -2   8   7  873.73   41.61
  -2  -8   7  778.76   40.32
  -2   8   7  755.41   40.31
  -2  -8   7  895.17   41.39
   2  -8  -7  848.39   41.14
  -2   8   7  787.98   40.96
  -2  -8   7  768.47   40.48
   2   8  -7  788.79   40.41
  -2   8   7  661.06   41.43
   2   8  -6    4.39    0.78
   2  -8  -6    4.01    1.20
  -2   8   6    3.87    1.11
  -2  -8   6    3.44    0.63
   2  -8  -6    5.04    0.79
  -2  -8   6    4.10    0.78
  -2   8   6    5.55    1.46
  -2   8   6    5.79    1.58
  -2  -8   6    4.54    0.65
  -2  -8   6    3.96    1.38
   2  -8  -6    5.79    1.27
  -2  -8   6    4.65    0.81
  -2   8   6    3.70    1.16
   2   8  -6    3.81    0.77
   2   8  -5   -0.08    0.56
  -2   8   5    0.17    1.37
   2  -8  -5   -0.25    0.34
  -2  -8   5   -0.10    0.46
   2  -8  -5   -0.41    0.50
  -2   8   5   -0.56    1.08
  -2   8   5   -0.21    0.82
  -2   8   5    0.16    1.15
  -2  -8   5    0.18    0.37
  -2  -8   5   -0.13    1.23
  -2  -8   5   -0.14    0.49
  -2   8   5   -0.44    0.88
  -2  -8   5   -0.06    0.46
   2   8  -4    1.15    0.72
  -2   8   4    0.62    1.26
   2   8  -4    0.98    0.39
   2  -8  -4    0.88    0.30
  -2   8   4    1.07    0.97
  -2   8   4    1.24    0.80
  -2   8   4    0.16    1.21
  -2  -8   4    0.80    0.44
  -2  -8   4    1.23    0.49
  -2  -8   4    0.22    0.72
  -2  -8   4    0.57    0.52
  -2  -8   3   -0.15    0.49
   2   8  -3   -0.25    0.43
   2  -8  -3   -0.03    0.23
  -2   8   3    0.39    0.90
  -2   8   3    0.12    0.77
  -2   8   3   -0.45    1.19
  -2   8   3   -0.16    0.69
  -2  -8   3    0.05    0.36
  -2  -8   3   -0.12    0.83
  -2  -8   3    0.13    0.45
  -2   8   3    1.02    1.21
  -2   8   2   38.29    2.32
   2   8  -2   39.80    2.69
   2  -8  -2   37.32    2.10
  -2   8   2   36.72    2.98
  -2   8   2   36.04    2.79
  -2   8   2   35.73    2.53
   2  -8  -2   36.42    2.77
  -2  -8   2   38.04    2.46
   2   8  -2   39.59    2.26
  -2  -8   2   36.11    2.37
   2   8  -1   28.38    2.23
  -2   8   1   24.38    2.07
   2  -8  -1   23.00    1.68
  -2  -8   1   25.35    1.85
  -2   8   1   26.65    1.89
   2  -8  -1   27.37    2.25
  -2  -8   1   26.26    2.37
  -2   8   1   26.38    2.50
   2   8  -1   28.53    1.84
   2   8   0   15.90    1.69
  -2   8   0   14.52    1.54
  -2  -8   0   16.02    1.54
  -2  -8   0   14.32    1.55
  -2   8   0   14.36    1.25
  -2  -8   0   15.86    1.88
  -2   8   0   15.78    1.98
   2   8   0   14.43    1.33
  -2  -8  -1   82.70    5.11
   2   8   1  101.82    6.03
  -2   8  -1   97.90    5.59
  -2  -8  -1   98.10    5.28
  -2  -8  -1   92.58    5.68
  -2  -8  -1   87.69    5.61
  -2   8  -1   93.33    5.19
   2  -8   1  103.03    5.85
  -2   8  -1  108.93    6.16
   2   8   1  102.76    5.52
  -2   8  -2   11.27    1.32
   2   8   2   11.64    1.68
  -2  -8  -2   10.81    1.04
   2  -8   2   10.51    0.97
  -2  -8  -2   12.18    1.14
  -2   8  -2    9.97    0.94
  -2   8  -2   10.84    1.86
  -2  -8  -2   13.58    1.18
   2   8   2   10.90    0.82
  -2  -8  -2   13.76    1.68
   2  -8   2   12.22    1.56
  -2   8  -2   12.40    1.82
   2   8   2   10.50    1.27
   2   8   3   -0.30    1.01
   2  -8   3   -0.09    0.41
  -2  -8  -3   -0.21    0.48
  -2  -8  -3    0.23    0.44
  -2   8  -3    0.70    0.71
  -2   8  -3   -0.11    0.46
  -2   8  -3    0.20    0.52
  -2   8  -3    1.02    1.19
  -2  -8  -3   -0.21    0.59
  -2  -8  -3    0.37    1.05
   2  -8   3   -0.22    0.43
   2  -8   3   -0.13    0.92
  -2  -8  -3    0.43    1.16
  -2   8  -3   -0.46    1.21
   2   8   3    0.68    0.65
   2   8   4   19.95    2.20
  -2   8  -4   18.38    1.39
   2  -8   4   17.80    1.31
  -2   8  -4   16.05    1.57
  -2  -8  -4   16.11    1.54
  -2   8  -4   16.65    1.50
  -2  -8  -4   17.55    1.44
  -2   8  -4   15.62    2.23
  -2  -8  -4   19.75    1.62
  -2  -8  -4   17.03    2.13
  -2  -8  -4   14.80    1.66
   2  -8   4   19.09    1.36
  -2  -8  -4   18.86    2.06
   2  -8   4   16.61    1.98
   2   8   4   19.22    1.84
  -2   8  -4   15.35    1.67
   2  -8   5   -0.10    0.81
  -2   8  -5    0.37    0.58
   2  -8   5    0.05    0.43
  -2  -8  -5    0.13    0.53
   2   8   5    0.38    0.75
  -2   8  -5    0.24    0.65
   2  -8   5   -0.79    0.92
  -2  -8  -5   -0.24    0.89
   2  -8   5   -0.30    1.08
  -2  -8  -5    1.83    1.51
  -2  -8  -5    0.37    0.54
   2   8   5    0.66    0.73
   2  -8   6   -0.30    0.79
   2   8   6    0.30    0.81
  -2   8  -6   -0.18    0.62
   2  -8   6   -0.11    0.42
  -2  -8  -6    0.13    0.54
   2   8   6   -0.42    0.84
   2  -8   6   -0.77    1.00
  -2   8  -6   -0.12    0.51
  -2  -8  -6    0.13    0.90
   2  -8   6    0.79    1.17
  -2  -8  -6   -0.19    1.28
   2   8   6    0.21    0.67
  -2   8  -7   47.33    3.11
   2   8   7   47.01    3.34
   2  -8   7   42.97    3.31
  -2  -8  -7   41.27    3.86
  -2  -8  -7   44.04    3.46
   2  -8   7   52.44    3.29
  -2  -8  -7   41.97    2.85
   2  -8   8    3.33    0.93
  -2   8  -8    2.57    0.69
  -2   8  -8    2.48    0.80
   2   8   8    4.31    1.06
   2   8   8    3.01    1.12
   2  -8   8    2.72    1.00
  -2  -8  -8    1.41    0.95
   2  -8   9    4.92    0.83
  -2   8  -9    5.67    0.82
   2   8   9    4.35    1.06
   2   8   9    4.37    1.07
   2  -8   9    4.55    0.98
  -2   8  -9    3.86    0.60
  -2   8  -9    5.26    1.19
  -2  -8 -10    0.97    0.39
  -2   8 -10    0.24    0.45
   2   8  10    0.41    0.51
   2  -8  10    0.22    0.50
  -2  -9  10    7.52    0.75
   2  -9 -10    7.61    0.81
  -2  -9  10    7.50    0.81
  -2   9  10    5.75    1.18
   2  -9 -10    6.00    1.12
  -2  -9   9   14.25    1.22
   2  -9  -9   15.44    1.28
  -2   9   9   11.65    1.76
   2  -9  -9   13.70    1.70
  -2  -9   8    0.88    0.54
   2  -9  -8    1.21    0.64
  -2   9   8   -0.29    1.20
   2   9  -8    0.27    0.48
   2  -9  -8    0.79    1.01
   2   9  -7    5.50    0.78
  -2   9   7    5.99    1.69
  -2   9   7    6.57    1.38
   2   9  -7    6.43    0.85
   2  -9  -7    6.01    1.31
  -2  -9   7    6.49    0.90
   2  -9  -7    6.00    0.91
  -2   9   7    6.18    1.46
  -2   9   7    7.03    1.71
  -2  -9   7    7.32    1.54
   2  -9  -7    6.75    1.42
  -2  -9   7    6.44    0.90
   2  -9  -7    6.68    1.37
  -2  -9   7    5.29    0.84
  -2   9   7    6.14    1.28
  -2  -9   7    6.82    0.69
   2   9  -7    5.50    0.88
  -2   9   6    8.87    1.91
  -2   9   6    8.44    1.42
   2  -9  -6    9.68    0.86
  -2  -9   6   10.09    0.94
   2  -9  -6   10.19    1.55
   2  -9  -6    9.73    1.05
  -2   9   6    8.93    1.65
  -2   9   6    9.21    1.84
  -2  -9   6    9.82    1.10
  -2  -9   6   10.94    1.09
  -2   9   6   10.54    1.54
   2   9  -6    7.64    1.07
   2   9  -6    8.93    1.07
   2  -9  -6    8.30    1.43
   2   9  -5    7.00    1.04
   2  -9  -5    6.97    0.72
  -2  -9   5    7.13    0.86
   2  -9  -5    7.77    0.94
  -2   9   5    7.12    1.50
  -2   9   5   10.21    1.82
   2  -9  -5    8.84    1.37
  -2  -9   5    7.45    0.96
  -2  -9   5    9.50    0.96
  -2   9   5    7.47    1.31
  -2  -9   5    8.83    1.24
   2   9  -4   67.60    3.87
   2  -9  -4   64.41    3.72
  -2  -9   4   72.02    3.88
   2  -9  -4   75.37    4.00
  -2   9   4   70.53    4.73
  -2   9   4   65.55    4.95
  -2  -9   4   64.24    4.03
  -2  -9   4   60.44    3.90
  -2   9   4   68.30    4.32
  -2  -9   4   71.14    4.56
  -2  -9   4   66.15    4.09
  -2   9   4   81.05    5.06
   2   9  -4   70.09    4.32
  -2   9   3    9.17    1.69
  -2   9   3    5.93    0.68
   2   9  -3    7.06    0.87
   2  -9  -3    5.50    0.56
  -2  -9   3    5.97    0.74
  -2  -9   3    6.37    0.83
  -2   9   3    4.26    1.19
  -2   9   3    4.58    1.66
  -2   9   3    7.34    1.45
  -2   9   3    4.69    0.96
  -2  -9   3    6.75    0.76
  -2   9   3    6.01    1.07
   2  -9  -3    6.39    1.21
  -2  -9   3    7.72    1.42
  -2  -9   3    6.29    0.85
  -2   9   2    2.72    0.52
   2   9  -2    1.32    0.68
   2  -9  -2    2.48    0.37
  -2  -9   2    1.97    0.52
  -2   9   2    1.86    0.93
  -2   9   2    3.73    1.24
  -2   9   2    1.66    1.36
  -2   9   2    3.33    0.83
  -2  -9   2    1.68    0.60
  -2   9   2    4.87    0.86
  -2  -9   2    1.92    0.49
   2  -9  -2    1.46    0.93
  -2  -9   2    2.11    0.62
   2   9  -2    1.90    0.40
   2   9  -1    0.94    0.78
  -2   9   1    1.22    1.12
   2  -9  -1    1.27    0.43
  -2   9   1    1.63    0.68
  -2   9   1    2.13    0.91
  -2   9   1    2.33    0.80
   2  -9  -1    0.75    0.97
  -2  -9   1    1.77    1.07
  -2  -9   1    2.43    0.60
   2   9  -1    1.89    0.51
  -2   9   0   41.91    2.51
   2   9   0   39.35    3.00
  -2   9   0   39.21    2.87
   2  -9   0   38.22    2.33
  -2  -9   0   36.85    2.71
   2  -9   0   34.69    3.21
  -2  -9   0   41.11    2.91
  -2   9   0   37.40    2.50
  -2  -9   0   39.27    3.18
  -2   9   0   34.48    3.25
   2   9   0   37.75    2.53
   2   9   1   31.73    2.62
  -2   9  -1   28.51    2.34
   2  -9   1   26.39    1.80
  -2   9  -1   26.81    2.77
  -2  -9  -1   28.46    1.99
  -2  -9  -1   27.24    2.35
   2  -9   1   34.00    2.92
  -2   9  -1   27.56    1.94
   2  -9   1   32.28    1.96
   2  -9   1   27.03    2.52
  -2   9  -1   29.74    2.82
   2   9   2   -0.14    0.96
  -2  -9  -2   -0.19    0.54
   2  -9   2    0.76    0.46
  -2   9  -2   -0.17    1.25
  -2   9  -2    0.13    0.50
  -2  -9  -2   -0.06    0.57
  -2   9  -2    0.75    0.72
   2   9   2   -0.03    0.32
  -2   9  -2   -0.05    0.40
  -2  -9  -2    0.60    0.93
   2  -9   2    0.75    0.49
  -2  -9  -2   -0.39    0.98
   2  -9   2    0.42    1.06
  -2   9  -2    0.32    1.26
   2   9   2    0.35    0.66
   2  -9   2   -0.51    1.29
   2   9   3    0.15    0.94
  -2   9  -3    0.88    0.70
  -2  -9  -3    0.97    0.54
  -2   9  -3    0.99    0.61
  -2  -9  -3    0.54    0.56
  -2   9  -3    1.33    0.52
  -2   9  -3    0.93    1.30
   2   9   3    0.94    0.36
  -2  -9  -3   -0.26    0.92
   2  -9   3    0.54    0.45
   2  -9   3    0.74    0.98
  -2   9  -3    0.66    1.23
   2  -9   3    1.99    1.46
   2   9   3    1.43    0.74
  -2   9  -4   11.28    1.43
   2   9   4    9.93    1.69
  -2   9  -4   12.60    1.33
  -2  -9  -4    9.88    1.10
  -2   9  -4   10.98    1.20
  -2   9  -4    9.83    2.06
  -2  -9  -4    9.20    1.26
   2  -9   4   13.74    1.13
  -2  -9  -4   11.00    1.74
  -2  -9  -4   10.77    1.88
   2  -9   4   10.49    1.72
  -2   9  -4   12.45    1.96
   2   9   4   11.54    1.39
  -2  -9  -5   17.11    1.45
  -2   9  -5   17.79    1.61
  -2   9  -5   17.73    1.57
  -2  -9  -5   13.81    1.66
   2  -9   5   16.33    1.29
   2  -9   5   17.82    2.24
  -2   9  -5   23.85    2.44
  -2  -9  -5   16.85    2.27
   2   9   5   16.87    1.71
   2  -9   5   18.97    1.78
  -2   9  -5   14.40    1.67
   2  -9   6   -0.20    0.79
   2   9   6    1.11    0.87
  -2   9  -6   -0.17    0.59
  -2   9  -6   -0.12    0.78
  -2  -9  -6    0.33    0.57
   2   9   6    0.48    0.71
  -2   9  -6    0.45    0.52
  -2  -9  -6   -0.35    0.88
   2  -9   6    0.67    1.27
  -2   9  -6    0.35    1.30
  -2  -9  -6    0.77    1.25
   2   9   6   -0.10    0.58
  -2   9  -7   28.59    2.14
   2   9   7   27.01    2.24
   2   9   7   31.86    2.51
  -2   9  -7   27.39    2.82
   2  -9   7   26.75    2.20
  -2   9  -8   19.12    1.58
  -2   9  -8   18.20    1.48
   2   9   8   17.87    1.71
   2   9   8   20.75    1.93
  -2   9  -8   17.20    2.11
   2  -9   8   19.80    1.72
  -2  -9  -9    5.82    0.75
  -2   9  -9    7.01    0.87
   2   9   9    6.83    0.91
  -2   9  -9    8.20    1.34
   2  -9   9    8.40    0.96
  -2 -10  10    1.33    0.45
   2 -10 -10    1.32    0.43
  -2  10  10    1.28    0.81
  -2  10  10    1.67    0.50
   2 -10 -10    1.65    0.80
  -2 -10   9    0.51    0.40
   2 -10  -9   -0.36    0.49
  -2  10   9    1.17    0.97
  -2  10   9    0.27    0.55
   2 -10  -9   -0.11    0.83
  -2 -10   8    3.54    0.68
   2 -10  -8    3.62    0.74
  -2  10   8    3.41    1.32
   2  10  -8    2.92    0.57
   2 -10  -8    3.88    1.13
  -2  10   7    9.67    1.90
  -2 -10   7    8.72    0.75
  -2 -10   7    6.79    0.94
   2 -10  -7    8.35    1.00
  -2  10   7    6.76    1.56
   2  10  -7    6.99    0.93
  -2  10   7   11.48    1.94
  -2 -10   7    7.50    1.00
   2 -10  -7   10.73    1.55
  -2 -10   7    8.03    0.98
  -2  10   7    8.42    1.38
   2  10  -6    0.99    0.54
   2  10  -6    0.08    0.63
  -2  10   6    1.48    1.28
   2 -10  -6    0.97    0.41
  -2 -10   6    1.37    0.54
   2 -10  -6    1.36    0.64
  -2  10   6   -0.16    1.23
  -2  10   6    3.20    1.65
  -2  10   6    0.12    0.94
   2 -10  -6   -0.50    1.03
  -2 -10   6    0.39    0.52
  -2 -10   6    0.76    0.55
  -2  10   6    1.84    1.07
   2 -10  -6    2.25    1.03
   2  10  -5    1.03    0.64
   2 -10  -5    0.17    0.32
  -2 -10   5    0.14    0.44
   2 -10  -5   -0.07    0.52
  -2  10   5    1.28    1.36
  -2  10   5    0.38    1.33
  -2  10   5    0.90    0.73
   2 -10  -5   -0.12    1.01
  -2 -10   5    0.31    0.50
  -2  10   5   -0.47    1.00
  -2 -10   5   -0.13    0.51
  -2 -10   5    0.32    0.47
  -2 -10   5    0.46    0.72
   2  10  -4   52.00    3.23
   2 -10  -4   53.18    3.10
   2 -10  -4   54.12    3.32
  -2 -10   4   60.87    3.21
  -2  10   4   53.99    4.35
  -2  10   4   59.81    3.68
  -2 -10   4   49.86    3.37
  -2 -10   4   51.19    3.29
   2 -10  -4   51.71    3.56
  -2  10   4   56.70    3.74
  -2 -10   4   57.20    3.95
  -2  10   4   52.99    4.10
  -2 -10   4   59.73    3.53
   2  10  -4   54.04    3.63
  -2  10   3   32.05    2.05
   2  10  -3   31.37    2.16
  -2 -10   3   33.38    2.01
   2 -10  -3   33.23    1.90
   2 -10  -3   23.73    1.88
  -2  10   3   25.01    2.65
  -2  10   3   33.00    2.92
  -2  10   3   38.52    2.54
  -2 -10   3   26.70    2.00
  -2  10   3   33.29    2.48
   2 -10  -3   31.97    2.64
  -2 -10   3   36.13    2.91
  -2 -10   3   33.17    2.28
  -2 -10   3   31.91    2.13
  -2  10   3   42.67    3.26
  -2  10   2   29.22    1.82
   2  10  -2   24.05    2.00
  -2 -10   2   23.04    1.68
  -2  10   2   20.44    2.29
   2 -10  -2   22.97    1.61
  -2 -10   2   22.99    1.78
  -2  10   2   25.68    2.47
  -2  10   2   27.38    2.10
  -2 -10   2   23.36    1.68
  -2  10   2   28.51    2.07
   2 -10  -2   24.14    2.37
  -2 -10   2   28.04    1.96
   2  10  -1    1.56    0.77
   2 -10  -1    1.87    0.45
   2 -10  -1    0.78    1.13
  -2  10   1    3.28    1.23
  -2 -10   1    1.80    0.55
  -2  10   1    2.13    0.82
  -2  10   1    2.74    1.52
  -2  10   1    4.19    0.89
  -2  10   1    1.66    0.70
  -2 -10   1    1.05    0.40
   2 -10  -1    2.03    1.01
  -2 -10   1    0.90    1.14
  -2 -10   1    1.76    0.58
   2  10  -1    1.93    0.50
  -2  10   0   70.85    4.05
   2  10   0   77.96    4.60
  -2  10   0   61.86    4.37
   2 -10   0   65.52    3.79
  -2 -10   0   61.43    3.91
  -2  10   0   75.60    5.13
  -2 -10   0   60.81    4.19
  -2 -10   0   68.04    4.45
   2 -10   0   81.99    5.09
   2 -10   0   73.52    3.99
  -2 -10   0   71.68    4.85
  -2  10   0   64.03    4.87
   2  10   0   70.85    4.06
   2 -10   1   17.25    2.15
   2  10   1   14.39    1.68
  -2 -10  -1    9.90    1.12
  -2  10  -1   12.52    1.55
  -2  10  -1   13.43    2.22
   2 -10   1   12.26    0.99
  -2 -10  -1   11.03    1.15
   2  10   1   14.55    1.03
  -2  10  -1   14.24    1.23
  -2 -10  -1   10.78    1.52
   2 -10   1   12.94    1.87
  -2  10  -1   13.43    1.98
   2  10   2    2.14    1.02
   2 -10   2    1.79    0.46
  -2  10  -2    1.92    1.57
  -2 -10  -2    2.04    0.68
  -2  10  -2    2.28    0.66
   2  10   2    2.33    0.46
  -2  10  -2    1.88    0.58
  -2 -10  -2    1.43    1.13
   2 -10   2    1.60    0.52
  -2 -10  -2    0.55    1.01
   2 -10   2    2.52    1.21
  -2  10  -2    2.24    1.32
   2  10   2    0.86    0.66
  -2  10  -2    0.95    0.82
   2 -10   2    2.43    1.47
   2  10   3    3.70    1.12
   2 -10   3    2.28    0.51
  -2  10  -3    2.98    0.92
  -2 -10  -3    4.31    0.80
  -2  10  -3    3.23    0.73
   2  10   3    2.44    1.20
  -2  10  -3    3.00    1.68
   2  10   3    3.98    0.55
  -2 -10  -3    3.06    1.11
   2 -10   3    3.41    0.67
  -2 -10  -3    2.21    1.17
   2 -10   3    1.82    1.24
  -2  10  -3    5.22    1.58
   2  10   3    2.89    0.81
   2 -10   3    2.15    1.47
   2  10   4    4.64    1.22
  -2  10  -4    5.96    1.17
   2 -10   4    6.62    0.74
  -2 -10  -4    5.31    0.94
  -2 -10  -4    7.67    0.96
  -2  10  -4    7.66    1.00
  -2  10  -4    6.02    1.80
  -2  10  -4    8.51    1.09
  -2 -10  -4    9.12    1.57
   2 -10   4    5.71    0.78
   2 -10   4    5.67    1.59
  -2  10  -4    4.60    1.58
   2  10   4    5.73    0.99
   2 -10   5    0.51    0.76
  -2  10  -5    0.24    0.73
   2 -10   5   -0.30    0.42
  -2  10  -5    0.36    0.60
  -2 -10  -5    0.44    0.61
  -2 -10  -5   -0.07    0.54
  -2  10  -5    0.25    0.67
   2 -10   5   -0.06    0.42
   2 -10   5    0.18    1.11
  -2 -10  -5   -1.11    1.25
  -2  10  -5    3.18    1.44
   2  10   5    0.20    0.62
   2 -10   6   10.25    1.27
  -2  10  -6    7.55    0.99
  -2 -10  -6    7.51    0.93
  -2 -10  -6    7.63    1.03
   2 -10   6    7.72    1.66
  -2  10  -6    6.64    1.74
   2 -10   7    4.87    1.00
  -2 -10  -7    4.17    0.77
   2  10   7    2.66    0.78
   2  10   7    6.25    1.18
  -2  10  -7    3.09    1.33
   2 -10   8    2.66    0.75
  -2  10  -8    2.24    0.56
  -2  10  -8    1.65    0.63
   2  10   8    1.83    0.62
  -2 -10  -8    2.07    0.57
  -2  10  -8    2.83    1.08
   2 -10   9   -0.10    0.51
  -2 -10  -9   -0.27    0.36
  -2  10  -9   -0.04    0.43
   2  10   9    0.39    0.91
  -2  10  -9   -0.09    0.74
  -2 -11  10    0.16    0.31
   2 -11 -10   -0.10    0.26
  -2  11  10    0.89    0.70
  -2 -11   9   13.84    1.12
  -2  11   9   16.29    1.26
   2 -11  -9   13.55    1.13
  -2  11   9   15.24    1.24
   2 -11  -9   14.34    1.53
  -2  11   9   15.87    1.68
  -2 -11   8    2.63    0.59
   2 -11  -8    2.47    0.61
  -2  11   8    3.01    1.26
   2  11  -8    2.47    0.51
  -2  11   8    2.51    0.71
   2 -11  -8    1.96    1.04
  -2  11   8    3.32    0.93
   2 -11  -7    2.82    0.67
  -2 -11   7    1.98    0.59
  -2  11   7    0.90    1.28
   2  11  -7    3.15    0.67
  -2  11   7    1.70    1.30
  -2  11   7    1.96    0.69
   2 -11  -7    2.93    1.08
  -2 -11   7    2.15    0.40
  -2 -11   7    1.82    0.60
  -2  11   7    1.26    0.94
  -2  11   6    7.01    1.74
   2 -11  -6    9.77    0.88
   2  11  -6   10.82    1.12
   2 -11  -6    9.78    1.07
  -2  11   6   11.08    1.85
   2  11  -6    7.76    1.03
  -2  11   6    9.06    1.91
  -2  11   6   10.06    1.24
  -2 -11   6    9.27    1.09
   2 -11  -6   13.16    1.58
  -2 -11   6    8.38    0.87
  -2 -11   6   10.12    1.08
  -2  11   6   10.33    1.50
   2 -11  -6   10.97    1.59
  -2  11   5    8.09    1.84
   2 -11  -5    9.66    0.92
  -2 -11   5   11.02    1.04
   2 -11  -5    9.83    1.12
  -2  11   5   12.64    1.98
  -2  11   5   12.36    1.37
   2 -11  -5   14.31    1.63
  -2 -11   5   13.10    1.26
  -2 -11   5   12.39    1.17
  -2  11   5   13.15    1.61
   2  11  -5   12.76    1.30
   2  11  -4   70.13    4.29
   2 -11  -4   79.97    4.42
  -2 -11   4   80.18    4.22
  -2  11   4   78.61    5.26
  -2  11   4   82.63    4.75
  -2 -11   4   73.34    4.50
   2 -11  -4   69.72    4.68
  -2  11   4   79.47    4.86
  -2 -11   4   71.48    5.02
  -2 -11   4   74.32    4.55
   2  11  -4   70.87    4.67
  -2  11   3   20.44    1.44
   2  11  -3   19.07    1.53
  -2 -11   3   15.18    1.40
   2 -11  -3   19.52    1.49
  -2  11   3   20.54    2.33
  -2  11   3   20.49    1.77
  -2 -11   3   17.62    1.31
  -2 -11   3   12.41    1.30
  -2  11   3   19.86    1.85
   2 -11  -3   16.32    1.90
  -2 -11   3   18.37    2.16
  -2 -11   3   17.01    1.57
  -2  11   3   26.04    2.52
  -2  11   2    4.95    0.72
   2  11  -2    4.60    0.88
  -2  11   2    4.07    1.45
  -2 -11   2    4.93    0.85
   2 -11  -2    5.83    1.44
  -2  11   2    2.45    1.05
  -2  11   2    6.02    1.64
  -2 -11   2    3.42    0.63
  -2  11   2    6.51    1.04
  -2  11   2    7.24    1.10
  -2 -11   2    3.72    0.63
   2 -11  -2    4.90    1.40
  -2 -11   2    2.22    1.25
  -2 -11   2    4.20    0.79
   2  11  -1   10.50    1.35
   2 -11  -1   10.03    1.79
   2 -11  -1    8.01    0.75
  -2  11   1    8.99    1.49
  -2  11   1   10.40    2.02
  -2 -11   1    9.73    0.94
  -2 -11   1    8.26    0.84
  -2  11   1   10.81    1.20
   2 -11  -1    8.01    0.93
   2 -11  -1    8.91    1.63
  -2 -11   1   10.64    1.72
   2  11  -1   10.98    0.97
  -2 -11   1    9.78    1.12
   2  11   0   10.81    1.46
   2 -11   0   13.28    1.90
   2 -11   0   10.86    0.86
  -2  11   0   10.85    1.98
  -2  11   0    8.45    1.37
  -2 -11   0    9.87    1.01
  -2 -11   0    9.53    1.50
   2 -11   0   11.25    1.08
  -2 -11   0   12.22    1.84
   2  11   0   10.96    1.10
   2 -11   1    5.54    1.62
   2  11   1    6.29    1.17
  -2  11  -1    4.61    1.10
   2 -11   1    6.50    0.67
  -2 -11  -1    6.17    0.85
   2  11   1    8.09    0.76
  -2  11  -1    4.48    1.75
  -2  11  -1    4.72    0.85
   2 -11   1    7.14    0.88
   2 -11   1    8.07    1.59
  -2  11  -1    6.44    1.75
   2  11   1    5.75    0.90
   2  11   2  191.48   10.40
  -2  11  -2  179.47   10.24
  -2 -11  -2  172.88    9.67
   2 -11   2  180.69    9.46
  -2 -11  -2  175.01    9.75
  -2  11  -2  171.06    9.73
  -2  11  -2  180.28   10.94
   2  11   2  196.41    9.51
  -2 -11  -2  159.82   10.25
   2 -11   2  209.16   11.12
  -2 -11  -2  173.19   10.32
  -2  11  -2  180.18    9.66
   2 -11   2  198.72    9.79
   2 -11   2  169.32   10.61
  -2  11  -2  170.57   10.76
   2  11   3   49.94    4.00
  -2  11  -3   59.07    4.02
   2 -11   3   58.07    3.28
  -2  11  -3   56.26    3.58
  -2  11  -3   60.35    4.73
   2  11   3   41.33    3.80
  -2 -11  -3   56.81    4.24
   2 -11   3   65.31    4.76
   2  11   3   59.46    3.30
  -2 -11  -3   52.94    4.11
   2 -11   3   65.85    3.59
   2 -11   3   57.37    4.48
  -2 -11  -3   57.75    3.51
  -2  11  -3   60.03    4.55
  -2 -11  -3   57.88    3.55
   2  11   3   59.08    3.74
  -2  11  -4    0.28    0.66
   2  11   4    0.14    0.78
   2 -11   4    0.13    0.36
  -2  11  -4    0.38    0.70
  -2 -11  -4    0.14    0.59
  -2  11  -4   -0.16    0.64
  -2  11  -4    1.07    1.34
   2  11   4    0.88    1.11
  -2 -11  -4    1.33    1.06
   2 -11   4    0.20    0.45
   2 -11   4   -0.37    1.19
  -2 -11  -4   -0.35    1.14
  -2  11  -4    1.08    1.31
   2  11   4    0.28    0.60
  -2  11  -5   16.05    1.71
   2  11   5   12.72    1.65
  -2  11  -5   15.80    1.49
  -2  11  -5   15.86    1.51
  -2 -11  -5   15.11    1.38
   2  11   5   18.89    2.16
   2 -11   5   17.70    1.32
   2 -11   5   14.54    2.12
  -2  11  -5   16.35    2.24
   2  11   5   18.68    1.65
   2 -11   5   15.66    1.64
  -2 -11  -6   29.97    2.12
  -2 -11  -6   27.94    2.06
   2  11   6   29.55    2.81
   2 -11   6   29.26    2.90
  -2  11  -6   33.59    2.95
   2 -11   6   35.62    2.43
   2 -11   7   -0.08    0.63
  -2 -11  -7    0.21    0.54
  -2  11  -7   -0.13    0.54
   2  11   7    1.11    1.14
  -2  11  -7   -0.28    1.05
   2 -11   8    1.11    0.60
  -2  11  -8    0.98    0.40
  -2 -11  -8    0.52    0.43
   2  11   8    1.85    1.00
  -2  11  -8    0.56    0.92
  -2  12   9   10.97    0.90
  -2 -12   9   10.07    0.80
   2 -12  -9    8.55    0.73
  -2  12   9    6.90    1.17
  -2  12   9    7.35    0.71
   2 -12  -9    9.10    1.14
  -2 -12   8    0.15    0.45
   2 -12  -8    0.40    0.46
  -2  12   8   -0.46    1.13
   2  12  -8   -0.09    0.33
  -2  12   8    0.27    0.49
   2 -12  -8    1.42    0.88
  -2  12   8    0.71    0.71
  -2  12   7   14.81    1.93
   2 -12  -7   16.87    1.35
  -2 -12   7   18.16    1.42
   2  12  -7   15.94    1.30
  -2  12   7   17.67    2.10
  -2  12   7   15.29    2.15
  -2  12   7   17.18    1.47
   2 -12  -7   18.09    1.82
  -2  12   7   14.99    1.68
  -2  12   6   -0.33    1.31
  -2 -12   6    0.65    0.42
   2 -12  -6    0.55    0.51
  -2  12   6    0.77    1.23
   2  12  -6    1.03    0.59
  -2  12   6    0.08    0.63
   2 -12  -6    0.23    0.80
  -2 -12   6    0.50    0.53
  -2 -12   6    0.63    0.47
  -2  12   6    0.12    0.92
  -2  12   5   35.68    2.60
  -2 -12   5   26.90    1.91
   2 -12  -5   29.29    2.04
  -2  12   5   30.97    2.89
  -2  12   5   31.06    2.29
   2 -12  -5   25.84    2.38
  -2 -12   5   27.56    2.13
  -2 -12   5   28.96    2.05
  -2  12   5   26.95    2.45
  -2  12   5   28.71    2.84
   2  12  -5   31.35    2.21
   2 -12  -4   23.65    1.76
  -2  12   4   23.51    2.62
  -2  12   4   20.44    2.85
  -2  12   4   21.10    1.94
   2 -12  -4   26.37    2.23
  -2 -12   4   23.77    1.86
   2 -12  -4   20.41    2.00
  -2  12   4   24.19    2.24
  -2 -12   4   19.89    2.25
  -2 -12   4   25.97    1.59
  -2  12   4   26.81    2.71
   2  12  -3   36.30    2.56
  -2 -12   3   41.24    2.35
  -2 -12   3   35.54    2.48
   2 -12  -3   40.21    2.52
  -2  12   3   38.47    3.39
  -2  12   3   38.87    3.74
  -2  12   3   42.01    2.83
  -2 -12   3   34.16    2.41
  -2  12   3   37.56    2.88
   2 -12  -3   39.84    3.13
  -2 -12   3   38.73    3.29
  -2 -12   3   39.21    2.70
  -2  12   2    0.49    0.40
   2  12  -2    0.71    0.55
  -2 -12   2    0.61    0.44
  -2  12   2    1.19    1.33
  -2  12   2    0.66    1.04
   2 -12  -2    0.53    1.19
  -2  12   2    0.42    1.45
  -2  12   2    1.16    0.71
  -2 -12   2    0.66    0.61
  -2  12   2    0.30    0.93
  -2 -12   2    0.67    0.43
   2 -12  -2    0.71    0.53
   2 -12  -2    0.16    1.15
  -2 -12   2    0.50    1.12
  -2 -12   2    0.69    0.60
  -2  12   1    0.22    0.50
   2 -12  -1   -0.74    1.26
  -2 -12   1    0.10    0.43
  -2  12   1    1.26    1.07
  -2  12   1    0.21    1.59
  -2 -12   1    1.27    0.91
  -2  12   1    1.08    0.77
  -2 -12   1   -0.05    0.34
   2 -12  -1    0.87    0.57
   2 -12  -1    0.18    1.21
  -2 -12   1    0.34    1.19
  -2 -12   1    0.52    0.62
   2  12   0    0.56    0.73
   2 -12   0    0.19    1.22
  -2  12   0    0.29    0.80
  -2  12   0    2.15    1.58
  -2 -12   0    0.59    0.47
  -2 -12   0    0.26    0.95
   2 -12   0    0.35    0.50
  -2 -12   0    0.85    1.20
  -2 -12   0    0.87    0.61
   2  12   0    0.68    0.44
   2  12   1   41.46    3.31
  -2  12  -1   43.60    3.41
  -2  12  -1   47.88    4.14
  -2 -12  -1   41.09    2.84
   2  12   1   53.26    2.83
   2 -12   1   50.26    4.10
  -2  12  -1   45.07    3.02
   2 -12   1   56.46    3.11
   2 -12   1   45.96    3.91
  -2  12  -1   49.60    4.04
   2  12   1   44.06    3.02
   2  12   2  110.87    7.13
  -2  12  -2  111.34    7.15
  -2  12  -2  120.99    6.69
  -2 -12  -2  115.12    6.55
  -2  12  -2  116.57    7.93
  -2 -12  -2  104.87    7.14
   2 -12   2  131.87    7.95
   2  12   2  133.97    6.49
  -2 -12  -2  115.63    7.25
  -2  12  -2  120.01    6.61
   2 -12   2  115.68    7.64
  -2  12  -2  117.75    7.69
   2  12   2  122.96    6.80
   2 -12   3    1.43    1.40
   2  12   3    1.40    0.82
  -2 -12  -3    0.37    0.54
  -2  12  -3    1.20    0.90
  -2 -12  -3    0.44    0.65
  -2  12  -3    0.93    0.62
  -2  12  -3    2.39    1.67
   2  12   3    0.25    0.96
   2  12   3    0.38    0.46
  -2 -12  -3    0.14    1.00
   2 -12   3    0.93    0.56
  -2 -12  -3    1.55    1.20
   2 -12   3    1.53    1.33
  -2  12  -3    1.47    1.36
   2  12   3    1.15    0.58
   2 -12   4    4.03    0.92
   2  12   4    3.16    0.95
  -2 -12  -4    4.29    0.76
  -2  12  -4    4.68    0.89
  -2  12  -4    3.58    1.02
  -2 -12  -4    2.69    0.75
  -2  12  -4    3.82    0.83
  -2  12  -4    4.91    1.83
   2  12   4    3.07    1.22
   2 -12   4    4.58    0.72
  -2 -12  -4    4.33    1.32
  -2 -12  -4    3.96    1.39
   2 -12   4    5.85    1.63
  -2  12  -4    5.84    1.66
   2  12   4    3.16    0.76
  -2  12  -5  105.25    5.98
  -2 -12  -5  102.80    5.86
  -2  12  -5  118.43    6.09
  -2 -12  -5  103.39    5.91
   2  12   5   84.76    6.34
   2 -12   5  111.98    5.83
   2 -12   5  109.37    6.96
  -2  12  -5  109.08    6.83
   2 -12   5  105.02    6.18
   2  12   6   18.57    2.12
   2 -12   6   21.57    1.42
   2 -12   6   23.54    2.41
  -2  12  -6   19.63    2.33
   2 -12   6   21.54    1.82
  -2  12  -6   23.09    1.74
   2 -12   7    0.14    0.63
  -2  12  -7    0.31    0.53
   2  12   7    1.08    0.95
   2 -12   8    0.05    0.47
  -2 -12  -8    0.03    0.30
   2  12   8   -0.45    0.75
  -2 -13   8   27.59    1.66
   2 -13  -8   23.66    1.56
  -2  13   8   23.61    2.10
   2 -13  -8   24.43    1.99
  -2 -13   7    3.02    0.57
   2 -13  -7    2.30    0.51
  -2  13   7    2.56    1.15
   2  13  -7    2.32    0.51
  -2  13   7    2.20    0.54
   2 -13  -7    2.71    0.96
  -2  13   7    4.11    0.92
  -2 -13   6   50.82    2.96
  -2  13   6   51.20    3.92
   2 -13  -6   59.33    3.22
   2  13  -6   44.29    3.17
  -2  13   6   51.79    3.27
   2 -13  -6   57.14    3.66
  -2 -13   6   57.42    3.29
  -2 -13   6   56.89    3.22
  -2  13   6   59.98    3.72
   2 -13  -6   54.42    3.14
  -2  13   6   45.46    3.78
  -2  13   5   14.51    1.98
  -2 -13   5   15.06    1.20
   2 -13  -5   15.46    1.30
  -2  13   5   21.48    2.22
  -2  13   5   14.47    1.41
   2 -13  -5   15.23    1.66
  -2 -13   5   13.42    1.32
  -2 -13   5   15.47    1.28
  -2  13   5   16.65    1.83
   2 -13  -5   15.21    1.25
  -2  13   4    7.81    1.63
  -2  13   4    5.55    1.50
   2 -13  -4    6.02    0.81
  -2  13   4    3.63    1.59
  -2  13   4    4.97    0.90
  -2 -13   4    5.81    0.87
   2 -13  -4    6.61    1.11
  -2  13   4    4.37    1.22
   2 -13  -4    5.80    0.77
  -2 -13   4    3.46    1.22
   2  13  -3   18.08    1.62
  -2  13   3   21.26    2.76
  -2  13   3   19.63    2.40
  -2 -13   3   21.24    1.65
  -2 -13   3   22.46    1.42
   2 -13  -3   26.10    2.10
  -2 -13   3   21.06    1.75
  -2 -13   3   19.37    1.55
  -2  13   3   24.67    2.11
   2 -13  -3   21.62    1.66
   2 -13  -3   18.66    2.05
  -2 -13   3   23.10    2.39
  -2 -13   3   24.71    1.85
   2  13  -3   18.18    1.87
   2  13  -2   33.28    2.45
  -2  13   2   31.24    3.00
  -2 -13   2   34.93    2.33
  -2  13   2   35.63    3.60
  -2 -13   2   34.30    2.09
  -2 -13   2   31.73    2.69
  -2 -13   2   29.98    2.15
  -2  13   2   37.64    2.68
   2 -13  -2   36.86    2.37
   2 -13  -2   35.47    3.09
  -2 -13   2   37.24    3.17
   2 -13  -2   35.95    3.27
  -2 -13   2   33.54    2.44
  -2 -13   1    8.41    0.88
   2 -13  -1   12.69    2.01
  -2  13   1    8.16    1.57
  -2 -13   1   10.39    1.14
  -2  13   1   14.68    2.35
   2  13  -1   12.80    1.05
  -2 -13   1    9.84    0.89
  -2 -13   1    9.12    1.50
   2 -13  -1    9.90    1.09
  -2  13   1    9.92    1.31
   2 -13  -1   13.17    1.94
  -2 -13   1    8.91    1.75
  -2 -13   1    9.39    1.18
   2  13   0   11.35    1.40
   2 -13   0   14.32    2.12
  -2  13   0   11.40    1.70
  -2  13   0   13.03    2.35
   2 -13   0   14.01    1.23
  -2 -13   0   12.99    1.65
  -2 -13   0   10.07    0.96
   2  13   0    8.95    1.03
  -2 -13   0   10.18    1.23
   2  13   1   20.42    2.00
  -2  13  -1   20.09    2.15
  -2 -13  -1   19.88    1.53
   2  13   1   25.93    1.61
  -2  13  -1   23.05    1.82
   2 -13   1   22.49    1.74
   2 -13   1   23.28    2.67
   2 -13   1   24.67    2.77
  -2  13  -1   25.92    2.90
   2  13   1   19.48    1.68
  -2 -13  -2   -0.05    0.45
   2  13   2   -0.23    0.62
   2 -13   2    1.41    1.31
  -2  13  -2    0.13    0.75
  -2  13  -2    0.22    0.60
   2  13   2   -0.35    0.49
  -2  13  -2    0.20    0.57
  -2 -13  -2    0.28    1.10
   2 -13   2    0.78    1.29
  -2  13  -2   -1.54    1.57
   2  13   2    0.40    0.51
  -2 -13  -3  172.10    9.01
  -2  13  -3  179.67    9.22
  -2  13  -3  178.76   10.52
   2  13   3  182.54    9.01
  -2 -13  -3  162.21    9.76
   2 -13   3  196.83    9.23
   2 -13   3  174.43   10.27
  -2  13  -4  183.91    8.62
  -2 -13  -4  153.50    8.40
  -2  13  -4  165.71    8.49
  -2  13  -4  154.23    9.65
   2  13   4  114.59    8.59
   2 -13   4  173.29    8.41
  -2 -13  -4  143.19    8.99
   2 -13   4  157.86    9.51
  -2 -13  -4  148.09    8.26
   2 -13   4  154.19    8.63
  -2 -13  -5   21.85    1.67
  -2  13  -5   25.15    1.76
  -2 -13  -5   25.80    1.81
   2  13   5   20.06    2.14
   2 -13   5   28.56    1.74
   2 -13   5   29.47    2.80
   2 -13   5   28.98    2.11
  -2 -13  -6   24.16    1.62
   2 -13   6   28.21    2.54
   2 -13   6   30.47    1.99
  -2 -13  -7    0.77    0.32
   2 -13   7    0.77    0.55
  -2  13  -7    0.60    0.40
   2  13   7   -0.15    0.72
  -2  13  -7    0.19    0.84
  -2  14   8    3.08    0.55
  -2 -14   8    2.22    0.38
  -2  14   8    2.62    0.83
   2  14  -7    5.56    0.60
   2 -14  -7    5.90    0.61
  -2  14   7    6.06    1.17
   2 -14  -6    1.13    0.44
  -2  14   6    0.36    0.97
   2  14  -6    0.19    0.42
  -2 -14   6    0.86    0.31
  -2 -14   6    0.94    0.50
   2  14  -6    0.91    0.38
  -2 -14   6    1.15    0.43
  -2  14   6    1.14    0.83
   2 -14  -6    0.89    0.39
  -2 -14   6    0.92    0.47
  -2  14   5    3.09    1.22
   2  14  -5    2.23    0.67
   2 -14  -5    1.37    0.51
  -2  14   5    2.34    1.15
  -2  14   5    0.84    1.35
   2 -14  -5    1.87    0.85
  -2 -14   5    2.69    0.63
   2  14  -5    3.51    0.57
  -2 -14   5    2.89    0.57
  -2  14   5    3.13    1.02
  -2 -14   5    2.26    0.51
   2 -14  -5    2.20    0.53
  -2  14   4   -0.89    1.22
  -2 -14   4    0.15    0.47
  -2  14   4    1.49    1.23
  -2  14   4    0.56    1.42
   2 -14  -4   -0.09    0.76
  -2 -14   4    0.28    0.48
   2  14  -4    0.37    0.49
  -2  14   4   -0.55    0.94
   2 -14  -4    0.70    0.47
  -2  14   3   -1.29    1.36
  -2 -14   3    0.62    0.58
  -2 -14   3    0.03    0.30
  -2  14   3    1.61    1.53
   2 -14  -3    0.75    0.77
  -2 -14   3    0.52    0.53
   2 -14  -3    0.82    0.95
   2  14  -3    0.15    0.49
  -2  14   3   -0.64    1.03
  -2 -14   3    0.16    0.41
   2 -14  -3   -0.06    0.48
  -2 -14   3    0.72    0.59
  -2 -14   2   68.49    3.79
  -2 -14   2   63.59    4.05
  -2  14   2   71.87    5.37
   2 -14  -2   74.41    4.36
  -2 -14   2   61.88    3.91
   2  14  -2   80.90    4.04
  -2  14   2   71.78    4.45
   2 -14  -2   68.92    4.13
   2 -14  -2   70.36    4.85
  -2 -14   2   75.57    5.02
  -2 -14   2   72.75    4.27
  -2  14   1    7.72    0.86
  -2 -14   1    9.80    1.08
  -2  14   1    8.03    1.53
  -2  14   1    6.23    1.86
  -2 -14   1    8.31    0.78
   2  14  -1   10.90    0.97
   2 -14  -1    9.80    1.07
  -2 -14   1    9.26    1.40
  -2  14   1    9.98    1.26
   2 -14  -1   11.16    1.77
  -2 -14   1   10.08    1.15
   2 -14   0    6.26    1.60
  -2  14   0    5.89    1.28
  -2  14   0    8.03    2.11
  -2 -14   0    4.88    0.62
  -2 -14   0    5.42    1.25
   2 -14   0    6.46    0.88
  -2 -14   0    5.83    0.94
  -2  14  -1    8.21    2.02
  -2 -14  -1    6.42    0.75
   2  14   1    9.19    0.90
   2 -14   1    9.66    1.05
  -2  14  -1    8.04    1.04
   2 -14   1    9.52    1.76
  -2 -14  -1    9.09    1.13
  -2 -14  -2    7.46    0.78
  -2  14  -2   12.05    2.23
   2  14   2    8.67    0.90
   2 -14   2    9.54    1.04
  -2 -14  -2    7.53    1.47
   2 -14   2   10.59    1.98
  -2 -14  -3    3.75    0.57
  -2  14  -3    4.05    1.68
   2  14   3    5.15    0.71
  -2 -14  -3    3.22    1.17
  -2  14  -3    5.41    0.87
   2 -14   3    5.30    1.55
  -2 -14  -4  138.09    7.77
  -2  14  -4  162.59    8.02
  -2 -14  -4  151.85    7.87
  -2  14  -4  162.55    9.27
   2 -14   4  170.32    7.99
   2 -14   4  157.49    9.05
  -2  14  -4  157.85    8.87
   2 -14   4  164.94    8.25
  -2 -14  -5   17.63    1.32
   2  14   5   16.38    1.68
   2 -14   5   24.25    1.45
   2 -14   5   21.42    2.25
  -2  14  -5   24.17    2.18
   2 -14   5   27.11    1.81
   2 -14   6    3.65    0.69
   2  14   6    2.34    0.72
  -2 -14  -6    2.71    0.40
   2 -14   6    4.16    1.06
  -2  14  -6    1.88    0.95
   2 -14   7   17.82    1.27
  -2  15   7    5.83    0.64
  -2 -15   7    4.16    0.51
  -2 -15   6    9.54    0.83
   2  15  -6    6.42    0.73
  -2 -15   6    9.91    0.87
   2  15  -6    9.29    0.75
  -2  15   6    9.63    1.13
  -2 -15   5    7.66    0.68
   2  15  -5    6.54    0.80
  -2  15   5    9.66    1.72
  -2 -15   5    8.82    0.86
  -2 -15   5    6.59    0.73
   2  15  -5    8.23    0.74
   2 -15  -5    7.52    0.77
  -2  15   5    7.40    1.14
  -2 -15   4  103.74    6.08
  -2  15   4  116.83    7.30
  -2 -15   4  113.39    6.31
   2  15  -4  127.86    6.17
  -2  15   4  124.79    6.71
   2 -15  -4  109.84    6.20
  -2  15   4  111.12    6.86
  -2  15   3    3.92    1.29
  -2 -15   3    3.34    0.63
  -2  15   3    1.45    1.54
  -2 -15   3    2.85    0.64
   2  15  -3    2.24    0.53
   2 -15  -3    1.00    0.92
  -2  15   3    0.98    0.81
   2 -15  -3    2.34    0.58
  -2  15   2    2.74    0.55
  -2  15   2    2.50    1.60
  -2 -15   2    2.48    0.69
  -2 -15   2    1.59    0.57
   2  15  -2    2.12    0.56
  -2  15   2    2.19    0.87
   2 -15  -2    1.88    0.58
   2 -15  -2    3.13    1.10
  -2 -15   2    2.54    0.70
  -2 -15   1   18.51    1.55
  -2  15   1   23.87    2.89
   2  15  -1   22.19    1.52
  -2  15   1   21.80    1.85
   2 -15  -1   20.84    1.60
   2 -15  -1   19.35    2.24
  -2 -15   1   19.40    1.70
  -2 -15   0    1.85    0.67
  -2  15   0    2.82    1.62
  -2 -15   0    1.99    0.99
   2 -15   0    2.48    0.61
  -2 -15   0    2.54    0.71
  -2 -15  -1    0.90    0.30
  -2 -15  -1    0.64    0.60
  -2  15  -1    1.39    1.51
   2  15   1    0.98    0.52
   2 -15   1    1.32    0.51
   2 -15   1    2.09    1.40
  -2 -15  -1    0.99    0.58
  -2  15  -2    0.58    1.52
  -2 -15  -2    1.03    0.58
  -2 -15  -2    1.23    0.33
   2  15   2    0.88    0.49
   2 -15   2    0.37    0.53
   2 -15   2    0.17    1.28
  -2 -15  -2    0.51    0.57
   2 -15   3    2.28    0.73
  -2  15  -3    2.85    0.61
  -2 -15  -3    1.98    0.57
  -2 -15  -3    1.20    0.33
  -2  15  -3    2.52    1.58
  -2 -15  -3    0.78    0.94
   2 -15   3    2.27    1.22
  -2 -15  -3    2.43    0.63
   2 -15   4   89.62    4.16
   2 -15   4   87.52    5.16
   2 -15   4   89.41    4.39
   2 -15   5   20.84    1.33
   2 -15   5   20.90    2.10
   2 -15   5   22.15    1.58
  -2  15  -6    4.91    0.52
  -2 -15  -6    4.40    0.55
  -2  16   6    0.30    0.35
  -2 -16   6   -0.15    0.27
   2  16  -6    0.05    0.22
  -2 -16   5    9.39    0.67
  -2 -16   5    9.95    0.84
   2  16  -5    8.36    0.82
  -2  16   5   11.58    1.53
  -2 -16   5   11.82    0.92
   2  16  -5   11.43    0.82
  -2  16   5   10.82    1.16
   2 -16  -5    9.68    0.83
  -2  16   4    7.11    0.74
  -2 -16   4    5.27    0.59
   2  16  -4    4.78    0.72
  -2  16   4    7.49    1.53
  -2 -16   4    5.83    0.72
   2  16  -4    8.11    0.71
   2 -16  -4    5.89    0.70
  -2  16   4    5.94    1.01
  -2  16   3    1.90    0.94
  -2  16   3    1.41    0.43
  -2 -16   3    1.60    0.53
   2  16  -3    1.77    0.49
  -2  16   3    0.68    0.72
   2 -16  -3    0.45    0.42
  -2  16   2    0.12    0.98
  -2 -16   2    0.23    0.45
  -2  16   2   -0.82    1.48
  -2 -16   2   -0.35    0.47
   2 -16  -2    1.26    0.82
   2  16  -2    0.22    0.43
  -2  16   2   -0.50    0.74
   2 -16  -2    0.27    0.43
   2 -16  -2    0.20    0.79
  -2 -16   2    0.13    0.48
  -2  16   1    3.86    1.30
  -2 -16   1    4.35    0.70
   2  16  -1    4.77    0.66
  -2  16   1    4.95    0.94
  -2  16   1    5.86    1.70
   2 -16  -1    5.44    0.74
   2 -16  -1    6.17    1.28
  -2 -16   1    4.38    0.77
  -2 -16   0   12.42    1.16
  -2  16   0   15.04    2.23
  -2  16   0   15.14    1.36
   2 -16   0   15.09    1.22
   2 -16   0   14.30    1.87
  -2 -16   0   11.70    1.22
  -2 -16  -1    0.64    0.54
   2  16   1    0.41    0.43
  -2 -16  -1   -0.80    0.88
   2 -16   1    0.06    0.45
  -2  16  -1    0.17    1.40
   2 -16   1    0.44    1.08
  -2 -16  -1    1.03    0.54
   2 -16   2    4.29    0.75
  -2  16  -2    7.25    0.82
  -2 -16  -2    5.62    0.74
  -2  16  -2    4.08    1.55
   2  16   2    5.73    0.69
   2 -16   2    6.04    0.72
   2 -16   2    8.02    1.45
  -2 -16  -2    4.23    0.73
   2 -16   3    0.76    0.53
  -2 -16  -3    0.94    0.41
  -2  16  -3    0.15    1.19
   2 -16   3    0.93    0.97
  -2 -16  -3    0.60    0.45
   2 -16   4    3.97    0.62
   2 -16   4    3.91    0.47
   2 -16   4    2.52    0.98
  -2 -16  -4    3.62    0.57
   2 -16   5    2.69    0.47
  -2 -16  -5    2.67    0.43
  -2  17   4    8.11    0.61
  -2 -17   4    7.35    0.56
   2  17  -4    4.80    0.65
  -2  17   4    7.67    1.33
  -2 -17   4    8.62    0.73
   2  17  -4    8.95    0.70
  -2  17   4    8.14    0.98
   2 -17  -4    7.46    0.68
  -2 -17   3    6.68    0.70
   2  17  -3    5.22    0.61
   2 -17  -3    6.13    0.64
  -2  17   3    5.37    0.85
  -2  17   3    5.85    1.32
  -2 -17   2    0.62    0.40
  -2  17   2    0.26    1.17
  -2 -17   2    0.09    0.36
   2  17  -2    0.23    0.37
  -2  17   2    0.07    0.57
   2 -17  -2    0.39    0.39
  -2  17   1    0.97    0.87
  -2 -17   1    0.61    0.43
  -2  17   1   -0.28    1.15
  -2 -17   1    0.51    0.44
   2 -17  -1    0.89    0.71
   2  17  -1    0.40    0.37
   2 -17  -1    0.73    0.41
   2 -17  -1   -0.09    0.72
  -2 -17   1    1.29    0.48
  -2 -17   0   15.73    1.19
  -2  17   0   16.78    2.05
  -2 -17   0   14.93    1.18
   2  17   0   14.18    1.17
   2 -17   0   16.69    1.23
   2 -17   0   16.76    1.71
  -2 -17   0   16.65    1.28
  -2  17   0   18.72    1.80
  -2  17  -1    4.25    0.64
  -2 -17  -1    5.63    0.66
   2 -17   1    6.17    0.67
   2  17   1    5.26    0.65
  -2 -17  -1    5.63    0.71
  -2 -17  -2    1.31    0.42
  -2  17  -2    1.27    1.11
   2 -17   2    0.99    0.38
   2 -17   2    1.51    0.85
  -2 -17  -2    0.64    0.38
  -2 -17  -3    0.40    0.32
   2 -17   3    0.68    0.76
  -2 -17  -3    0.16    0.34
  -2 -18   2   15.81    1.04
  -2 -18   2   15.81    1.11
   2 -18  -2   17.51    1.12
  -2  18   2   16.87    1.69
  -2 -18   1   23.95    1.44
  -2  18   1   22.19    2.09
  -2 -18   1   22.77    1.48
   2 -18  -1   24.35    1.50
  -2 -18   0    0.41    0.33
  -2  18   0    0.30    0.94
  -2 -18   0    0.03    0.27
   2 -18   0   -0.19    0.30
  -2 -18   0   -0.14    0.33
  -2 -18  -1   14.72    1.01
  -2  18  -1   14.99    1.64
   2 -18   1   15.77    1.04
  -2 -18  -1   13.93    1.05
   3   0 -11    0.18    0.29
  -3   0  11    0.64    0.44
  -3   0  10    0.57    0.53
   3   0 -10    0.68    0.46
  -3   0  10    0.64    0.62
  -3   0   9    0.08    0.57
   3   0  -9    0.06    0.46
  -3   0   9   -0.69    0.75
   3   0  -8   69.74    4.00
  -3   0   8   59.81    4.93
  -3   0   8   73.48    4.28
   3   0  -8   71.47    4.10
  -3   0   8   71.52    4.29
   3   0  -8   70.33    3.91
   3   0  -7   -0.16    0.41
  -3   0   7   -0.06    0.48
  -3   0   7    0.04    0.60
  -3   0   7    0.38    0.56
  -3   0   7    1.01    1.25
   3   0  -7   -0.06    0.44
  -3   0   7    0.32    0.62
   3   0  -7   -0.25    0.38
   3   0  -6   -0.05    0.39
  -3   0   6   -0.07    0.52
  -3   0   6    0.14    0.54
  -3   0   6   -0.59    1.06
  -3   0   6    0.22    0.51
  -3   0   6   -0.44    0.63
   3   0  -6    0.16    0.63
   3   0  -6   -0.08    0.31
   3   0  -5   -0.04    0.30
   3   0  -5   -0.35    0.45
  -3   0   5    0.25    0.45
  -3   0   5    0.06    0.48
  -3   0   5    0.73    1.00
  -3   0   5   -0.13    0.52
   3   0  -5   -0.23    0.71
  -3   0   4  326.36   18.06
  -3   0   4  363.22   17.91
  -3   0   4  403.35   17.91
  -3   0   4  304.88   18.30
  -3   0   4  338.01   18.07
   3   0  -4  347.43   17.85
  -3   0   4  284.75   18.71
   3   0  -3   -0.08    0.34
   3   0  -3    0.13    0.36
  -3   0   3   -0.12    0.47
  -3   0   3   -0.49    0.65
  -3   0   3   -0.05    0.55
   3   0  -2   -0.08    0.33
  -3   0   2    0.56    0.97
   3   0  -2   -0.04    0.30
  -3   0   1    1.12    0.83
   3   0  -1    5.22    1.21
  -3   0   0   72.85    5.12
  -3   0   0   85.53    5.24
   3   0   1    0.92    0.55
  -3   0  -1    0.73    0.74
  -3   0  -1   -0.13    1.10
  -3   0  -2   17.58    1.48
  -3   0  -2   15.32    1.67
  -3   0  -2   14.73    2.07
  -3   0  -3   -0.08    0.37
  -3   0  -3   -0.25    0.57
  -3   0  -3   -0.08    0.62
  -3   0  -3    0.57    0.48
  -3   0  -3    0.07    0.52
  -3   0  -3   -0.21    0.57
  -3   0  -3    0.10    0.88
  -3   0  -3   -0.49    1.20
  -3   0  -4   91.77    4.33
  -3   0  -4   75.76    4.48
   3   0   4   75.42    4.35
  -3   0  -4   76.52    4.58
  -3   0  -4   74.62    4.70
  -3   0  -4   71.14    4.56
  -3   0  -4   68.21    5.34
  -3   0  -5    0.95    0.83
   3   0   5   -0.20    0.52
  -3   0  -5   -0.57    0.64
  -3   0  -5    0.23    0.67
   3   0   5    0.30    0.92
  -3   0  -5    0.16    0.76
  -3   0  -5   -0.20    1.58
   3   0   6   15.25    1.29
  -3   0  -6   17.91    1.55
  -3   0  -6   14.27    1.68
  -3   0  -6   14.99    1.52
   3   0   6   19.26    1.97
   3   0   6   16.19    2.05
  -3   0  -6   13.78    2.40
  -3   0  -7    0.76    0.72
  -3   0  -7   -0.08    0.64
  -3   0  -7    0.28    0.61
  -3   0  -7    0.37    0.79
  -3   0  -8   36.12    2.45
  -3   0  -8   34.69    2.28
  -3   0  -8   36.03    2.54
   3   0   9   -1.23    0.91
  -3   0  -9   -0.36    0.56
   3   0  10    8.08    0.99
  -3   0 -10    6.17    0.70
   3  -1 -11    0.75    0.31
   3   1 -11    1.14    0.34
  -3  -1  11    0.72    0.47
  -3   1  11    0.95    0.48
  -3  -1  10    1.85    0.61
   3  -1 -10    1.59    0.51
   3   1 -10    1.78    0.52
  -3  -1  10    2.40    0.71
  -3   1  10    1.08    0.66
  -3   1   9   29.82    2.23
  -3  -1   9   34.02    2.32
   3  -1  -9   32.38    2.11
   3   1  -9   33.57    2.14
  -3  -1   9   30.78    2.27
  -3   1   9   28.91    2.25
  -3   1   8  109.90    6.68
   3  -1  -8  125.57    6.63
   3   1  -8  126.75    6.70
  -3   1   8  108.76    7.64
  -3  -1   8   98.80    7.60
  -3   1   8  136.10    6.98
  -3  -1   8  141.69    7.00
   3  -1  -8  129.51    6.74
   3   1  -8  125.90    6.76
  -3  -1   8  119.15    6.92
  -3   1   8  125.48    6.95
   3  -1  -8  107.94    6.96
   3  -1  -8  122.28    6.53
   3   1  -8  126.30    6.59
  -3  -1   7   97.07    5.94
  -3   1   7   98.53    6.04
   3  -1  -7  113.73    5.92
   3   1  -7  112.10    5.99
  -3   1   7   97.47    6.79
  -3  -1   7   96.84    6.85
  -3   1   7  118.23    6.22
  -3  -1   7  110.42    6.17
  -3  -1   7  108.89    6.19
  -3   1   7  113.61    6.21
   3  -1  -7  120.23    6.41
   3  -1  -7  113.35    5.80
   3   1  -7  105.02    5.85
   3  -1  -6    0.62    0.42
   3   1  -6    0.11    0.47
  -3  -1   6    0.55    0.52
  -3   1   6   -0.14    0.55
  -3  -1   6    0.54    0.49
  -3   1   6    0.62    0.55
  -3   1   6    0.97    1.10
  -3   1   6    1.00    0.55
  -3  -1   6    0.77    0.58
  -3  -1   6    0.61    1.16
  -3  -1   6    0.22    0.57
  -3   1   6    0.15    0.58
   3  -1  -6    2.00    0.84
   3  -1  -6    0.58    0.31
   3   1  -6    0.54    0.36
   3   1  -5    4.55    0.61
  -3   1   5    3.68    1.68
   3   1  -5    5.50    0.71
  -3  -1   5    3.26    0.66
  -3   1   5    3.75    0.74
  -3  -1   5    5.40    0.71
  -3   1   5    5.03    0.69
  -3   1   5    3.55    1.09
  -3   1   5    2.91    0.66
  -3  -1   5    5.45    0.75
  -3  -1   5    2.54    1.11
  -3  -1   5    3.38    0.72
  -3   1   5    4.92    0.82
   3  -1  -5    4.76    0.49
  -3   1   4   18.63    1.18
  -3   1   4   14.93    2.09
  -3   1   4   12.29    1.23
   3  -1  -4   13.71    1.08
   3   1  -4   14.23    1.22
  -3   1   4   12.13    1.42
  -3  -1   4   12.60    1.52
  -3  -1   4   14.64    1.14
  -3   1   4   14.75    1.24
  -3  -1   4   12.70    1.17
  -3  -1   4   15.68    1.27
  -3   1   4   14.19    1.25
  -3  -1   4   17.37    1.13
   3  -1  -4   13.38    0.97
   3   1  -4   15.54    1.16
  -3  -1   3  283.52   15.73
  -3   1   3  297.87   15.78
   3  -1  -3  305.11   15.56
  -3   1   3  271.03   15.78
  -3  -1   3  255.92   15.80
  -3   1   3  356.68   15.62
  -3  -1   3  313.45   15.61
  -3  -1   3  312.35   15.73
   3  -1  -3  314.48   15.48
   3   1  -3  324.04   15.74
  -3  -1   3  232.51   16.18
   3  -1  -2  105.09    5.27
  -3   1   2   92.62    5.94
   3  -1  -2   99.48    5.21
  -3  -1   2   82.77    5.86
   3   1  -2  101.00    5.50
   3  -1  -1  225.14   11.31
  -3   1   1  243.39   12.10
  -3  -1   1  206.19   11.87
   3  -1  -1  215.91   11.33
   3  -1   0   75.89    3.65
  -3  -1   0   56.82    4.37
  -3   1   0   51.48    4.17
  -3   1   0   67.34    4.32
   3  -1   1   11.94    1.13
  -3   1  -1   11.32    1.39
  -3   1  -1   12.72    1.32
  -3   1  -1   11.83    1.74
  -3  -1  -2   87.52    4.60
   3   1   2   81.01    4.58
   3  -1   2   86.43    4.67
  -3   1  -2   79.78    4.84
  -3  -1  -2   85.69    4.74
  -3   1  -2   77.34    4.70
  -3  -1  -2   81.01    4.73
  -3   1  -2   84.32    4.77
  -3  -1  -2   76.22    5.38
  -3   1  -2   78.09    5.47
  -3   1  -2   84.33    5.14
  -3  -1  -3    3.09    0.54
  -3   1  -3    3.91    0.57
  -3   1  -3    4.35    0.83
   3   1   3    2.97    0.58
  -3  -1  -3    2.97    0.81
  -3  -1  -3    3.69    0.69
  -3   1  -3    5.17    0.92
   3  -1   3    3.29    0.66
  -3  -1  -3    3.26    0.77
  -3   1  -3    4.35    0.80
  -3  -1  -3    2.57    0.76
  -3   1  -3    3.30    0.76
  -3   1  -3    4.33    1.19
  -3  -1  -3    4.66    0.97
  -3  -1  -3    2.75    1.31
  -3   1  -3    4.54    1.45
  -3   1  -4    0.70    0.81
  -3  -1  -4   -0.11    0.40
  -3   1  -4    0.47    0.66
   3   1   4   -0.22    0.43
  -3   1  -4   -0.05    0.52
  -3  -1  -4   -0.31    0.71
  -3   1  -4    0.42    0.50
  -3  -1  -4   -0.14    0.62
  -3   1  -4    0.22    0.66
   3  -1   4   -0.08    0.79
  -3  -1  -4   -0.15    0.63
  -3   1  -4    1.56    0.72
  -3  -1  -4    0.52    0.71
  -3  -1  -4    0.54    1.27
  -3   1  -4    2.23    1.46
  -3   1  -5  186.62   10.15
   3   1   5  176.66    9.68
   3  -1   5  185.89    9.74
  -3   1  -5  188.48    9.93
  -3  -1  -5  206.61   10.07
  -3   1  -5  202.65   10.03
   3  -1   5  199.59   10.27
  -3  -1  -5  178.95    9.98
  -3   1  -5  182.12    9.97
  -3  -1  -5  177.52   10.12
  -3  -1  -5  177.13    9.90
  -3  -1  -5  169.57   10.95
  -3   1  -5  153.84   10.83
  -3   1  -6  412.01   21.76
   3   1   6  417.97   21.31
   3  -1   6  416.88   21.35
  -3   1  -6  425.70   21.58
  -3  -1  -6  428.08   21.61
  -3   1  -6  422.49   21.58
  -3  -1  -6  418.43   21.58
   3  -1   6  413.22   21.94
  -3  -1  -6  398.43   21.75
  -3  -1  -6  366.58   22.57
  -3   1  -6  354.05   22.52
  -3  -1  -6  451.17   21.83
  -3  -1  -7    1.68    0.74
  -3   1  -7    2.93    0.80
  -3   1  -7    2.16    0.84
   3  -1   7    3.05    1.18
  -3  -1  -7    2.48    0.74
  -3   1  -7    2.32    0.74
  -3  -1  -7    1.82    0.90
  -3   1  -8    2.52    0.72
   3  -1   8    4.37    1.35
  -3  -1  -8    2.33    0.62
  -3   1  -8    1.86    0.57
  -3  -1  -8    3.40    0.83
  -3   1  -8    3.74    0.90
   3   1   9   -0.09    0.91
   3  -1   9    0.11    1.01
  -3  -1  -9    0.95    0.61
  -3   1  -9    0.96    0.59
   3  -1  10    3.11    0.77
  -3  -1 -10    2.26    0.49
  -3   1 -10    2.99    0.51
   3  -2 -11    5.02    0.48
   3   2 -11    4.27    0.51
  -3  -2  11    6.27    0.70
  -3   2  11    7.43    0.76
  -3  -2  10   54.29    3.17
   3  -2 -10   49.87    2.94
   3   2 -10   48.97    2.96
  -3  -2  10   51.13    3.12
  -3   2  10   50.96    3.12
  -3  -2   9   30.68    2.11
   3  -2  -9   29.35    1.91
   3   2  -9   26.64    1.90
  -3  -2   9   29.40    2.07
  -3   2   9   25.13    2.02
   3  -2  -9   23.83    2.13
   3  -2  -8    6.17    0.72
   3   2  -8    7.21    0.80
  -3   2   8    5.74    0.81
  -3  -2   8    7.96    0.83
  -3   2   8    6.99    0.93
  -3   2   8    3.69    1.39
  -3  -2   8    6.02    0.91
   3  -2  -8    6.86    0.82
  -3  -2   8    5.97    1.67
  -3  -2   8    6.51    1.00
  -3   2   8    6.75    0.99
   3  -2  -8    5.52    1.12
   3  -2  -8    5.31    0.61
   3   2  -8    6.03    0.70
   3  -2  -7    0.59    0.41
   3   2  -7    1.09    0.54
  -3  -2   7    1.13    0.46
  -3   2   7    1.08    0.61
  -3   2   7    0.32    1.39
  -3   2   7    0.62    0.62
  -3  -2   7    1.61    0.64
  -3  -2   7    1.09    1.33
  -3  -2   7    1.49    0.72
  -3   2   7    1.18    0.66
   3  -2  -7    0.73    0.83
   3  -2  -7    1.14    0.34
   3   2  -7    1.49    0.46
  -3  -2   6   42.73    2.78
   3   2  -6   48.16    2.88
  -3   2   6   40.90    3.36
  -3  -2   6   37.97    3.48
  -3  -2   6   50.86    2.76
  -3   2   6   49.63    2.98
  -3  -2   6   46.07    2.90
  -3  -2   6   45.51    2.94
  -3   2   6   44.45    2.93
   3  -2  -6   49.73    3.27
   3  -2  -6   45.69    2.55
   3   2  -6   43.61    2.71
  -3   2   5   10.76    1.98
  -3  -2   5   14.56    1.23
  -3   2   5   13.16    1.27
   3   2  -5   14.86    1.26
  -3   2   5   13.89    1.64
  -3   2   5   16.26    1.18
  -3   2   5   13.17    1.24
  -3  -2   5   15.17    1.16
  -3  -2   5   13.33    1.83
  -3  -2   5   15.21    1.31
  -3   2   5   10.36    1.19
  -3  -2   5   16.57    1.16
   3  -2  -5   13.26    0.93
   3   2  -5   13.46    1.16
  -3   2   4  243.00   13.55
   3  -2  -4  250.75   13.28
   3   2  -4  281.36   13.60
  -3   2   4  233.09   13.67
  -3  -2   4  207.01   13.76
  -3  -2   4  263.72   13.43
  -3  -2   4  268.94   13.39
  -3  -2   4  276.27   13.51
  -3   2   4  314.57   13.41
  -3  -2   4  250.36   13.50
   3  -2  -4  245.21   13.14
  -3   2   4  237.47   14.31
   3   2  -4  268.70   13.51
   3   2  -3   16.35    1.53
  -3  -2   3   19.34    1.51
  -3   2   3   21.96    1.62
   3  -2  -3   21.20    1.31
  -3   2   3   21.46    1.62
  -3  -2   3   20.16    1.42
  -3   2   3   26.76    1.47
  -3  -2   3   21.06    1.53
  -3   2   3   17.64    2.13
   3  -2  -3   19.81    1.19
   3   2  -3   21.85    1.60
  -3  -2   3   15.59    2.03
   3  -2  -2  341.31   17.34
   3  -2  -1   37.29    1.97
  -3   2   1   41.66    2.91
  -3   2   0   45.29    2.96
  -3  -2   0   53.54    3.60
  -3   2   0   53.65    3.58
  -3   2  -1    2.29    0.44
   3  -2   1    2.72    0.67
  -3   2  -1    3.75    0.71
   3   2   1    2.40    0.56
  -3   2  -1    2.33    0.98
  -3   2  -1    2.37    0.89
  -3  -2  -2    0.83    0.67
   3  -2   2    2.69    0.72
  -3  -2  -2    1.78    0.57
  -3   2  -2    1.36    0.69
  -3  -2  -2    1.70    0.57
  -3   2  -2    1.97    0.63
   3   2   2    2.00    0.52
  -3  -2  -2    2.31    0.69
  -3   2  -2    1.03    0.98
  -3  -2  -2    2.52    0.73
  -3  -2  -2    3.16    1.33
  -3   2  -2    3.47    1.50
  -3  -2  -3   34.45    2.00
  -3   2  -3   32.31    1.93
   3   2   3   32.30    1.95
   3  -2   3   34.53    2.10
  -3   2  -3   27.78    2.25
  -3  -2  -3   28.01    2.20
  -3  -2  -3   31.34    2.14
  -3  -2  -3   29.35    2.14
  -3   2  -3   29.90    2.16
   3  -2   3   30.07    2.16
  -3  -2  -3   28.41    2.16
  -3   2  -3   29.84    2.17
  -3  -2  -3   31.74    2.95
  -3   2  -3   28.16    2.92
  -3   2  -3   29.81    2.63
  -3  -2  -4   21.45    1.32
   3   2   4   14.97    1.17
   3  -2   4   17.97    1.34
  -3   2  -4   13.28    1.50
  -3  -2  -4   15.81    1.55
  -3   2  -4   18.21    1.38
  -3  -2  -4   17.63    1.52
  -3   2  -4   14.83    1.40
  -3  -2  -4   14.47    1.39
   3  -2   4   15.42    1.55
  -3   2  -4   17.00    1.58
  -3  -2  -4   14.96    1.45
  -3   2  -4   13.79    1.42
  -3  -2  -4   16.80    1.56
  -3  -2  -4   17.83    2.24
  -3   2  -4   16.06    2.33
  -3  -2  -5    1.72    0.85
   3   2   5    2.96    0.52
   3  -2   5    2.60    0.65
  -3  -2  -5    2.13    0.75
  -3   2  -5    2.26    0.70
  -3  -2  -5    2.43    0.80
  -3   2  -5    2.16    0.72
   3  -2   5    2.07    0.97
  -3  -2  -5    2.07    0.79
  -3   2  -5    2.31    0.77
  -3   2  -5    2.28    0.90
  -3  -2  -5    2.11    0.95
  -3  -2  -5    1.77    1.36
   3   2   5    2.44    1.20
  -3   2  -5    1.22    1.44
  -3   2  -6    0.19    0.79
  -3  -2  -6    0.94    0.71
  -3   2  -6    0.89    0.72
  -3  -2  -6   -0.08    0.74
   3   2   6   -0.47    0.99
   3  -2   6    0.70    1.14
  -3  -2  -6    0.48    0.66
  -3   2  -6   -0.07    0.69
  -3  -2  -6    0.28    0.81
  -3  -2  -6   -0.21    1.53
  -3   2  -6    1.48    1.30
  -3   2  -7   78.17    4.87
  -3  -2  -7   77.32    4.71
  -3   2  -7   78.97    4.63
   3   2   7   93.16    5.38
   3  -2   7   81.57    5.20
  -3   2  -7   74.67    4.59
  -3   2  -7   80.93    4.71
  -3  -2  -7   81.26    4.86
  -3   2  -8    0.55    0.71
  -3   2  -8    1.16    0.62
   3   2   8    2.99    1.25
   3  -2   8    1.38    1.18
  -3  -2  -8    1.65    0.55
  -3   2  -8    1.89    0.52
  -3  -2  -8    1.01    0.77
  -3   2  -8    1.42    0.76
   3   2   9    0.22    1.00
   3  -2   9    1.36    0.98
  -3  -2  -9    0.23    0.56
  -3   2  -9    1.12    0.62
  -3  -3  11    1.38    0.47
   3   3 -11    1.44    0.32
  -3  -3  11    1.57    0.44
  -3   3  11    1.96    0.46
  -3  -3  10   12.74    1.19
   3  -3 -10   12.75    1.00
   3   3 -10   12.48    1.04
  -3  -3  10   13.81    1.18
  -3   3  10   11.39    1.13
  -3  -3   9    0.15    0.58
   3  -3  -9    0.81    0.50
  -3  -3   9    1.19    0.68
  -3   3   9    1.35    0.69
   3  -3  -9    0.60    0.80
   3  -3  -8   17.65    1.28
  -3   3   8   17.40    1.48
   3   3  -8   16.73    1.36
  -3  -3   8   21.59    1.36
  -3  -3   8   17.16    1.56
  -3   3   8   14.95    2.11
   3  -3  -8   19.38    1.40
  -3  -3   8   13.13    2.23
  -3  -3   8   17.16    1.55
  -3   3   8   16.44    1.53
   3  -3  -8   15.98    1.79
   3   3  -8   17.12    1.30
  -3  -3   7   73.93    4.53
   3   3  -7   90.23    4.80
  -3   3   7   72.50    5.37
  -3  -3   7   69.33    5.60
  -3  -3   7   89.42    4.91
  -3   3   7   74.18    5.15
  -3  -3   7   89.10    4.91
  -3   3   7   88.73    4.92
  -3  -3   7   91.51    4.87
   3  -3  -7   95.06    5.30
  -3   3   7   68.04    6.05
  -3   3   6    7.68    2.09
  -3  -3   6    8.85    0.91
  -3   3   6   10.42    1.13
   3   3  -6   10.96    1.08
  -3  -3   6   10.31    0.96
  -3   3   6    9.06    1.46
  -3  -3   6    9.64    1.07
  -3  -3   6    7.86    1.72
  -3   3   6    9.04    1.33
  -3  -3   6    9.17    1.10
   3  -3  -6   13.15    1.47
  -3  -3   6    8.76    1.00
   3  -3  -6    9.40    0.72
  -3   3   5    5.62    1.72
   3  -3  -5    5.78    0.60
   3   3  -5    7.54    0.93
  -3  -3   5    4.88    0.71
  -3   3   5    4.97    1.10
  -3  -3   5    5.94    0.76
  -3  -3   5    4.00    1.24
  -3   3   5    5.10    1.09
  -3  -3   5    7.77    0.94
  -3  -3   4   19.48    1.53
  -3   3   4   20.61    1.66
   3  -3  -4   20.03    1.36
   3   3  -4   22.19    1.72
  -3   3   4   18.66    1.76
  -3  -3   4   21.62    1.52
  -3  -3   4   22.22    1.55
  -3  -3   4   21.56    1.54
  -3  -3   4   22.00    1.58
  -3  -3   4   21.71    1.62
  -3   3   4   22.20    1.61
  -3   3   4   19.49    1.95
  -3   3   4   21.22    2.43
   3   3  -3   32.31    2.37
  -3   3   3   32.85    2.34
   3  -3  -3   36.21    2.04
  -3   3   3   32.73    2.33
  -3  -3   3   34.73    2.23
  -3  -3   3   36.71    2.24
  -3  -3   3   37.73    2.32
  -3   3   3   34.46    2.25
  -3   3   3   35.80    2.50
  -3   3   3   30.06    2.55
  -3   3   3   35.25    3.10
   3   3  -3   34.77    2.45
  -3   3   2   12.15    1.72
  -3  -3   2   10.47    0.99
  -3   3   2   10.55    1.03
   3  -3  -2   10.10    0.71
  -3  -3   2   11.14    0.99
  -3   3   2   10.57    1.26
   3  -3  -1    5.02    0.38
  -3   3   1    4.79    0.84
  -3  -3   1    5.57    0.96
  -3  -3   0    4.75    0.67
  -3   3   0    4.84    0.72
  -3   3   0    5.73    1.20
  -3  -3   0    4.76    1.10
  -3   3   0    7.98    1.31
  -3  -3  -1   12.48    1.03
  -3   3  -1    9.64    0.99
   3   3   1   11.78    0.99
   3  -3   1   13.49    1.18
  -3   3  -1   12.86    1.16
  -3  -3  -1   13.75    1.17
  -3   3  -1    9.80    1.54
  -3  -3  -1   12.49    1.66
  -3  -3  -2   23.97    1.55
  -3   3  -2   19.84    1.53
  -3  -3  -2   18.81    1.66
   3   3   2   22.74    1.45
   3  -3   2   23.28    1.66
  -3   3  -2   23.49    1.80
  -3  -3  -2   20.87    1.63
  -3   3  -2   19.68    1.64
  -3  -3  -2   19.86    1.63
  -3   3  -2   23.66    2.23
  -3  -3  -2   22.52    1.71
  -3   3  -3   12.61    1.14
  -3  -3  -3   15.42    1.15
   3   3   3   13.42    1.02
   3  -3   3   13.44    1.19
  -3   3  -3   13.86    1.42
  -3  -3  -3   12.75    1.37
  -3  -3  -3   13.88    1.28
  -3   3  -3   14.08    1.29
  -3  -3  -3   13.92    1.32
  -3   3  -3   12.66    1.86
  -3  -3  -3   13.30    1.91
  -3   3  -3   13.83    2.08
  -3   3  -4   48.04    3.28
   3   3   4   55.96    3.10
   3  -3   4   61.36    3.32
  -3   3  -4   53.81    3.62
  -3  -3  -4   51.52    3.54
  -3   3  -4   56.92    3.32
  -3  -3  -4   57.64    3.49
  -3   3  -4   62.34    3.49
   3  -3   4   49.16    3.46
  -3  -3  -4   55.58    3.48
  -3   3  -4   51.42    3.40
  -3  -3  -4   45.29    4.14
  -3   3  -4   45.09    4.17
  -3  -3  -4   61.18    3.60
   3   3   4   52.77    4.09
   3  -3   4   58.54    3.48
  -3   3  -5   40.91    2.87
   3  -3   5   42.56    2.54
  -3   3  -5   35.49    2.83
  -3   3  -5   40.07    2.61
  -3  -3  -5   39.39    2.73
   3  -3   5   37.64    2.89
  -3  -3  -5   41.43    2.75
  -3  -3  -5   36.35    3.55
  -3   3  -5   34.30    3.53
  -3  -3  -5   37.80    2.81
   3   3   5   34.94    3.27
   3  -3   5   43.62    2.72
  -3   3  -6   19.61    1.67
   3  -3   6   19.67    1.53
  -3   3  -6   20.17    1.66
  -3   3  -6   22.24    1.95
   3   3   6   28.56    2.34
  -3  -3  -6   17.73    1.70
   3  -3   6   20.18    2.06
  -3   3  -6   20.07    1.68
  -3  -3  -6   22.35    1.89
   3   3   6   19.58    2.22
  -3  -3  -6   17.60    2.50
   3  -3   6   21.65    1.69
  -3   3  -6   18.58    2.53
   3  -3   7    0.06    0.51
  -3   3  -7    0.09    0.70
  -3   3  -7    0.07    0.58
  -3   3  -7   -0.06    0.53
   3   3   7    0.25    1.14
   3  -3   7    0.50    1.09
  -3   3  -7    0.63    0.55
  -3  -3  -7    0.36    0.78
  -3   3  -8    2.06    0.75
   3   3   8    2.76    0.93
   3   3   8    2.32    1.17
   3  -3   8    2.25    1.16
  -3  -3  -8    1.15    0.56
  -3   3  -8    1.71    0.52
   3  -3   8    2.13    1.01
  -3  -3  -8    0.76    0.66
   3   3   9   23.00    1.86
   3   3   9   20.62    2.14
   3  -3   9   24.74    2.04
  -3  -3  -9   18.13    1.59
  -3   3  -9   26.65    1.73
  -3  -4  11    5.68    0.64
   3   4 -11    3.95    0.43
  -3  -4  11    5.40    0.57
  -3  -4  10    8.67    0.93
   3  -4 -10    8.05    0.73
   3   4 -10    7.29    0.76
  -3  -4  10    7.98    0.87
   3  -4 -10    7.15    1.04
  -3  -4   9    3.15    0.73
   3  -4  -9    2.49    0.54
  -3  -4   9    2.46    0.68
   3  -4  -9    3.12    0.99
  -3   4   8   25.46    1.93
   3   4  -8   24.39    1.79
  -3  -4   8   26.73    1.99
   3  -4  -8   23.65    1.75
  -3  -4   8   29.87    1.71
  -3  -4   8   22.83    1.89
   3  -4  -8   25.66    2.29
   3   4  -7   41.90    2.69
  -3   4   7   33.40    3.16
  -3  -4   7   44.82    2.74
  -3  -4   7   40.82    2.76
  -3   4   7   38.73    3.10
  -3  -4   7   42.18    2.74
   3  -4  -7   42.82    3.14
  -3  -4   6    1.24    0.56
  -3   4   6    0.87    1.74
   3  -4  -6    0.80    0.36
  -3  -4   6    0.86    0.43
   3   4  -6    1.22    0.60
  -3   4   6    1.35    0.69
  -3  -4   6    0.80    0.54
  -3  -4   6    1.21    0.58
  -3   4   6    1.57    0.94
  -3  -4   6    0.85    0.66
  -3   4   6    0.68    0.54
  -3   4   6    1.03    1.01
  -3   4   5    5.69    1.70
  -3  -4   5    7.18    0.80
   3  -4  -5    6.89    0.67
   3   4  -5    7.42    0.99
  -3   4   5    7.01    0.97
  -3  -4   5   10.22    0.88
  -3  -4   5    8.34    0.88
  -3  -4   5    7.61    0.90
  -3   4   5    5.82    1.25
  -3  -4   5    8.85    1.00
  -3   4   5    6.71    0.88
  -3   4   5    7.38    1.31
  -3   4   5    7.50    1.25
  -3  -4   4   62.32    3.66
   3  -4  -4   63.84    3.45
  -3   4   4   66.34    3.85
  -3   4   4   62.11    3.92
  -3  -4   4   65.52    3.65
  -3  -4   4   64.80    3.66
  -3  -4   4   61.27    3.65
  -3  -4   4   66.92    3.71
  -3   4   4   60.52    4.13
  -3  -4   4   62.91    3.73
  -3   4   4   64.64    3.69
  -3   4   4   51.93    4.01
  -3   4   4   66.26    4.74
   3   4  -3   34.35    2.46
  -3  -4   3   33.88    2.28
   3  -4  -3   37.85    2.08
  -3   4   3   34.83    2.43
  -3   4   3   37.69    2.44
  -3   4   3   32.93    2.74
  -3  -4   3   33.16    2.27
  -3  -4   3   39.21    2.37
  -3   4   3   39.90    2.34
  -3   4   3   46.75    2.76
  -3   4   3   36.09    2.71
  -3   4   3   43.37    3.32
  -3   4   2    1.78    1.03
   3   4  -2    0.79    0.61
  -3  -4   2    1.62    0.51
   3  -4  -2    1.26    0.24
  -3  -4   2    2.33    0.54
  -3   4   2    2.41    0.60
  -3  -4   2    2.13    0.55
  -3  -4   2    1.58    0.48
  -3   4   2    1.57    0.66
   3  -4  -2    1.12    0.63
  -3  -4   1    0.20    0.41
  -3   4   1   -0.23    0.53
  -3  -4   1    0.44    0.42
  -3   4   1    0.16    0.60
  -3  -4   1   -0.11    0.45
  -3   4   1    0.29    0.62
  -3  -4   1    0.31    0.61
  -3  -4   0   31.91    2.14
  -3   4   0   30.19    2.24
   3   4   0   32.17    2.07
   3  -4   0   35.87    2.34
  -3  -4   0   32.40    2.20
  -3   4   0   37.85    2.50
  -3  -4   0   34.69    2.65
  -3   4   0   30.66    2.22
  -3  -4  -1   55.04    3.07
  -3   4  -1   47.10    3.10
   3   4   1   48.02    2.89
   3  -4   1   54.48    3.19
  -3  -4  -1   55.12    3.19
  -3  -4  -1   53.01    3.10
  -3   4  -1   50.16    3.17
  -3  -4  -1   53.00    3.76
  -3  -4  -2   75.05    3.62
  -3   4  -2   59.77    3.67
   3   4   2   57.95    3.36
   3  -4   2   70.59    3.72
  -3   4  -2   64.39    3.89
  -3  -4  -2   65.61    3.71
  -3   4  -2   63.46    3.72
  -3  -4  -2   62.36    3.72
   3  -4   2   47.59    3.55
  -3  -4  -2   53.41    4.26
  -3  -4  -2   61.61    3.75
  -3   4  -3   22.83    1.77
   3   4   3   22.19    1.45
   3  -4   3   25.00    1.76
  -3   4  -3   24.47    1.99
  -3  -4  -3   28.58    1.89
  -3  -4  -3   24.68    1.82
  -3   4  -3   25.87    1.85
  -3  -4  -3   22.60    1.81
   3  -4   3   19.53    1.80
  -3  -4  -3   24.97    1.94
  -3  -4  -3   20.38    2.49
   3   4   3   24.78    2.37
   3  -4   4    3.20    0.82
   3  -4   4    3.31    0.68
  -3   4  -4    3.49    0.70
  -3  -4  -4    3.44    0.82
  -3   4  -4    2.87    0.86
  -3  -4  -4    4.00    0.84
  -3   4  -4    3.01    0.74
  -3  -4  -4    2.61    0.73
   3  -4   4    3.25    0.85
  -3  -4  -4    2.70    0.86
  -3  -4  -4    3.29    1.35
   3   4   4    3.57    1.23
   3  -4   5    0.42    0.69
  -3   4  -5    0.41    0.71
   3  -4   5    0.86    0.49
  -3   4  -5    0.29    0.75
  -3   4  -5   -0.07    0.54
  -3  -4  -5    0.24    0.62
  -3   4  -5    0.29    0.59
   3  -4   5   -0.60    0.91
  -3  -4  -5   -0.16    0.69
  -3  -4  -5    1.39    0.82
  -3  -4  -5   -0.20    1.35
   3   4   5   -0.31    1.03
   3  -4   6   41.89    2.52
  -3   4  -6   40.75    2.84
  -3   4  -6   41.12    2.62
  -3   4  -6   40.27    2.60
  -3  -4  -6   37.28    2.66
   3  -4   6   31.67    2.85
  -3   4  -6   39.13    2.61
  -3  -4  -6   33.78    3.48
  -3  -4  -6   38.61    2.80
   3   4   6   34.01    3.10
   3  -4   6   39.95    2.69
  -3   4  -7   23.15    2.01
  -3   4  -7   25.99    1.88
  -3   4  -7   20.52    1.70
   3   4   7   25.24    2.12
   3   4   7   25.30    2.40
   3  -4   7   23.63    2.26
  -3   4  -7   22.47    1.74
   3  -4   7   28.73    2.52
  -3  -4  -7   22.03    1.96
   3  -4   7   30.25    1.95
   3  -4   8    4.92    0.66
  -3  -4  -8    2.01    0.66
  -3   4  -8    2.18    0.72
   3   4   8    4.42    1.01
   3   4   8    3.16    1.14
   3  -4   8    2.76    1.08
  -3   4  -8    3.24    0.54
   3  -4   8    3.05    1.06
  -3  -4  -8    2.83    0.86
   3   4   9    4.32    0.80
  -3  -4  -9    1.80    0.52
   3   4   9    2.75    1.03
  -3   4  -9    4.89    0.72
  -3  -5  11    3.17    0.49
   3   5 -11    2.60    0.32
  -3   5  11    3.09    0.40
  -3   5  11    2.86    0.62
  -3  -5  10    0.49    0.48
   3   5 -10    0.84    0.38
  -3   5  10    0.22    0.45
   3  -5 -10    0.73    0.68
  -3  -5   9   19.65    1.54
   3  -5  -9   17.28    1.29
  -3  -5   9   19.29    1.46
  -3   5   9   16.66    1.42
   3  -5  -9   18.10    1.82
  -3  -5   8   58.43    2.92
  -3  -5   8   50.82    3.18
  -3  -5   8   49.16    3.20
  -3   5   8   45.29    3.53
  -3  -5   8   49.10    3.12
  -3   5   8   42.75    3.05
   3  -5  -8   48.15    3.59
   3  -5  -7   59.14    3.43
  -3   5   7   57.21    3.77
   3   5  -7   61.87    3.70
  -3   5   7   59.14    4.29
  -3  -5   7   65.30    3.54
  -3  -5   7   60.13    3.76
  -3   5   7   60.75    4.25
  -3  -5   7   60.92    3.71
  -3   5   7   61.63    3.70
  -3  -5   7   66.21    3.77
   3   5  -7   63.94    3.63
  -3   5   7   47.46    4.70
   3  -5  -6  191.85    9.90
  -3   5   6  197.79   10.35
   3   5  -6  184.14   10.23
  -3   5   6  179.53   10.67
  -3  -5   6  189.50   10.02
  -3  -5   6  186.37   10.18
  -3   5   6  169.71   10.66
  -3  -5   6  198.56   10.20
  -3   5   6  186.17   10.14
   3  -5  -6  226.85   10.86
   3   5  -6  197.09   10.19
  -3   5   6  168.18   11.33
  -3  -5   5  177.98    9.64
  -3  -5   5  207.46    9.75
   3  -5  -5  180.73    9.53
  -3   5   5  187.61    9.97
   3   5  -5  184.77   10.02
  -3   5   5  176.22   10.20
  -3  -5   5  181.06    9.71
  -3  -5   5  181.25    9.83
  -3   5   5  171.50   10.35
  -3  -5   5  189.27    9.84
  -3   5   5  179.94    9.77
  -3   5   5  178.27   10.30
  -3   5   5  168.94   10.86
   3   5  -5  196.01    9.96
  -3  -5   4   10.23    1.05
  -3   5   4   13.14    2.01
  -3  -5   4   12.35    1.05
   3  -5  -4   12.42    0.88
  -3   5   4   14.09    1.29
  -3  -5   4   14.36    1.11
  -3   5   4   10.65    1.29
  -3  -5   4   11.75    1.11
  -3  -5   4   12.91    1.11
  -3   5   4   10.36    1.56
  -3  -5   4   11.51    1.13
  -3   5   4   13.54    1.12
  -3  -5   4   13.74    1.15
  -3   5   4   14.74    1.66
   3   5  -4   11.28    1.29
   3   5  -3   82.36    5.16
  -3  -5   3   92.46    5.01
   3  -5  -3   91.61    4.75
  -3   5   3   95.33    5.21
  -3   5   3   91.58    5.15
  -3  -5   3   80.94    4.95
  -3  -5   3   92.74    5.04
  -3  -5   3   86.94    5.03
  -3   5   3   81.54    5.52
  -3  -5   3   96.33    5.06
  -3   5   3   98.48    5.01
  -3   5   3   99.70    5.47
  -3  -5   3   89.10    5.02
  -3   5   3   81.91    5.39
  -3   5   3  104.44    6.16
  -3   5   2   -1.03    1.18
   3   5  -2    0.62    0.69
  -3  -5   2   -0.14    0.46
   3  -5  -2    0.25    0.17
  -3   5   2    0.06    0.49
  -3  -5   2   -0.05    0.48
  -3  -5   2    0.59    0.47
  -3  -5   2    0.14    0.43
   3  -5  -2    0.26    0.37
  -3   5   2    0.18    0.61
   3  -5  -2   -0.17    0.68
   3   5  -2    0.57    0.47
   3   5  -1   47.12    3.53
  -3  -5   1   51.79    2.93
  -3   5   1   49.02    2.99
  -3   5   1   48.84    3.22
  -3  -5   1   48.82    2.97
  -3  -5   1   49.41    2.91
  -3  -5   1   61.79    2.97
  -3   5   1   56.51    3.31
  -3   5   1   44.06    3.10
   3  -5  -1   35.85    2.76
   3   5  -1   46.54    3.24
  -3   5   1   69.82    4.08
  -3  -5   0   11.18    0.97
  -3   5   0   10.93    0.98
  -3   5   0    7.75    1.04
   3   5   0    9.04    0.79
   3  -5   0    9.76    1.05
  -3  -5   0    9.39    1.01
  -3  -5   0    9.98    0.93
  -3  -5   0   13.02    1.01
  -3  -5   0   10.27    1.00
  -3   5   0   10.95    1.20
  -3   5   0    8.65    1.02
   3  -5   0    8.82    0.89
  -3   5   0   10.99    1.66
  -3  -5   0    9.48    1.35
   3   5   0    8.14    1.24
  -3  -5  -1   19.20    1.31
  -3   5  -1   15.48    1.23
  -3   5  -1   15.22    1.39
   3  -5   1   18.02    1.44
  -3  -5  -1   15.60    1.38
  -3  -5  -1   16.47    1.21
  -3  -5  -1   17.10    1.32
  -3   5  -1   16.11    1.40
  -3  -5  -1   16.79    1.89
   3  -5   1   13.52    1.30
  -3  -5  -1   17.24    1.43
  -3   5  -1   18.00    2.10
   3   5   1   13.82    1.75
  -3   5  -2   20.01    1.69
  -3  -5  -2   20.58    1.66
   3  -5   2   21.44    1.60
  -3   5  -2   21.86    1.85
  -3  -5  -2   18.85    1.39
  -3   5  -2   19.56    1.63
  -3  -5  -2   21.61    1.68
   3  -5   2   16.52    1.65
  -3  -5  -2   21.89    2.31
  -3   5  -2   22.60    2.42
   3   5   2   21.16    2.16
  -3   5  -3   26.69    2.07
   3  -5   3   31.08    1.99
  -3   5  -3   28.76    2.24
  -3  -5  -3   27.07    2.06
  -3  -5  -3   30.58    2.08
  -3  -5  -3   29.97    2.12
   3  -5   3   23.51    2.14
  -3   5  -3   30.19    2.77
  -3  -5  -3   27.27    2.15
   3   5   3   25.52    2.52
   3  -5   4    8.82    1.13
   3  -5   4    9.56    0.94
  -3   5  -4    7.12    1.02
  -3  -5  -4    7.13    1.05
  -3   5  -4    7.99    1.16
  -3   5  -4    9.59    1.09
  -3  -5  -4    7.06    1.02
  -3  -5  -4    8.78    1.13
   3  -5   4    6.15    1.11
  -3   5  -4    7.74    1.75
  -3  -5  -4    7.78    1.15
  -3  -5  -4    8.10    1.77
   3   5   4    8.91    1.59
   3  -5   5    4.18    0.97
   3  -5   5    3.56    0.70
  -3   5  -5    3.90    0.76
  -3   5  -5    2.59    0.81
  -3   5  -5    4.25    0.72
  -3   5  -5    5.73    0.85
   3   5   5    3.18    0.82
  -3  -5  -5    4.35    0.93
  -3   5  -5    3.71    1.51
  -3  -5  -5    3.25    0.97
  -3  -5  -5    4.94    1.60
   3   5   5    2.43    1.09
   3  -5   6    2.74    0.80
   3  -5   6    1.91    0.57
  -3   5  -6    1.89    0.82
  -3   5  -6    2.26    0.71
  -3   5  -6    2.46    0.66
   3   5   6    1.76    0.78
   3  -5   6    1.17    0.99
  -3  -5  -6    1.27    0.71
  -3   5  -6    2.02    0.69
  -3   5  -6    0.33    1.23
  -3  -5  -6    2.11    0.92
  -3  -5  -6    1.40    1.24
   3   5   6    1.51    0.89
   3  -5   7    1.63    0.70
  -3   5  -7    1.03    0.64
  -3   5  -7    0.78    0.48
  -3  -5  -7    0.94    0.67
   3   5   7    0.43    0.71
   3   5   7    1.31    1.16
   3  -5   7    1.15    0.98
  -3  -5  -7    0.90    0.65
  -3   5  -7    0.95    0.53
   3  -5   7    1.25    1.03
  -3   5  -7    0.30    1.19
  -3  -5  -7    1.34    0.78
   3  -5   8    1.24    0.54
  -3   5  -8    0.07    0.64
  -3  -5  -8    1.52    0.61
   3   5   8    1.22    0.68
   3   5   8    0.78    0.99
   3  -5   8   -0.12    0.91
  -3   5  -8    1.74    1.03
  -3  -5  -9   13.02    1.12
   3   5   9   15.58    1.25
   3   5   9   19.66    1.82
  -3   5  -9   19.36    1.36
  -3  -6  10    0.60    0.45
   3   6 -10    0.57    0.34
  -3   6  10    0.74    0.36
   3  -6 -10    0.49    0.76
  -3   6   9    0.17    0.51
  -3  -6   9    0.58    0.54
  -3  -6   9    0.10    0.46
  -3   6   9    0.86    0.48
   3  -6  -9    0.44    0.87
  -3   6   8    4.17    0.82
  -3  -6   8    4.23    0.57
  -3  -6   8    3.84    0.75
  -3  -6   8    3.55    0.75
  -3   6   8    3.28    1.15
  -3   6   8    3.59    0.66
   3  -6  -7   28.38    1.84
  -3   6   7   32.89    2.27
   3   6  -7   29.15    2.07
  -3   6   7   28.50    2.66
  -3  -6   7   29.64    2.10
  -3  -6   7   31.96    1.93
  -3  -6   7   28.82    2.14
  -3   6   7   26.12    2.64
  -3   6   7   30.00    2.03
   3  -6  -7   35.13    2.72
   3   6  -7   26.66    1.97
  -3   6   7   26.60    3.23
   3  -6  -6  256.00   13.23
  -3   6   6  272.65   13.72
   3   6  -6  255.57   13.61
  -3   6   6  243.90   14.00
  -3  -6   6  265.07   13.54
  -3   6   6  246.32   14.15
  -3   6   6  255.47   13.42
  -3   6   6  241.76   14.01
   3   6  -6  252.66   13.52
  -3   6   6  206.03   14.54
  -3  -6   5  551.85   27.51
   3  -6  -5  516.24   27.42
  -3   6   5  551.06   27.94
  -3   6   5  539.00   28.15
  -3  -6   5  554.12   27.75
  -3   6   5  508.34   28.37
  -3  -6   5  604.94   27.66
  -3   6   5  521.90   27.62
  -3   6   5  485.78   28.18
  -3  -6   5  540.40   27.65
  -3   6   5  520.46   28.91
   3   6  -5  568.56   27.94
  -3  -6   4  521.92   25.44
   3  -6  -4  513.28   25.27
  -3   6   4  539.96   25.80
  -3   6   4  494.33   25.79
  -3  -6   4  495.14   25.53
  -3  -6   4  542.13   25.54
  -3  -6   4  505.95   25.55
  -3  -6   4  516.54   25.54
  -3   6   4  475.48   26.21
  -3   6   4  522.66   25.47
  -3   6   4  546.67   26.04
  -3  -6   4  541.47   25.65
  -3   6   4  481.63   26.07
  -3   6   4  532.84   26.76
   3   6  -4  534.87   25.91
  -3  -6   3   14.83    1.18
   3   6  -3   13.19    1.31
  -3  -6   3   15.93    1.17
   3  -6  -3   14.89    0.94
  -3   6   3   16.65    1.41
  -3   6   3   15.01    1.34
  -3  -6   3   15.15    1.23
  -3  -6   3   14.45    1.26
  -3  -6   3   16.30    1.25
  -3   6   3   14.23    1.50
  -3  -6   3   14.26    1.22
  -3   6   3   14.91    1.64
  -3   6   3   20.58    2.30
   3  -6  -3   10.10    1.11
   3   6  -2   32.26    2.40
  -3   6   2   28.73    1.98
  -3  -6   2   29.18    1.92
  -3  -6   2   24.87    1.73
  -3   6   2   37.55    2.38
  -3  -6   2   29.69    1.87
  -3  -6   2   27.10    1.89
   3  -6  -2   24.71    2.15
  -3  -6   2   30.85    1.94
   3   6  -2   27.83    1.97
   3  -6  -2   19.39    1.76
  -3   6   2   40.36    3.12
   3   6  -1    0.63    0.88
  -3  -6   1    0.96    0.48
  -3   6   1    0.98    0.53
  -3  -6   1    3.27    0.65
   3  -6  -1    1.20    0.52
  -3   6   1    0.61    0.65
  -3  -6   1    1.59    0.49
  -3   6   1    1.80    0.73
  -3  -6   1    1.06    0.56
  -3   6   1    1.04    0.71
   3  -6  -1    0.82    0.81
  -3  -6   1    0.80    0.47
   3   6  -1    1.37    0.68
  -3  -6   0    0.19    0.43
  -3   6   0   -0.06    0.43
   3  -6   0    0.20    0.52
  -3   6   0    1.28    0.69
  -3  -6   0    0.09    0.40
  -3  -6   0    0.50    0.52
  -3  -6   0    0.29    0.50
   3  -6   0   -0.34    0.60
  -3   6   0    0.14    0.57
   3  -6   0    1.00    0.85
  -3   6   0    0.31    1.17
  -3  -6   0    0.95    0.45
   3   6   0    0.10    0.70
  -3  -6  -1   19.07    1.24
  -3   6  -1   14.09    1.14
  -3   6  -1   13.78    1.37
   3  -6   1   15.10    1.31
  -3  -6  -1   12.11    1.11
  -3  -6  -1   13.94    1.17
  -3   6  -1   12.66    1.78
  -3  -6  -1   14.57    1.32
   3  -6   1   13.30    1.34
  -3  -6  -1   13.17    1.16
  -3   6  -1   13.78    1.98
  -3  -6  -1   10.34    1.62
  -3   6  -2   77.43    5.00
   3  -6   2   89.84    4.83
  -3  -6  -2   91.95    4.96
  -3  -6  -2   75.90    4.61
  -3  -6  -2   83.79    4.82
  -3   6  -2   82.30    4.89
  -3   6  -2   73.06    5.41
  -3  -6  -2   89.50    4.94
   3  -6   2   70.29    4.98
  -3  -6  -2   78.18    5.50
  -3   6  -2   77.54    5.65
   3   6   2   77.26    5.36
  -3   6  -3  186.33   10.47
   3  -6   3  210.30   10.27
  -3   6  -3  199.27   10.62
  -3  -6  -3  186.97   10.37
  -3  -6  -3  208.19   10.43
   3  -6   3  166.94   10.55
  -3  -6  -3  179.75   11.13
  -3   6  -3  192.81   11.18
  -3  -6  -3  190.27   10.45
   3   6   3  191.88   10.99
   3  -6   4    8.41    0.91
  -3   6  -4    5.66    1.05
  -3  -6  -4    7.99    1.05
  -3   6  -4    7.63    1.05
  -3   6  -4    7.16    0.97
  -3  -6  -4    6.46    1.00
  -3  -6  -4    6.30    1.14
  -3   6  -4    5.85    1.68
   3  -6   4    5.32    1.21
   3   6   4    5.33    1.31
   3  -6   5    5.18    1.02
   3   6   5    2.99    1.29
  -3   6  -5    3.43    0.79
  -3   6  -5    2.89    0.88
   3  -6   5    3.91    0.66
  -3  -6  -5    4.11    0.87
  -3   6  -5    4.36    0.79
  -3  -6  -5    5.83    0.99
  -3   6  -5    3.34    0.83
   3  -6   5    6.72    1.57
  -3  -6  -5    4.34    1.00
  -3   6  -5    3.10    1.39
  -3  -6  -5    4.67    1.52
   3   6   5    5.81    1.27
   3  -6   6    6.40    1.03
  -3  -6  -6    7.33    0.97
  -3   6  -6    4.27    0.95
  -3   6  -6    5.46    0.79
   3   6   6    3.77    0.82
  -3  -6  -6    4.92    0.91
  -3   6  -6    6.29    0.87
   3  -6   6    7.22    1.43
  -3  -6  -6    5.12    1.07
  -3   6  -6    6.62    1.55
   3  -6   7    0.76    0.71
  -3  -6  -7    0.72    0.60
  -3   6  -7    0.81    0.68
   3   6   7    2.13    0.71
   3   6   7    1.71    1.05
  -3   6  -7    1.12    0.52
   3  -6   7    2.90    1.10
  -3   6  -7    0.59    1.05
  -3  -6  -8    7.59    0.90
   3   6   8    7.21    0.91
   3   6   8   10.89    1.51
   3  -6   8    8.79    1.34
  -3   6  -8    8.36    1.47
   3  -6   8   11.67    1.03
  -3  -6  -9   22.12    1.64
   3   6   9   32.02    2.26
  -3   6  -9   23.69    2.06
  -3   6  -9   34.53    1.88
  -3  -7  10    0.75    0.43
  -3   7  10    0.65    0.26
  -3   7  10    1.37    0.58
   3  -7 -10    0.47    0.67
  -3  -7   9   -0.35    0.51
  -3   7   9   -0.21    0.36
  -3   7   8    3.32    0.73
  -3  -7   8    3.80    0.71
  -3  -7   8    3.54    0.74
  -3   7   8    2.02    1.02
  -3  -7   8    2.60    0.58
  -3   7   8    2.46    0.51
  -3  -7   8    2.52    0.47
   3  -7  -8    3.17    1.11
  -3   7   7    9.66    2.18
  -3   7   7   12.75    1.38
   3   7  -7   11.58    1.21
  -3  -7   7   15.82    1.15
  -3  -7   7   14.38    1.30
  -3   7   7   14.18    1.88
  -3  -7   7   14.45    1.22
  -3   7   7   13.61    1.14
   3  -7  -7   17.15    1.85
   3   7  -7   13.13    1.20
   3   7  -6    0.50    0.55
  -3   7   6    0.64    1.67
   3  -7  -6    0.57    0.33
   3   7  -6    1.27    0.61
  -3   7   6    0.87    0.68
  -3   7   6    0.87    0.91
  -3  -7   6    0.69    0.52
  -3  -7   6    0.90    0.55
  -3  -7   6    0.64    0.54
  -3   7   6    0.83    0.42
   3  -7  -6    2.71    1.13
  -3   7   6    0.26    1.08
  -3   7   5   13.24    2.31
  -3  -7   5   15.79    1.08
   3  -7  -5   15.09    1.03
  -3   7   5   13.85    1.45
  -3  -7   5   15.90    1.22
  -3   7   5   14.02    1.59
  -3  -7   5   11.91    1.24
  -3  -7   5   15.42    1.25
  -3   7   5   12.55    1.09
  -3   7   5   14.67    1.62
  -3  -7   5   13.32    1.30
  -3   7   5   12.45    1.70
   3   7  -5   13.15    1.38
   3   7  -4    7.35    1.09
  -3   7   4    8.22    1.92
  -3  -7   4    9.38    0.80
   3  -7  -4    8.25    0.65
  -3  -7   4    7.67    0.86
  -3   7   4   10.18    1.16
  -3  -7   4    9.30    0.91
  -3  -7   4    6.99    0.91
  -3  -7   4    6.06    0.80
  -3  -7   4    7.18    0.86
  -3   7   4    7.88    1.19
  -3   7   4    7.31    1.36
   3  -7  -4    5.35    0.86
   3   7  -3  113.58    6.89
  -3  -7   3  142.74    6.73
  -3   7   3  126.84    6.91
  -3   7   3  138.13    7.02
  -3  -7   3  126.11    6.80
  -3  -7   3  124.41    6.81
  -3  -7   3  117.79    6.72
  -3   7   3  115.90    7.50
  -3  -7   3  140.53    6.78
  -3   7   3  143.00    7.32
  -3  -7   3  126.76    6.85
  -3   7   3  120.98    7.24
  -3   7   3  155.62    8.18
   3  -7  -3   86.31    6.72
  -3   7   2    4.32    1.55
   3   7  -2    2.41    0.87
  -3  -7   2    2.63    0.62
  -3  -7   2    2.48    0.45
  -3  -7   2    2.74    0.66
  -3   7   2    2.68    0.97
  -3  -7   2    4.33    0.61
   3  -7  -2    2.42    0.65
  -3   7   2    2.85    0.90
  -3  -7   2    2.94    0.56
   3  -7  -2    3.37    1.02
  -3  -7   2    4.64    0.69
   3   7  -2    3.33    0.60
  -3  -7   1   33.11    2.26
   3   7  -1   30.28    2.70
  -3  -7   1   39.87    2.21
  -3   7   1   33.75    2.25
  -3   7   1   37.81    2.72
   3  -7  -1   33.61    2.31
  -3  -7   1   42.81    2.22
  -3   7   1   30.81    2.72
  -3  -7   1   37.28    2.21
  -3   7   1   34.56    2.56
  -3  -7   1   30.87    2.11
  -3   7   1   32.79    2.45
   3  -7  -1   34.08    2.70
   3  -7  -1   25.54    2.22
  -3  -7   1   31.62    2.22
   3   7  -1   27.68    2.31
  -3  -7   0   78.32    3.68
  -3   7   0   59.97    3.63
  -3   7   0   63.27    4.06
   3  -7   0   65.89    3.78
  -3   7   0   52.07    4.21
  -3  -7   0   67.06    3.72
  -3   7   0   53.77    3.74
   3  -7   0   48.68    3.75
   3  -7   0   73.63    4.39
  -3  -7   0   63.39    3.75
  -3   7   0   56.23    4.57
  -3  -7   0   63.89    3.71
   3   7   0   61.07    4.02
  -3  -7  -1  124.51    7.18
   3   7   1  123.51    8.13
  -3   7  -1  128.50    7.17
  -3   7  -1  118.06    7.51
   3  -7   1  142.21    7.34
  -3  -7  -1  136.50    7.42
  -3  -7  -1  128.05    7.22
  -3   7  -1  120.11    7.96
  -3  -7  -1  123.49    7.82
   3  -7   1  112.63    7.49
   3  -7   1  147.35    7.27
  -3   7  -1  128.43    8.23
  -3  -7  -1  133.57    7.31
   3   7   2   19.86    2.50
  -3   7  -2   24.38    2.00
   3  -7   2   23.28    1.68
  -3  -7  -2   22.54    1.81
  -3  -7  -2   21.43    1.57
  -3   7  -2   18.78    2.26
  -3  -7  -2   24.83    1.84
  -3  -7  -2   21.17    2.31
   3  -7   2   20.58    2.00
   3  -7   2   26.01    2.36
  -3   7  -2   24.81    2.69
   3   7   2   25.58    2.29
   3   7   3   26.27    2.95
  -3   7  -3   31.58    2.39
   3  -7   3   32.06    2.11
  -3   7  -3   32.40    2.44
  -3  -7  -3   29.48    2.25
  -3  -7  -3   27.97    1.90
  -3   7  -3   32.46    2.22
  -3  -7  -3   33.06    2.30
   3  -7   3   27.06    2.55
  -3  -7  -3   28.10    2.86
   3  -7   3   40.71    3.05
  -3   7  -3   31.65    3.10
   3   7   3   31.37    2.71
  -3   7  -4   14.61    1.56
   3   7   4   15.35    2.27
   3  -7   4   17.58    1.36
  -3   7  -4   17.08    1.69
  -3  -7  -4   16.85    1.54
  -3   7  -4   17.21    1.47
  -3  -7  -4   17.20    1.57
   3  -7   4   18.48    2.16
  -3   7  -4   15.96    2.25
  -3  -7  -4   15.24    2.15
   3  -7   4   13.81    1.80
   3   7   4   13.80    1.79
   3  -7   5    1.09    0.85
   3   7   5    0.39    1.06
  -3   7  -5    1.52    0.78
   3  -7   5    0.80    0.51
  -3  -7  -5    1.07    0.73
  -3   7  -5    0.89    0.55
  -3  -7  -5    1.30    0.73
  -3   7  -5    0.39    0.57
  -3   7  -5    1.86    0.70
   3  -7   5    1.71    1.16
  -3   7  -5    0.17    1.26
   3   7   5    0.90    0.85
  -3  -7  -6   12.33    1.32
  -3   7  -6   12.87    1.43
  -3   7  -6   14.21    1.20
  -3  -7  -6   15.50    1.43
  -3   7  -6   14.16    1.28
   3  -7   6   15.13    1.91
  -3   7  -6   15.16    2.05
   3  -7   6   15.62    1.53
   3  -7   7    3.59    0.81
  -3  -7  -7    1.66    0.67
  -3   7  -7    3.44    0.83
   3   7   7    3.78    1.16
  -3   7  -7    3.22    0.57
   3  -7   7    3.12    1.10
  -3   7  -7    2.99    1.26
   3  -7   8    0.16    0.50
  -3  -7  -8    0.47    0.47
   3   7   8    1.71    0.91
  -3   7  -8    0.22    0.88
  -3  -7  -9    0.53    0.34
  -3   7  -9    0.96    0.48
  -3  -8  10    4.17    0.56
  -3   8  10    4.22    0.70
  -3  -8   9   10.93    0.97
  -3   8   9    8.57    1.10
   3  -8  -9    7.72    1.24
  -3   8   8   -0.07    0.60
  -3  -8   8    0.93    0.37
  -3  -8   8    0.18    0.47
  -3  -8   8    0.81    0.55
  -3   8   8   -0.46    0.68
   3  -8  -8    0.24    0.87
  -3   8   7   -0.42    1.44
  -3   8   7    0.08    0.69
  -3  -8   7   -0.27    0.51
  -3  -8   7    0.24    0.41
  -3   8   7    0.20    0.75
   3  -8  -7   -0.63    1.07
   3  -8  -6   38.74    2.37
  -3   8   6   46.28    2.89
   3   8  -6   36.41    2.68
  -3   8   6   40.77    3.12
  -3  -8   6   41.90    2.66
  -3   8   6   41.02    3.39
  -3  -8   6   39.25    2.48
   3  -8  -6   51.03    3.36
  -3   8   6   43.87    3.02
  -3   8   6   40.83    3.20
   3   8  -6   37.27    2.62
  -3   8   6   41.14    3.79
   3  -8  -5  458.85   24.23
  -3   8   5  500.42   24.78
  -3   8   5  452.11   24.87
  -3  -8   5  519.47   24.44
  -3  -8   5  453.18   24.43
  -3   8   5  428.49   25.24
  -3  -8   5  500.53   24.42
  -3   8   5  499.72   25.00
  -3  -8   5  494.86   24.63
  -3   8   5  464.16   25.11
  -3   8   5  471.00   25.76
   3   8  -5  461.16   24.68
   3  -8  -4   35.34    2.93
  -3  -8   4   55.00    2.75
  -3   8   4   49.25    3.19
  -3   8   4   44.16    3.06
  -3  -8   4   48.03    2.89
  -3  -8   4   44.07    2.90
  -3  -8   4   44.45    2.88
  -3   8   4   46.55    3.68
  -3  -8   4   51.28    2.84
  -3   8   4   49.91    3.36
  -3   8   4   42.50    3.39
  -3   8   4   52.23    4.16
   3   8  -4   42.60    3.14
   3   8  -3   22.35    1.86
  -3  -8   3   30.43    1.74
  -3  -8   3   27.86    1.86
  -3   8   3   23.20    1.91
  -3   8   3   27.75    2.03
  -3  -8   3   25.26    1.89
  -3  -8   3   24.24    1.78
  -3   8   3   22.90    2.49
  -3   8   3   24.85    2.43
  -3  -8   3   30.14    1.80
  -3   8   3   28.11    2.28
  -3  -8   3   27.06    1.91
  -3   8   3   26.71    2.28
  -3  -8   3   26.11    1.96
  -3   8   3   33.06    3.09
   3  -8  -3   19.80    1.89
  -3   8   2    2.38    1.50
   3   8  -2    0.71    0.58
  -3  -8   2    0.93    0.42
  -3  -8   2    0.12    0.48
  -3  -8   2    1.14    0.39
  -3  -8   2    0.72    0.59
  -3   8   2   -0.13    0.75
  -3   8   2    0.28    1.11
   3  -8  -2    0.95    0.67
  -3  -8   2    0.90    0.46
  -3   8   2    0.97    0.84
  -3  -8   2    0.61    0.48
   3  -8  -2    2.70    1.10
  -3  -8   2    0.29    0.50
   3   8  -1  112.34    7.27
  -3  -8   1  120.17    6.79
  -3   8   1  122.96    6.79
  -3   8   1  111.73    7.23
  -3  -8   1  123.54    6.76
  -3   8   1  115.02    7.44
  -3   8   1  137.01    7.25
  -3  -8   1  118.38    6.70
  -3   8   1  122.53    7.04
   3  -8  -1  129.29    7.45
   3  -8  -1   98.06    6.88
  -3  -8   1  125.88    6.85
   3   8  -1  118.49    6.85
  -3  -8   0   34.77    1.89
  -3  -8   0   25.29    1.81
  -3   8   0   26.81    1.82
  -3   8   0   25.52    2.20
   3  -8   0   27.45    1.91
  -3  -8   0   22.49    1.88
  -3   8   0   27.16    2.61
  -3  -8   0   24.87    1.85
  -3  -8   0   23.51    1.71
  -3   8   0   26.08    1.99
   3  -8   0   25.21    2.13
   3  -8   0   25.15    2.41
  -3   8   0   23.54    2.81
  -3  -8   0   24.58    1.86
   3   8   0   23.27    2.01
   3   8   1   15.31    2.10
  -3   8  -1   13.88    1.62
   3  -8   1   18.59    1.41
  -3  -8  -1   17.70    1.38
  -3   8  -1   15.49    2.05
  -3  -8  -1   15.27    1.45
  -3  -8  -1   15.23    1.78
   3  -8   1   16.25    1.72
   3  -8   1   18.95    1.38
  -3  -8  -1   17.31    1.43
  -3   8  -1   17.10    2.35
   3   8   1   17.56    1.73
   3  -8   2   12.86    1.69
   3   8   2   13.20    1.99
  -3   8  -2   10.68    1.46
   3  -8   2   11.87    1.17
  -3  -8  -2   12.72    1.33
  -3  -8  -2   14.43    1.17
  -3   8  -2   14.49    1.36
  -3   8  -2   15.21    2.05
  -3  -8  -2   15.51    1.41
   3  -8   2   13.15    1.86
  -3  -8  -2   13.95    1.83
  -3   8  -2   16.76    2.26
  -3   8  -3   12.49    1.46
   3   8   3    9.42    1.89
   3  -8   3   15.58    1.21
  -3   8  -3   13.14    1.50
  -3  -8  -3    9.32    1.25
  -3  -8  -3   12.58    1.05
  -3   8  -3   14.87    1.31
  -3   8  -3    9.01    1.85
  -3  -8  -3   13.86    1.37
   3  -8   3   16.33    1.90
  -3   8  -3   10.78    2.15
  -3  -8  -3   13.81    1.94
   3   8   3   15.27    1.64
   3  -8   3   11.35    1.62
   3   8   4    1.12    1.19
   3  -8   4    1.00    0.51
  -3  -8  -4    0.31    0.65
  -3   8  -4    0.75    0.64
  -3   8  -4    0.83    0.76
  -3   8  -4    1.08    0.60
  -3  -8  -4    1.29    0.74
   3  -8   4    3.02    1.30
  -3   8  -4    0.90    1.39
  -3  -8  -4   -0.54    1.20
   3   8   4    0.13    0.80
   3  -8   4   -0.44    0.94
  -3   8  -5    3.35    0.85
  -3  -8  -5    3.35    0.83
  -3   8  -5    3.64    0.69
  -3  -8  -5    3.47    0.81
  -3   8  -5    3.60    0.81
   3  -8   5    3.32    1.28
  -3   8  -5    3.63    1.44
  -3  -8  -6    0.74    0.63
  -3   8  -6    0.26    0.69
  -3   8  -6    0.75    0.54
   3  -8   6   -0.30    1.06
  -3   8  -6    0.16    1.20
   3  -8   7    7.16    0.95
  -3  -8  -7    6.48    0.85
  -3   8  -7    5.67    0.87
   3   8   7    5.31    1.17
  -3   8  -7    3.79    0.58
   3  -8   7    6.33    1.27
  -3   8  -7    4.68    1.28
   3  -8   8    4.77    0.70
  -3   8  -8    5.35    0.73
  -3  -8  -8    4.71    0.64
   3   8   8    4.03    1.01
  -3   8  -8    5.11    1.11
  -3   9   9   28.73    1.94
  -3  -9   9   32.38    1.93
  -3   9   9   27.91    2.06
   3  -9  -9   30.52    2.34
  -3   9   8    1.98    0.66
  -3  -9   8    1.26    0.36
  -3  -9   8    1.72    0.52
  -3   9   8    1.55    0.79
   3  -9  -8    1.77    0.95
  -3   9   7   58.46    3.45
  -3  -9   7   52.79    3.01
  -3  -9   7   56.35    3.27
  -3  -9   7   54.35    3.23
  -3   9   7   45.60    3.77
  -3   9   7   51.03    3.49
   3  -9  -7   55.92    3.79
  -3   9   6   10.17    2.18
  -3   9   6   14.07    1.43
  -3  -9   6   10.49    1.16
  -3   9   6   11.38    1.77
  -3   9   6   12.98    1.48
   3  -9  -6   16.64    1.82
  -3   9   6   13.34    1.76
  -3   9   5  159.94    8.69
  -3   9   5  149.95    8.80
  -3  -9   5  175.93    8.36
  -3  -9   5  146.21    8.36
  -3   9   5  147.00    9.19
  -3  -9   5  166.90    8.27
  -3   9   5  162.34    8.84
  -3  -9   5  157.19    8.54
  -3   9   5  141.30    8.93
  -3   9   5  146.91    9.57
   3   9  -5  140.07    8.55
   3  -9  -4   42.46    3.50
  -3   9   4   57.04    3.67
  -3   9   4   57.96    3.61
  -3  -9   4   59.26    3.36
  -3  -9   4   58.75    3.44
  -3  -9   4   59.34    3.42
  -3  -9   4   53.04    3.28
  -3   9   4   42.82    3.97
  -3   9   4   51.77    4.00
  -3  -9   4   65.66    3.29
  -3   9   4   58.46    3.85
  -3  -9   4   61.84    3.56
  -3   9   4   57.10    3.96
  -3   9   4   59.05    4.61
   3   9  -4   52.75    3.64
  -3   9   3    6.81    1.88
   3   9  -3    5.37    0.77
  -3   9   3    6.59    0.96
  -3  -9   3    6.36    0.81
  -3  -9   3    3.39    0.63
  -3  -9   3    5.64    0.84
  -3   9   3    4.75    1.45
  -3   9   3    5.08    1.41
  -3  -9   3    6.00    0.67
  -3   9   3    4.09    1.00
   3  -9  -3    4.14    0.88
  -3  -9   3    5.03    0.80
  -3   9   3    4.26    1.15
  -3   9   2   13.64    2.15
   3   9  -2    8.79    1.23
  -3   9   2    9.42    1.08
   3  -9  -2    9.49    1.04
  -3  -9   2    9.76    1.03
  -3  -9   2   10.32    1.11
  -3  -9   2    8.04    0.86
  -3  -9   2   14.32    1.01
  -3   9   2    7.85    1.49
  -3   9   2   12.33    1.78
   3  -9  -2    8.63    1.22
  -3   9   2   10.29    1.41
  -3  -9   2   10.74    1.04
   3  -9  -2   10.66    1.56
   3   9  -1   36.40    2.76
  -3   9   1   34.06    2.25
  -3   9   1   29.99    2.71
   3  -9  -1   33.44    2.24
  -3  -9   1   35.49    2.27
  -3  -9   1   31.36    2.26
  -3   9   1   34.06    3.03
  -3   9   1   35.29    2.67
  -3  -9   1   33.88    2.22
  -3   9   1   33.25    2.53
   3  -9  -1   34.26    2.91
   3  -9  -1   29.70    2.49
  -3  -9   1   35.11    2.35
   3   9  -1   29.83    2.19
  -3   9   0   43.70    2.66
  -3   9   0   44.46    3.28
   3  -9   0   43.42    2.70
  -3  -9   0   41.03    2.76
  -3  -9   0   47.18    2.76
  -3   9   0   39.37    3.52
  -3  -9   0   38.99    2.60
  -3   9   0   43.27    2.91
  -3  -9   0   36.06    2.88
   3  -9   0   50.44    2.77
   3  -9   0   39.74    3.11
   3  -9   0   46.28    3.48
  -3  -9   0   41.78    2.80
   3   9   0   41.32    2.87
  -3  -9  -1    0.72    0.67
   3   9   1    0.47    0.96
   3  -9   1    0.38    0.85
  -3   9  -1    0.85    0.73
  -3   9  -1    0.17    1.28
   3   9   1    0.67    0.36
  -3   9  -1    0.28    0.55
   3  -9   1    0.44    0.46
  -3   9  -1    0.19    1.44
  -3  -9  -1    0.95    0.54
   3   9   1    0.10    0.63
   3  -9   2    8.08    1.41
   3   9   2    6.49    1.51
  -3  -9  -2    8.05    1.08
  -3  -9  -2    9.18    0.96
  -3   9  -2    7.82    1.22
  -3   9  -2    9.74    1.08
  -3   9  -2    9.58    1.88
  -3  -9  -2    9.00    1.10
   3  -9   2   10.29    0.97
   3  -9   2    7.47    1.51
  -3  -9  -2    6.49    1.36
  -3   9  -2    7.76    1.82
   3   9   3   15.84    2.23
  -3   9  -3   17.08    1.80
  -3   9  -3   21.34    1.86
  -3  -9  -3   19.03    1.66
  -3  -9  -3   16.82    1.34
  -3   9  -3   22.13    1.62
   3  -9   3   18.12    2.05
  -3   9  -3   20.13    2.56
   3  -9   3   17.57    2.22
  -3  -9  -3   16.64    2.16
   3   9   3   19.54    1.90
   3   9   4    6.80    1.49
  -3   9  -4    8.57    1.19
  -3  -9  -4    8.26    1.14
  -3   9  -4    9.71    1.28
  -3   9  -4   11.73    1.08
   3  -9   4    9.80    1.76
  -3   9  -4    8.09    1.86
  -3  -9  -4    9.12    1.69
   3   9   4   10.36    1.36
   3  -9   5    5.82    1.11
  -3  -9  -5    6.52    0.95
  -3   9  -5    6.40    0.74
  -3   9  -5    6.71    0.90
   3  -9   5    4.31    1.39
  -3   9  -5    4.37    1.53
  -3  -9  -6   30.12    2.09
  -3   9  -6   29.47    1.97
   3  -9   6   30.34    2.77
  -3   9  -6   29.95    2.81
  -3  -9  -7    0.89    0.53
  -3   9  -7    0.31    0.60
   3   9   7    1.72    0.88
   3  -9   7   -0.25    0.97
  -3   9  -7    2.81    1.01
   3  -9   8   -0.38    0.47
  -3   9  -8    0.61    0.40
  -3  -9  -8   -0.10    0.37
   3   9   8    0.51    0.65
  -3   9  -8   -0.80    0.80
  -3  10   9    5.22    0.65
  -3  10   9    5.25    0.71
   3 -10  -9    4.22    0.92
  -3  10   8   14.42    1.31
  -3 -10   8   16.53    0.97
  -3 -10   8   16.37    1.23
  -3  10   8   12.12    1.61
  -3  10   8   15.37    1.40
   3 -10  -8   13.29    1.61
  -3  10   7    1.24    0.67
  -3 -10   7    0.51    0.52
  -3 -10   7    0.06    0.37
  -3  10   7   -0.13    1.06
  -3  10   7   -0.43    0.70
   3 -10  -7    1.61    0.87
  -3  10   6    5.33    1.64
  -3  10   6    7.02    1.03
  -3 -10   6    4.94    0.77
  -3  10   6    4.10    1.35
  -3  10   6    7.10    1.14
   3 -10  -6    6.60    1.28
  -3  10   6    6.02    1.22
   3  10  -5   -0.65    0.60
  -3  10   5    0.40    1.54
  -3  10   5    0.08    0.67
  -3 -10   5   -0.28    0.45
  -3 -10   5    0.22    0.57
  -3  10   5    0.78    1.12
  -3  10   5    0.83    0.82
   3 -10  -5    0.13    1.03
  -3 -10   5    0.51    0.51
  -3  10   5    0.26    1.00
   3  10  -4    1.40    0.71
  -3  10   4    1.76    1.52
  -3  10   4    1.66    0.74
   3 -10  -4    1.98    0.54
  -3 -10   4    1.60    0.51
  -3 -10   4    1.78    0.53
  -3 -10   4    1.03    0.59
  -3  10   4    1.77    1.31
  -3  10   4    2.59    0.94
  -3 -10   4    1.52    0.58
  -3  10   4    1.86    1.01
   3 -10  -4    2.90    0.85
  -3  10   3    3.94    1.61
  -3 -10   3    2.49    0.63
  -3 -10   3    1.64    0.67
  -3 -10   3    2.29    0.51
   3 -10  -3    2.20    0.60
  -3  10   3    2.69    1.28
  -3  10   3    0.78    0.79
   3 -10  -3    2.25    0.81
  -3  10   3    0.82    0.96
  -3 -10   3    2.58    0.67
   3  10  -2   13.84    1.49
  -3  10   2   17.85    1.45
   3 -10  -2   14.38    1.28
  -3 -10   2   15.72    1.33
  -3 -10   2   16.45    1.40
  -3  10   2   16.60    2.13
  -3  10   2   17.57    1.79
  -3 -10   2   15.62    1.38
   3 -10  -2   16.02    1.99
   3 -10  -2   14.67    1.63
   3  10  -1    7.68    1.25
  -3  10   1    7.82    0.94
   3 -10  -1    7.58    0.87
  -3 -10   1    9.35    1.02
   3 -10  -1    8.46    1.31
  -3  10   1   10.45    1.55
  -3  10   1    9.15    1.73
  -3 -10   1    8.53    0.93
  -3  10   1    8.94    1.28
  -3 -10   1    9.70    1.06
   3 -10  -1    6.47    1.51
  -3  10   0    4.86    0.73
   3 -10   0    6.21    0.75
  -3 -10   0    4.25    0.83
  -3 -10   0    5.85    0.85
   3 -10   0    4.94    1.19
  -3  10   0    5.25    1.18
  -3  10   0    5.93    1.58
  -3 -10   0    5.30    0.71
   3 -10   0    8.27    0.89
  -3  10   0    5.29    0.97
   3 -10   0    6.06    1.47
  -3 -10   0    5.31    0.85
   3  10   0    3.78    0.77
   3  10   1    1.03    0.91
   3 -10   1    0.28    0.90
   3 -10   1    0.32    0.44
  -3  10  -1    0.13    0.85
  -3  10  -1    0.79    0.66
  -3  10  -1    0.90    1.39
  -3 -10  -1   -0.28    0.61
   3  10   1    0.56    0.37
   3 -10   1   -0.07    0.54
  -3 -10  -1    0.45    0.53
  -3  10  -1    0.20    1.56
   3  10   1    0.45    0.57
   3  10   2    5.52    1.33
   3 -10   2    6.99    1.38
   3 -10   2    5.29    0.72
  -3 -10  -2    5.74    0.94
  -3 -10  -2    4.63    0.75
  -3  10  -2    6.07    1.08
  -3  10  -2    4.83    0.83
   3 -10   2    5.94    0.79
   3 -10   2    7.09    1.55
  -3  10  -2    8.26    1.90
   3  10   2    5.94    0.98
   3  10   3   22.80    2.47
  -3  10  -3   20.79    2.06
   3 -10   3   27.70    1.74
  -3  10  -3   27.26    2.17
  -3 -10  -3   23.05    1.89
  -3 -10  -3   23.82    1.66
  -3  10  -3   25.73    1.85
   3 -10   3   22.45    2.41
   3 -10   3   22.70    2.60
  -3  10  -3   21.91    2.69
   3 -10   4    2.66    1.01
  -3  10  -4    4.08    0.95
  -3 -10  -4    5.14    0.85
  -3  10  -4    4.45    0.69
   3 -10   4    4.98    1.58
  -3  10  -4    4.22    1.69
  -3 -10  -5   29.50    2.18
  -3  10  -5   34.11    2.20
   3 -10   5   28.99    2.89
  -3  10  -5   29.09    2.93
   3 -10   5   36.48    2.50
  -3 -10  -6   10.01    1.03
  -3  10  -6   11.66    1.22
  -3  10  -6    9.82    0.92
  -3  10  -6   14.33    1.75
   3 -10   6    9.98    1.60
   3 -10   6   14.54    1.35
  -3 -10  -7    4.03    0.62
   3  10   7    5.26    0.99
   3 -10   7    5.20    1.11
  -3  10  -7    3.90    1.06
  -3  11   8    0.10    0.47
  -3 -11   8    0.12    0.38
  -3  11   8    0.36    0.83
   3 -11  -8   -0.09    0.72
  -3  11   7   21.05    1.66
  -3 -11   7   21.61    1.34
  -3 -11   7   20.94    1.52
  -3  11   7   20.27    2.08
   3 -11  -7   22.82    2.03
  -3  11   6   17.34    1.47
  -3 -11   6   15.96    1.19
  -3 -11   6   15.78    1.30
  -3  11   6   14.12    1.91
  -3  11   6   14.83    1.52
   3 -11  -6   17.07    1.84
  -3  11   6   15.11    1.74
  -3  11   5    8.70    1.85
  -3  11   5   10.73    1.23
  -3 -11   5   13.53    1.04
  -3 -11   5   12.16    1.08
  -3  11   5    7.15    1.52
   3 -11  -5   15.51    1.76
  -3  11   5   11.44    1.38
  -3 -11   5   11.01    1.13
  -3  11   5   11.27    1.62
  -3  11   4    3.18    1.63
  -3  11   4    4.10    0.82
  -3 -11   4    3.38    0.62
  -3 -11   4    2.10    0.70
  -3 -11   4    3.23    0.61
  -3  11   4    4.50    1.02
  -3 -11   4    3.50    0.69
  -3  11   4    3.27    1.12
   3  11  -3    0.28    0.57
  -3  11   3    0.19    1.39
  -3 -11   3    0.97    0.49
  -3 -11   3    0.56    0.59
  -3 -11   3    0.10    0.38
  -3  11   3    1.77    1.20
  -3  11   3    0.21    0.81
   3 -11  -3   -0.23    0.73
  -3  11   3    0.23    0.90
  -3  11   2    6.11    1.73
   3  11  -2    4.01    0.78
  -3  11   2    4.48    0.76
  -3 -11   2    5.20    0.75
  -3 -11   2    5.82    0.88
  -3  11   2    4.89    1.54
   3 -11  -2    3.88    0.61
   3 -11  -2    5.14    1.09
  -3 -11   2    4.79    0.76
   3 -11  -2    3.60    1.23
  -3 -11   2    3.93    0.82
   3  11  -1   -0.52    0.69
  -3 -11   1    0.43    0.54
  -3  11   1    0.49    0.49
   3 -11  -1   -0.19    0.42
  -3 -11   1    0.13    0.61
   3 -11  -1    0.52    0.83
  -3  11   1    0.17    1.26
  -3 -11   1   -0.19    0.39
  -3  11   1   -0.30    0.76
   3 -11  -1   -0.16    1.10
  -3  11   1    0.40    1.59
   3  11   0   12.08    1.71
   3 -11   0   16.42    1.24
  -3 -11   0   15.33    1.40
  -3  11   0   15.13    1.90
  -3  11   0   17.93    2.27
  -3 -11   0   14.50    1.38
  -3 -11   0   12.91    1.26
   3  11   0   21.09    1.28
  -3  11   0   15.81    1.57
   3 -11   0   18.75    1.44
   3 -11   0   18.94    2.27
   3 -11   0   17.15    1.90
   3  11   1   12.82    1.80
   3 -11   1   15.89    1.21
   3 -11   1   14.04    1.88
  -3 -11  -1   15.13    1.33
  -3  11  -1   12.88    1.68
  -3  11  -1   16.17    1.45
  -3  11  -1   13.81    2.19
  -3 -11  -1   13.70    1.36
   3  11   1   18.75    1.18
   3 -11   1   17.83    1.42
   3  11   1   13.00    1.36
  -3 -11  -2    6.18    0.90
   3  11   2    2.66    1.05
  -3 -11  -2    5.01    0.75
  -3  11  -2    4.22    0.80
   3 -11   2    5.57    0.78
   3 -11   2    6.63    1.62
  -3 -11  -2    4.38    0.79
  -3  11  -2    5.12    1.57
  -3  11  -3   35.10    2.46
  -3 -11  -3   25.49    1.89
  -3  11  -3   31.24    2.04
  -3 -11  -3   31.35    2.14
  -3  11  -3   27.72    3.00
   3 -11   3   31.86    2.00
   3 -11   3   31.72    2.94
  -3  11  -3   28.49    2.98
  -3 -11  -4  170.82    9.17
   3 -11   4  150.56    9.92
  -3  11  -4  160.07   10.04
  -3 -11  -5   17.04    1.43
  -3  11  -5   19.18    1.62
  -3  11  -5   18.78    1.44
   3 -11   5   17.75    2.15
  -3  11  -5   20.62    2.24
   3 -11   5   21.29    1.75
   3 -11   6    7.09    0.92
  -3  11  -6    6.47    0.86
   3  11   6    5.92    1.10
  -3  11  -6    4.15    0.54
   3 -11   6    5.53    1.26
  -3 -11  -6    4.84    0.68
  -3  11  -6    4.48    1.18
   3 -11   7    1.95    0.53
  -3 -11  -7    1.62    0.41
  -3  11  -7    1.81    0.82
  -3  12   8    6.30    0.67
  -3 -12   8    6.13    0.61
  -3  12   8    4.98    0.62
   3 -12  -8    6.52    0.94
   3 -12  -8    5.51    0.56
  -3  12   7   16.96    1.34
  -3 -12   7   16.70    1.01
  -3 -12   7   15.89    1.18
  -3  12   7   15.51    1.32
   3 -12  -7   16.73    1.60
  -3  12   6   -0.46    1.20
  -3  12   6   -0.13    0.58
  -3 -12   6    0.10    0.36
  -3  12   6   -0.12    1.00
  -3 -12   6    0.14    0.38
   3 -12  -6    0.31    0.77
  -3  12   6    0.10    0.76
  -3  12   5    6.29    1.64
  -3  12   5    6.93    0.93
  -3 -12   5    5.30    0.74
   3 -12  -5    7.96    1.27
  -3 -12   5    6.73    0.83
  -3  12   5    6.72    1.26
  -3  12   4   -0.71    1.40
  -3  12   4    0.07    0.64
  -3 -12   4    0.51    0.41
  -3 -12   4   -0.05    0.53
   3 -12  -4    0.12    0.90
  -3 -12   4   -0.59    0.52
  -3  12   4    2.32    1.04
  -3  12   3   61.29    3.62
  -3 -12   3   58.06    3.52
  -3 -12   3   50.57    3.52
  -3  12   3   64.26    4.07
   3 -12  -3   61.10    3.55
  -3  12   2   58.98    3.56
  -3 -12   2   58.60    3.57
  -3  12   2   52.59    4.33
  -3 -12   2   53.90    3.56
   3 -12  -2   61.90    3.61
  -3 -12   2   65.02    3.75
  -3  12   1    7.44    0.84
  -3 -12   1    8.22    0.98
  -3  12   1    6.55    1.60
  -3 -12   1    5.51    0.81
   3 -12  -1    9.25    0.98
  -3  12   1    7.77    1.21
   3 -12  -1    8.09    1.63
  -3 -12   1    7.31    0.97
  -3  12   1   10.43    1.93
  -3 -12   0    0.36    0.59
  -3 -12   0   -0.11    0.60
  -3  12   0    0.35    1.35
  -3 -12   0    0.29    0.42
   3  12   0    0.60    0.41
   3 -12   0    0.27    0.55
   3 -12   0    0.17    1.18
  -3 -12   0    0.69    0.59
  -3 -12  -1    1.06    0.55
  -3 -12  -1    0.68    0.57
  -3  12  -1    0.27    0.56
   3  12   1    0.22    0.37
   3 -12   1    0.86    0.53
  -3 -12  -2    3.06    0.69
  -3  12  -2    3.36    0.72
   3 -12   2    4.69    0.71
   3 -12   2    2.76    1.33
  -3 -12  -3    1.13    0.57
  -3  12  -3    0.79    0.44
  -3  12  -3   -0.17    1.45
   3 -12   3    0.14    0.38
   3 -12   3    0.33    1.17
  -3 -12  -3    0.76    0.50
  -3  12  -3    0.50    1.27
   3 -12   4    9.43    1.23
  -3  12  -4    9.14    1.08
  -3 -12  -4    7.91    0.90
   3 -12   4    5.87    1.49
  -3  12  -4    9.71    1.64
   3 -12   5    7.01    0.99
  -3  12  -5    7.10    0.84
  -3 -12  -5    5.70    0.72
  -3  12  -5    5.27    0.70
   3 -12   5    6.99    1.40
  -3  12  -5    8.04    1.43
   3 -12   6    2.76    0.67
  -3 -12  -6    1.59    0.43
  -3  12  -6    2.37    0.60
   3  12   6    1.19    0.72
   3 -12   6    0.89    0.91
  -3  12  -6    1.92    0.92
  -3  13   7   38.25    2.15
  -3 -13   7   32.86    2.00
   3 -13  -7   34.34    2.40
   3 -13  -7   32.12    2.01
  -3  13   6    5.91    1.38
  -3  13   6    6.49    0.78
  -3 -13   6    6.27    0.57
   3 -13  -6    5.67    1.03
   3 -13  -6    5.41    0.66
  -3  13   6    4.08    0.91
  -3  13   5    0.65    0.50
   3 -13  -5    0.58    0.79
  -3 -13   5    0.32    0.40
  -3  13   5   -0.20    0.83
   3 -13  -5    0.69    0.43
  -3  13   4    8.07    1.63
  -3 -13   4    9.07    0.75
  -3 -13   4    7.31    0.84
  -3 -13   4    7.45    0.86
   3 -13  -4    7.66    1.23
   3 -13  -4    7.53    0.86
  -3  13   4    6.00    1.16
  -3  13   3    8.25    1.76
  -3  13   3    8.97    0.96
  -3 -13   3    9.57    0.80
  -3 -13   3    9.40    0.97
  -3 -13   3    7.69    0.91
   3 -13  -3    8.92    0.97
  -3  13   3    9.89    1.29
  -3  13   2    7.09    1.66
  -3  13   2    4.58    0.67
  -3 -13   2    4.36    0.62
  -3 -13   2    4.41    0.76
  -3  13   2    5.11    1.46
   3 -13  -2    5.01    0.74
  -3 -13   2    6.38    0.85
  -3  13   1   47.02    2.80
  -3 -13   1   44.43    2.82
  -3 -13   1   44.20    2.93
  -3  13   1   49.95    3.87
  -3 -13   1   43.32    2.90
   3  13  -1   53.96    2.84
  -3  13   1   48.37    3.24
   3 -13  -1   51.99    3.05
   3 -13  -1   45.72    3.66
  -3 -13   1   50.16    3.09
  -3 -13   0   23.96    1.75
  -3  13   0   24.93    1.84
   3  13   0   24.64    1.59
   3 -13   0   24.37    2.54
  -3 -13   0   21.34    1.78
  -3 -13  -1   20.79    1.56
  -3  13  -1   22.23    1.62
   3  13   1   20.12    1.41
   3 -13   1   25.59    1.71
  -3 -13  -1   21.16    1.67
  -3  13  -2    1.69    0.78
  -3  13  -2    1.52    0.49
  -3  13  -2    1.44    1.37
   3 -13   2    1.35    0.51
   3 -13   2    2.27    1.31
   3 -13   3   19.89    1.38
   3 -13   3   22.20    2.34
   3 -13   3   22.35    1.81
   3 -13   4    4.37    0.80
  -3  13  -4    3.77    0.68
   3 -13   4    2.49    1.18
   3 -13   5   87.02    5.11
   3 -13   5   95.97    4.62
  -3  14   6   17.13    1.14
  -3 -14   6   13.23    0.88
   3 -14  -6   14.55    1.34
   3  14  -6   15.56    0.97
  -3  14   6   13.50    1.30
   3 -14  -6   12.93    1.03
  -3  14   5    2.20    1.04
   3 -14  -5    2.38    0.76
   3  14  -5    1.84    0.40
  -3  14   5    2.50    0.78
   3 -14  -5    2.60    0.50
  -3  14   4    2.57    0.55
  -3 -14   4    2.24    0.51
  -3 -14   4    2.69    0.54
   3  14  -4    2.70    0.45
  -3  14   4    3.10    0.88
   3 -14  -4    2.91    0.55
  -3  14   3    4.95    1.36
  -3  14   3    4.67    0.66
  -3 -14   3    5.32    0.54
  -3 -14   3    4.88    0.71
  -3 -14   3    4.78    0.67
   3  14  -3    6.91    0.65
  -3  14   3    5.21    0.98
   3 -14  -3    5.14    0.69
  -3  14   2   -0.45    1.14
  -3  14   2    0.35    0.38
  -3 -14   2   -0.03    0.33
  -3 -14   2   -0.05    0.51
  -3  14   2   -0.09    0.72
   3 -14  -2    0.22    0.43
  -3  14   1    5.77    1.46
  -3 -14   1    4.32    0.55
  -3 -14   1    3.66    0.68
   3  14  -1    4.07    0.56
   3 -14  -1    3.64    0.67
   3 -14  -1    4.79    1.18
  -3 -14   1    5.21    0.77
  -3 -14   0   69.02    3.96
  -3 -14   0   64.09    3.82
  -3  14   0   74.05    4.02
   3  14   0   70.55    3.83
   3 -14   0   71.62    4.81
  -3 -14   0   67.26    4.07
  -3 -14  -1   -0.38    0.37
  -3 -14  -1    0.13    0.49
  -3  14  -1    0.08    0.39
  -3  14  -1   -1.16    1.41
   3 -14   1    0.27    0.41
   3 -14   1    0.44    1.16
  -3 -14  -1    0.59    0.46
  -3  14  -1    1.50    1.25
  -3 -14  -2    0.33    0.36
  -3  14  -2   -1.11    1.21
   3 -14   2    0.09    0.37
  -3 -14  -2    0.27    0.41
  -3  14  -3   15.33    1.24
   3 -14   3   12.10    0.89
  -3 -14  -3   10.95    0.94
   3 -14   3   14.10    1.77
   3 -14   3   15.81    1.32
  -3  14  -4   21.85    1.50
  -3 -14  -4   20.77    1.37
  -3  14  -4   22.55    1.46
   3 -14   4   23.79    2.10
   3 -14   4   26.89    1.73
   3 -14   5    3.64    0.58
  -3 -14  -5    2.35    0.32
  -3  15   5    0.39    0.32
  -3 -15   5    0.27    0.25
   3  15  -5    0.23    0.23
  -3  15   5    0.60    0.54
   3 -15  -5    0.03    0.30
  -3  15   4   -0.50    0.85
  -3  15   4    0.28    0.31
  -3 -15   4    0.20    0.34
  -3 -15   4   -0.08    0.31
   3  15  -4    0.22    0.31
  -3  15   4    0.49    0.62
   3 -15  -4    0.28    0.35
  -3  15   3    3.54    0.48
  -3 -15   3    4.58    0.60
  -3 -15   3    4.59    0.59
   3 -15  -3    5.69    0.66
   3  15  -3    4.27    0.51
  -3 -15   2   20.69    1.20
  -3 -15   2   17.92    1.36
   3  15  -2   18.21    1.28
   3 -15  -2   22.22    1.48
  -3  15   2   21.88    2.14
  -3  15   1   -0.13    1.00
  -3 -15   1    0.08    0.47
  -3  15   1    0.13    0.38
  -3 -15   1   -0.02    0.26
   3  15  -1   -0.03    0.34
   3 -15  -1    0.34    0.41
  -3 -15   1   -0.38    0.47
  -3 -15   0   17.42    1.15
  -3 -15   0   19.95    1.35
  -3  15   0   19.02    1.27
   3  15   0   18.05    1.22
   3 -15   0   20.36    1.96
  -3 -15   0   19.22    1.41
  -3 -15  -1    9.59    0.82
  -3 -15  -1    7.88    0.66
  -3  15  -1    7.96    1.46
   3 -15   1    9.52    0.85
   3 -15   1   11.23    1.51
  -3 -15  -1    7.75    0.86
  -3  15  -2   13.87    1.19
  -3 -15  -2   12.72    0.92
   3 -15   2   14.70    1.03
  -3 -15  -2   14.55    1.11
   3 -15   2   17.19    1.31
   3 -15   3    1.35    0.53
  -3  15  -3   -0.27    0.34
  -3 -15  -3    0.18    0.20
   3 -15   3    1.03    0.77
  -3  15  -3   -0.66    0.82
  -3 -16   3    4.97    0.51
  -3  16   3    4.92    0.54
   3 -16  -3    4.05    0.54
  -3 -16   2   35.83    2.07
  -3  16   2   32.79    2.02
   3 -16  -2   39.30    2.17
  -3  16   1   11.68    1.38
  -3 -16   1   11.17    0.89
   3 -16  -1   11.75    0.94
  -3  16   0    0.86    0.79
  -3  16   0    1.49    0.57
  -3 -16   0    1.34    0.38
  -3  16  -1    1.62    0.77
   3 -16   1    1.03    0.45
  -3 -16  -1    1.65    0.37
  -3  16  -1    1.73    0.46
   3 -16   1    1.31    0.32
  -3 -16  -1    1.21    0.37
  -3  16  -2    5.49    0.59
   3 -16   2    8.13    0.75
  -4   0  10    0.23    0.36
  -4   0   9   -0.10    0.47
  -4   0   8    4.10    0.71
  -4   0   7   -0.17    0.51
  -4   0   7    0.07    0.65
  -4   0   6   33.37    3.18
  -4   0   6   25.70    3.04
  -4   0   5    2.66    0.86
  -4   0   5    5.72    0.93
  -4   0   4    3.33    1.63
  -4   0   4    4.15    0.82
  -4   0   4    3.78    0.69
  -4   0   4    5.77    0.86
  -4   0   4    2.71    0.77
   4   0  -3    3.53    0.48
  -4   0   3    2.14    0.69
  -4   0   3    0.19    0.54
  -4   0   3    1.70    0.63
  -4   0   3    1.01    0.61
  -4   0   3    3.18    0.51
  -4   0   2   14.08    1.95
  -4   0   2   17.72    1.56
  -4   0   2   19.30    1.33
  -4   0   2   18.96    1.56
  -4   0   2   18.18    1.49
  -4   0   1    0.27    0.55
  -4   0   1    0.48    0.47
   4   0  -1   -0.08    0.64
  -4   0   1   -0.33    0.41
  -4   0   1    0.37    0.42
  -4   0   1    0.11    0.53
  -4   0   1    0.48    0.55
  -4   0   0    0.25    0.50
  -4   0   0    0.73    0.56
  -4   0   0    1.02    0.57
   4   0   0    0.30    0.66
  -4   0   0    0.64    0.40
  -4   0   0    0.96    0.43
  -4   0   0    0.81    0.59
  -4   0  -1   -0.09    0.37
  -4   0  -1    0.34    0.58
   4   0   1   -0.20    0.56
  -4   0  -1   -0.23    0.67
  -4   0  -1    0.23    0.65
  -4   0  -1   -0.40    0.70
  -4   0  -1   -0.06    0.51
  -4   0  -2  132.24    6.65
   4   0   2  133.81    6.73
  -4   0  -2  104.78    6.49
  -4   0  -2  120.07    6.91
  -4   0  -2  128.50    6.89
  -4   0  -2  122.11    6.89
  -4   0  -2  123.95    6.80
  -4   0  -3    0.17    0.41
   4   0   3    0.06    0.48
  -4   0  -3   -0.16    0.68
   4   0   3   -0.92    0.83
  -4   0  -3    0.50    0.74
  -4   0  -3   -0.32    0.73
  -4   0  -4   50.23    3.44
  -4   0  -4   55.40    3.35
   4   0   4   50.02    3.41
  -4   0  -4   52.07    3.37
  -4   0  -5    0.09    0.72
  -4   0  -5    0.28    0.64
   4   0   5    1.27    0.81
  -4   0  -5   -0.07    0.63
  -4   0  -5    0.08    0.67
  -4   0  -6   95.90    5.52
  -4   0  -6  100.32    5.56
   4   0   6   96.47    5.80
  -4   0  -6  102.51    5.66
  -4   0  -7   -0.41    0.58
   4   0   8    7.91    0.72
  -4   0  -8    8.97    0.86
  -4  -1  10    3.20    0.48
  -4   1  10    3.17    0.47
  -4  -1   9    0.24    0.47
  -4   1   9    0.05    0.45
  -4  -1   8    0.88    0.56
  -4   1   8    1.21    0.58
  -4  -1   7   25.35    1.97
  -4  -1   7   30.84    2.16
  -4   1   7   29.38    2.13
  -4   1   7   28.54    2.23
  -4   1   6  112.84    7.12
   4   1  -6  121.47    6.97
  -4  -1   6  128.03    7.16
  -4   1   6  130.01    7.16
  -4   1   6  122.66    7.29
  -4  -1   5   26.95    2.04
  -4   1   5   27.79    2.10
   4  -1  -5   25.71    1.78
   4   1  -5   29.26    1.91
  -4   1   5   34.16    1.98
  -4  -1   5   38.40    2.03
  -4  -1   5   29.04    2.06
  -4   1   5   28.41    2.05
  -4  -1   5   25.00    2.00
  -4   1   5   23.37    2.09
   4  -1  -5   27.14    2.04
   4  -1  -4    7.03    0.69
   4   1  -4    8.70    0.87
  -4  -1   4    5.74    0.94
  -4   1   4    5.66    0.94
  -4  -1   4   15.83    1.12
  -4  -1   4   15.77    1.02
  -4   1   4   10.26    0.97
  -4   1   4    6.95    0.90
  -4  -1   4    7.02    0.98
  -4   1   4    7.45    0.93
  -4  -1   4    5.67    0.87
  -4   1   4    4.79    0.98
  -4   1   3    3.64    1.41
   4   1  -3    4.84    0.64
  -4  -1   3    5.11    0.87
  -4   1   3    5.82    0.92
  -4   1   3    6.92    0.64
  -4   1   3    7.07    0.78
  -4  -1   3    7.13    0.79
  -4  -1   3    5.87    0.69
  -4  -1   3    5.27    0.78
  -4   1   3    5.31    0.82
  -4   1   3    7.58    0.89
  -4  -1   3    7.14    0.91
  -4  -1   3    4.77    0.78
  -4   1   3    5.62    0.95
  -4   1   2    0.15    1.08
  -4  -1   2    0.21    0.57
  -4   1   2    2.75    0.74
  -4  -1   2    1.17    0.48
  -4  -1   2    0.13    0.55
  -4   1   2    1.80    0.66
  -4   1   2    3.13    0.80
  -4  -1   2    0.64    0.58
  -4   1   2    1.34    0.62
  -4  -1   2    0.94    0.53
  -4   1   2    3.99    0.77
  -4   1   1    1.42    0.99
  -4  -1   1    0.47    0.56
  -4   1   1    0.69    0.55
  -4   1   1   -0.08    0.56
   4   1  -1    0.81    0.59
   4  -1  -1    1.09    0.72
  -4  -1   1    0.14    0.42
  -4   1   1    0.56    0.42
  -4  -1   1    1.18    0.46
  -4  -1   1    0.75    0.61
  -4   1   1    0.94    0.58
  -4  -1   1    1.20    0.60
  -4  -1   1    0.67    0.59
  -4   1   1    0.86    0.63
  -4  -1   0   16.78    1.44
  -4   1   0   16.24    1.42
  -4   1   0   17.51    1.57
   4   1   0   18.04    1.52
  -4  -1   0   15.40    1.31
  -4   1   0   17.34    1.49
  -4   1   0   23.16    1.26
  -4  -1   0   19.88    1.26
  -4   1   0   15.55    1.51
  -4  -1   0   15.25    1.54
  -4  -1   0   12.93    1.37
  -4  -1  -1   44.89    2.53
  -4   1  -1   38.06    2.46
  -4   1  -1   33.73    2.65
   4   1   1   39.96    2.51
  -4  -1  -1   39.99    2.43
  -4  -1  -1   41.34    2.67
  -4   1  -1   38.63    2.65
  -4  -1  -1   36.69    2.59
  -4   1  -1   36.91    2.62
  -4  -1  -1   38.53    2.66
  -4   1  -1   35.46    2.64
  -4  -1  -1   36.57    2.50
  -4   1  -2   40.44    2.38
   4   1   2   38.34    2.41
   4  -1   2   39.82    2.51
  -4  -1  -2   33.83    2.35
  -4  -1  -2   35.45    2.64
  -4   1  -2   40.83    2.71
  -4  -1  -2   36.98    2.60
  -4   1  -2   36.43    2.59
  -4  -1  -2   36.35    2.64
  -4   1  -2   38.22    2.66
  -4  -1  -2   36.33    2.54
  -4   1  -2   39.98    2.59
  -4  -1  -3   73.50    3.66
  -4   1  -3   72.00    3.63
   4   1   3   61.41    3.64
   4  -1   3   63.97    3.74
  -4  -1  -3   53.06    3.61
  -4   1  -3   59.41    3.98
  -4  -1  -3   63.71    3.91
  -4   1  -3   63.21    3.94
  -4  -1  -3   65.35    3.99
  -4   1  -3   59.50    3.93
  -4  -1  -3   49.84    4.62
  -4  -1  -3   64.52    3.94
  -4   1  -3   65.57    3.94
  -4  -1  -4    9.45    1.25
  -4   1  -4    7.79    1.23
  -4  -1  -4    9.16    1.10
  -4   1  -4    8.21    1.09
  -4   1  -4    9.03    1.17
   4   1   4   10.30    1.31
  -4  -1  -4    8.54    1.12
  -4   1  -5   25.15    2.09
  -4  -1  -5   24.01    1.88
  -4   1  -5   24.25    1.87
   4   1   5   21.83    2.07
  -4  -1  -5   25.02    1.92
  -4   1  -5   24.17    1.91
  -4  -1  -5   26.64    2.01
  -4   1  -5   24.65    1.95
  -4   1  -6    4.24    0.89
  -4   1  -6    3.60    0.72
   4   1   6    5.60    1.16
  -4  -1  -6    4.51    0.80
  -4   1  -6    4.01    0.77
  -4  -1  -6    4.41    0.90
  -4   1  -6    5.23    0.88
   4   1   7   24.22    1.81
   4   1   7   27.38    2.22
  -4  -1  -7   31.17    2.02
  -4   1  -7   34.98    2.10
   4  -1   8  133.63    6.91
  -4   1  -8  148.00    6.98
  -4  -2  10   28.33    1.70
  -4   2  10   27.08    1.66
  -4  -2   9    8.06    0.82
  -4   2   9    7.66    0.81
  -4  -2   8   24.62    1.76
  -4   2   8   23.88    1.72
  -4  -2   7   17.84    1.53
  -4   2   7   17.42    1.49
  -4  -2   6    1.59    0.53
  -4   2   6    0.97    0.67
  -4  -2   6    2.83    0.69
  -4  -2   6    2.61    0.71
  -4   2   6    2.46    0.68
  -4   2   6    2.13    0.82
   4  -2  -6    1.60    0.71
   4  -2  -5    7.75    0.73
   4   2  -5    8.21    0.88
  -4   2   5    8.19    1.07
  -4   2   5    6.65    0.93
  -4  -2   5    9.36    1.07
  -4   2   5    7.88    0.97
  -4   2   5    7.72    1.13
  -4  -2   4   13.91    1.41
  -4   2   4   16.76    1.53
   4   2  -4   17.45    1.36
  -4  -2   4   19.17    1.33
  -4   2   4   21.99    1.45
  -4  -2   4   19.38    1.38
  -4   2   4   13.79    1.43
  -4  -2   4   18.56    1.50
  -4   2   4   16.13    1.63
  -4   2   3   -1.44    1.32
  -4  -2   3   -0.21    0.55
   4   2  -3   -0.05    0.37
  -4   2   3    0.23    0.58
  -4  -2   3    0.28    0.41
  -4   2   3    1.08    0.58
  -4  -2   3    0.56    0.49
  -4  -2   3    0.05    0.42
  -4   2   3    1.03    0.59
  -4  -2   3    0.43    0.54
  -4   2   3    1.10    0.69
  -4   2   3    0.35    0.49
  -4   2   2    6.24    1.54
  -4  -2   2    4.12    0.81
   4   2  -2    4.34    0.59
  -4   2   2    3.99    0.78
  -4   2   2    4.04    0.73
  -4  -2   2    4.58    0.67
  -4   2   2    4.82    0.66
  -4  -2   2    4.14    0.70
  -4  -2   2    5.38    0.79
  -4   2   2    3.70    0.88
  -4  -2   2    3.88    0.66
  -4   2   2    4.92    0.81
  -4  -2   1   18.90    1.58
  -4   2   1   16.54    1.53
  -4   2   1   16.92    1.62
   4   2  -1   20.62    1.61
   4  -2  -1   19.76    1.76
  -4  -2   1   16.18    1.42
  -4   2   1   26.67    1.45
  -4  -2   1   19.59    1.38
  -4  -2   1   19.11    1.57
  -4   2   1   20.40    1.68
  -4  -2   1   25.84    1.65
  -4  -2   1   17.86    1.54
  -4   2   1   20.12    1.64
  -4   2   1   17.48    2.04
  -4  -2   0  232.66   12.29
  -4   2   0  218.05   12.47
   4   2   0  245.38   12.31
   4  -2   0  264.00   12.56
  -4  -2   0  215.68   12.17
  -4   2   0  235.61   12.37
  -4  -2   0  243.18   12.06
  -4  -2   0  235.54   12.35
  -4   2   0  230.49   12.42
  -4  -2   0  232.96   12.38
  -4   2   0  233.67   12.43
  -4   2   0  201.38   12.66
   4   2   1    2.78    0.59
  -4  -2  -1    1.58    0.57
  -4   2  -1    1.51    0.55
  -4  -2  -1    1.44    0.55
  -4   2  -1    2.25    0.78
  -4  -2  -1    1.28    0.40
  -4  -2  -1    1.80    0.72
  -4   2  -1    2.23    0.76
   4  -2   1    0.30    0.64
  -4  -2  -1    1.25    0.74
  -4   2  -1    1.82    0.77
  -4  -2  -1    1.79    0.65
  -4   2  -2   21.20    1.49
   4   2   2   18.76    1.45
  -4   2  -2   22.87    1.91
  -4  -2  -2   21.32    1.80
  -4  -2  -2   18.55    1.53
  -4   2  -2   22.91    1.85
  -4  -2  -2   20.42    1.71
  -4   2  -2   21.40    1.76
  -4  -2  -2   20.46    1.76
  -4   2  -2   23.10    1.84
  -4  -2  -2   18.40    1.66
  -4  -2  -2   17.27    2.33
  -4  -2  -3    1.05    0.49
  -4   2  -3    1.28    0.41
   4  -2   3    0.13    0.51
  -4  -2  -3    0.47    0.52
  -4   2  -3    0.74    0.78
  -4  -2  -3    0.53    0.63
  -4   2  -3    0.47    0.67
  -4  -2  -3    0.41    0.67
  -4   2  -3    0.34    0.72
  -4  -2  -3   -0.16    0.70
  -4  -2  -3   -1.53    1.48
  -4  -2  -4    1.29    0.56
  -4   2  -4    1.11    0.78
  -4  -2  -4    1.12    0.64
  -4   2  -4    2.10    0.71
   4   2   4    1.14    0.86
  -4  -2  -4    0.89    0.75
  -4   2  -4    1.54    0.71
  -4   2  -5    8.73    1.17
  -4   2  -5    8.29    1.02
  -4  -2  -5    6.10    0.97
  -4  -2  -5    8.58    1.10
   4   2   5    8.28    1.33
  -4   2  -5    6.78    0.99
  -4  -2  -5    7.34    1.12
  -4   2  -5    9.06    1.16
  -4   2  -6   13.94    1.47
  -4   2  -6   16.19    1.35
   4   2   6   13.20    1.16
  -4  -2  -6   14.78    1.35
   4   2   6   19.99    1.81
  -4   2  -6   16.16    1.38
  -4  -2  -6   16.26    1.45
  -4   2  -6   17.65    1.52
  -4  -2  -7   14.75    1.19
  -4   2  -7   14.11    1.14
   4   2   7   15.87    1.58
   4  -2   7   16.36    1.75
  -4  -2  -7   13.68    1.28
  -4   2  -7   16.70    1.33
   4  -2   8   21.67    1.50
  -4   2  -8   20.71    1.46
  -4  -3  10    3.39    0.45
  -4  -3   9    1.91    0.50
  -4   3   8    9.71    0.97
  -4  -3   8   10.01    0.99
  -4   3   8   10.07    1.19
  -4   3   7    2.30    0.68
  -4  -3   7    2.62    0.65
  -4  -3   7    2.69    0.69
  -4   3   7    3.08    0.86
   4  -3  -7    2.26    0.66
  -4  -3   6   13.81    1.23
  -4   3   6   13.75    2.42
  -4   3   6   15.07    1.45
  -4  -3   6   14.01    1.32
  -4  -3   6   16.75    1.42
   4  -3  -6   16.85    1.54
  -4   3   5   31.76    2.44
   4   3  -5   31.99    2.29
  -4  -3   5   41.48    2.31
  -4  -3   5   40.48    2.33
  -4  -3   5   41.56    2.48
   4   3  -5   32.20    2.20
  -4   3   5   26.03    3.24
   4   3  -4    3.27    0.56
  -4  -3   4    3.30    0.67
   4   3  -4    2.44    0.56
  -4   3   4    1.45    0.69
  -4  -3   4    3.07    0.63
  -4  -3   4    3.79    0.78
  -4   3   4    3.08    0.65
   4   3  -3   -0.24    0.39
  -4  -3   3    0.13    0.52
   4   3  -3   -0.23    0.36
  -4   3   3    0.08    0.61
  -4   3   3    0.22    0.48
  -4  -3   3    0.29    0.51
  -4   3   3    0.67    0.56
  -4  -3   3    0.25    0.57
  -4   3   3   -0.06    0.52
   4   3  -2   -0.26    0.35
  -4   3   2    1.31    1.24
  -4  -3   2   -0.07    0.50
   4   3  -2    0.22    0.32
  -4   3   2   -0.30    0.64
  -4   3   2   -0.08    0.51
  -4  -3   2    0.19    0.50
  -4  -3   2    0.16    0.41
  -4   3   2    0.32    0.64
  -4   3   2    0.05    0.51
  -4  -3   2    0.30    0.53
  -4  -3   2    0.59    0.42
  -4   3   2    0.07    0.57
  -4  -3   1   34.34    2.34
  -4   3   1   30.77    2.30
  -4   3   1   34.20    2.47
   4   3  -1   31.16    2.23
   4  -3  -1   33.58    2.50
  -4  -3   1   32.43    2.23
  -4   3   1   33.71    2.28
  -4  -3   1   33.20    2.13
  -4  -3   1   32.87    2.26
  -4   3   1   28.98    2.35
  -4   3   1   47.43    2.38
  -4  -3   1   46.53    2.42
  -4  -3   1   33.10    2.29
  -4   3   1   34.72    2.43
  -4   3   1   31.24    2.92
  -4  -3   0   91.11    4.97
   4   3   0   80.59    4.81
  -4   3   0   81.66    5.13
   4  -3   0   96.76    5.19
  -4  -3   0   87.34    4.90
  -4   3   0   92.07    5.06
  -4  -3   0   88.39    4.72
  -4  -3   0   85.24    4.94
  -4   3   0   81.13    5.05
  -4  -3   0   88.72    5.03
  -4   3   0   84.79    5.08
  -4   3   0   79.06    5.40
  -4  -3  -1   13.45    1.15
  -4   3  -1   11.73    1.11
   4  -3   1   12.32    1.26
  -4  -3  -1   10.52    1.11
  -4   3  -1   14.10    1.37
  -4  -3  -1   12.66    0.94
  -4   3  -1   10.78    1.26
  -4   3  -1   12.61    1.36
  -4  -3  -1   11.06    1.16
  -4  -3  -2   -0.10    0.51
  -4   3  -2    0.14    0.41
  -4   3  -2   -0.30    0.63
   4  -3   2    0.42    0.61
  -4  -3  -2    0.19    0.51
  -4  -3  -2   -0.07    0.63
  -4   3  -2    0.40    0.62
  -4  -3  -2    0.32    0.70
  -4   3  -2    0.85    0.73
  -4  -3  -2   -0.52    0.68
  -4   3  -2   -0.14    0.92
  -4  -3  -2   -0.87    1.22
  -4   3  -3   37.66    2.11
  -4   3  -3   34.17    2.63
  -4  -3  -3   34.09    2.32
  -4   3  -3   37.92    2.65
  -4  -3  -3   38.33    2.51
  -4   3  -3   36.31    2.49
  -4  -3  -3   40.40    2.60
  -4   3  -3   35.65    2.54
  -4  -3  -3   29.23    3.13
  -4  -3  -3   33.87    2.51
  -4   3  -3   27.84    2.78
   4   3   3   25.45    2.79
  -4  -3  -4    0.78    0.54
  -4   3  -4    0.83    0.73
  -4  -3  -4    0.22    0.60
  -4   3  -4    0.52    0.65
  -4  -3  -4    0.16    0.69
  -4   3  -4    0.24    0.67
  -4  -3  -5    7.46    0.93
  -4   3  -5   10.74    1.25
  -4  -3  -5    9.54    1.08
  -4   3  -5   10.86    1.12
  -4  -3  -5    9.34    1.13
   4   3   5   10.48    1.45
  -4   3  -5    8.67    1.10
  -4  -3  -5    8.52    1.14
  -4   3  -6   20.62    1.74
  -4  -3  -6   24.34    1.71
   4   3   6   20.40    2.00
  -4   3  -6   20.42    1.61
  -4  -3  -6   21.51    1.72
  -4   3  -6   20.91    1.70
  -4  -3  -7   31.87    2.07
  -4   3  -7   31.66    2.01
   4   3   7   32.13    2.46
   4  -3   7   31.87    2.59
  -4  -3  -7   32.00    2.15
  -4   3  -7   37.79    2.23
  -4  -4   9    4.30    0.59
  -4   4   9    3.08    0.49
  -4   4   9    3.22    0.70
  -4  -4   8   11.84    0.98
  -4   4   8    9.72    0.87
  -4   4   8   10.30    1.17
  -4   4   7   11.73    1.22
  -4  -4   7   11.46    1.13
  -4  -4   7   14.60    1.21
  -4   4   7   12.04    1.10
  -4   4   7   11.98    1.42
   4  -4  -7   10.51    1.24
  -4  -4   6    0.92    0.58
  -4  -4   6    0.36    0.46
  -4   4   6    1.28    0.54
  -4   4   6    1.39    0.80
   4  -4  -6    0.46    0.73
  -4  -4   5   63.72    3.65
  -4   4   5   53.30    3.78
   4   4  -5   56.14    3.64
  -4  -4   5   76.42    3.68
  -4  -4   5   73.41    3.69
  -4  -4   5   55.09    3.61
  -4  -4   5   65.15    3.77
  -4   4   5   64.74    3.67
  -4   4   5   66.28    4.08
   4   4  -5   57.20    3.59
  -4   4   5   51.95    4.75
   4   4  -4    1.09    0.49
  -4   4   4    2.41    1.57
   4   4  -4    0.76    0.52
  -4   4   4    0.73    0.68
  -4  -4   4    0.85    0.55
  -4  -4   4    1.95    0.65
  -4   4   4    2.08    0.57
  -4  -4   4    1.30    0.60
  -4   4   4    1.95    0.79
   4   4  -3    6.28    0.84
  -4  -4   3    7.43    0.84
  -4  -4   3    5.98    0.84
   4   4  -3    5.71    0.82
  -4   4   3    6.45    1.01
  -4  -4   3    6.36    0.83
  -4   4   3    7.96    0.84
  -4  -4   3    7.51    0.89
  -4   4   3    8.59    1.18
   4   4  -2    5.29    0.79
  -4   4   2    4.07    1.52
  -4  -4   2    6.04    0.84
   4   4  -2    5.34    0.77
  -4   4   2    6.83    0.96
  -4  -4   2    7.57    0.87
  -4  -4   2    5.20    0.75
  -4   4   2    5.33    0.95
  -4   4   2    8.65    0.85
  -4  -4   2    8.24    0.92
  -4   4   2    7.00    1.11
  -4   4   1    1.09    1.13
   4   4  -1    0.11    0.56
  -4  -4   1   -0.18    0.53
   4  -4  -1    0.54    0.71
  -4   4   1   -0.09    0.59
  -4  -4   1   -0.14    0.49
  -4  -4   1   -0.28    0.47
  -4   4   1    0.08    0.60
  -4  -4   1    0.29    0.57
  -4  -4   1    0.06    0.51
   4  -4  -1   -0.58    0.85
   4   4  -1    0.09    0.54
  -4  -4   0   29.27    1.97
  -4   4   0   26.30    1.92
   4  -4   0   33.59    2.23
  -4  -4   0   28.75    1.80
  -4  -4   0   28.93    1.97
  -4   4   0   29.38    2.14
  -4  -4   0   27.88    2.01
  -4   4   0   24.05    2.45
  -4   4  -1    0.74    0.92
  -4  -4  -1   -0.27    0.53
  -4   4  -1    0.17    0.47
   4  -4   1    0.23    0.54
  -4   4  -1    0.30    0.72
  -4  -4  -1    0.22    0.39
  -4  -4  -1    0.13    0.57
  -4   4  -1    0.57    0.68
  -4   4  -1    0.26    0.72
   4   4   1   -0.37    0.80
  -4  -4  -2   33.86    1.96
  -4   4  -2   24.61    1.73
   4  -4   2   31.82    2.05
  -4   4  -2   27.16    2.20
  -4   4  -2   24.02    2.02
  -4  -4  -2   28.26    2.12
  -4   4  -2   28.54    2.15
  -4  -4  -2   20.44    2.50
  -4  -4  -2   23.07    1.96
  -4   4  -2   24.51    2.56
   4  -4   3   24.37    1.72
  -4   4  -3   22.51    1.96
  -4   4  -3   24.18    1.95
  -4  -4  -3   23.44    1.78
  -4   4  -3   22.25    1.80
  -4  -4  -3   19.67    1.75
  -4   4  -3   22.14    1.84
  -4  -4  -3   21.56    1.80
  -4   4  -3   18.57    2.22
   4   4   3   15.79    2.06
  -4  -4  -3   18.37    2.36
  -4   4  -4   38.69    2.77
  -4  -4  -4   38.57    2.62
  -4   4  -4   42.90    2.69
  -4  -4  -4   40.32    2.71
  -4   4  -4   40.55    2.70
  -4   4  -4   31.34    3.01
  -4   4  -5   -0.25    0.72
  -4   4  -5    0.82    0.60
   4   4   5    0.30    0.93
  -4  -4  -5    0.70    0.65
  -4   4  -5    1.10    0.68
  -4  -4  -5    0.76    0.71
  -4   4  -6    2.68    0.74
   4   4   6    2.41    0.97
  -4  -4  -6    2.21    0.61
   4  -4   6    3.33    1.15
  -4  -4  -6    1.84    0.73
  -4   4  -6    2.67    0.72
  -4   4  -7    5.82    0.83
  -4   4  -7    4.88    0.63
   4   4   7    6.84    1.12
   4  -4   7    5.98    1.14
  -4   4  -7    8.20    0.84
  -4  -5   9    0.54    0.35
  -4   5   9    0.30    0.29
  -4   5   9   -0.35    0.56
  -4   5   8    0.11    0.46
  -4  -5   8   -0.52    0.48
  -4   5   8   -0.07    0.38
  -4   5   8    0.23    0.64
   4  -5  -8   -0.13    0.57
  -4   5   7   33.45    2.45
  -4  -5   7   39.99    2.40
  -4   5   7   34.35    2.26
  -4   5   7   35.73    2.66
   4  -5  -7   33.83    2.58
  -4   5   6   62.86    4.13
  -4  -5   6   76.93    3.97
  -4  -5   6   73.95    4.07
  -4   5   6   66.86    3.92
  -4   5   6   67.55    4.35
   4  -5  -6   72.83    4.44
  -4   5   6   54.95    5.09
  -4   5   5    0.42    1.50
  -4  -5   5    0.48    0.44
  -4   5   5    1.30    0.75
  -4  -5   5    0.44    0.48
  -4  -5   5   -0.36    0.57
  -4  -5   5    0.36    0.55
  -4   5   5    0.34    0.44
  -4   5   5    1.45    0.81
  -4   5   4  283.73   15.78
   4   5  -4  250.37   15.56
  -4  -5   4  326.60   15.57
  -4  -5   4  310.19   15.57
  -4   5   4  323.06   15.54
  -4  -5   4  348.48   15.70
  -4   5   4  309.22   16.04
  -4   5   4  259.85   16.68
   4   5  -4  270.62   15.60
  -4  -5   3  149.60    7.59
  -4   5   3  131.09    7.70
   4   5  -3  113.13    7.52
  -4  -5   3  145.04    7.55
  -4  -5   3  137.92    7.50
  -4   5   3  165.37    7.53
  -4  -5   3  173.17    7.68
  -4   5   3  134.08    7.95
  -4   5   3  135.67    8.69
   4   5  -3  113.16    7.56
   4   5  -2    5.15    0.90
  -4  -5   2    7.61    0.92
  -4   5   2    7.86    1.06
  -4  -5   2   11.18    1.04
   4  -5  -2    6.68    1.05
  -4  -5   2    7.82    0.90
  -4   5   2   12.45    0.96
  -4  -5   2   11.38    1.07
  -4   5   2    9.63    1.30
  -4   5   1    5.87    1.51
   4   5  -1    2.62    0.79
  -4  -5   1    5.14    0.77
   4  -5  -1    4.59    0.91
  -4  -5   1    4.28    0.76
  -4  -5   1    4.83    0.67
  -4   5   1    6.00    0.95
  -4  -5   1    4.53    0.75
   4  -5  -1    5.61    1.17
   4   5  -1    2.53    0.73
  -4   5   0   11.42    1.76
  -4  -5   0   11.49    1.07
   4   5   0    5.86    1.20
  -4   5   0   11.21    1.09
   4  -5   0   11.28    1.23
  -4   5   0   11.37    1.30
  -4  -5   0    9.28    1.07
  -4  -5   0    9.38    0.91
  -4  -5   0   10.57    1.01
  -4   5   0    9.49    1.17
  -4  -5   0   11.41    1.14
   4  -5   0   10.13    1.59
   4   5   0    6.77    1.17
  -4   5  -1    6.50    1.41
  -4  -5  -1    8.59    0.87
  -4   5  -1    6.42    0.79
   4  -5   1    6.47    0.95
  -4   5  -1    6.53    1.06
  -4  -5  -1    5.92    0.91
  -4  -5  -1    5.87    0.70
  -4  -5  -1    6.78    0.89
  -4   5  -1    6.94    1.03
   4   5   1    5.34    1.12
  -4  -5  -2    0.25    0.54
  -4   5  -2    0.20    0.34
  -4   5  -2   -0.21    0.75
   4  -5   2   -0.14    0.57
  -4  -5  -2    0.07    0.57
  -4  -5  -2    0.61    0.54
  -4   5  -2    0.40    0.62
  -4  -5  -2    0.08    0.64
  -4   5  -2   -0.09    0.76
  -4   5  -2   -0.16    1.20
  -4  -5  -2   -0.16    0.97
  -4   5  -3   20.07    1.81
  -4  -5  -3   17.55    1.54
  -4   5  -3   20.09    1.78
  -4  -5  -3   16.30    1.52
  -4   5  -3   21.91    1.70
  -4  -5  -3   21.12    1.71
  -4   5  -3   20.96    1.73
  -4   5  -3   16.67    2.17
   4  -5   3   18.00    1.51
  -4   5  -4   18.71    1.71
  -4  -5  -4   14.83    1.41
  -4   5  -4   17.95    1.68
  -4   5  -4   20.91    1.57
  -4  -5  -4   16.80    1.54
  -4   5  -4   18.79    1.58
  -4  -5  -5    8.15    0.97
  -4   5  -5    7.53    1.14
  -4  -5  -5   10.08    1.10
  -4   5  -5   10.50    1.08
   4  -5   5    9.58    1.51
  -4   5  -6    2.46    0.72
  -4   5  -6    2.06    0.53
  -4  -5  -6    2.96    0.67
   4  -5   6    2.23    0.99
  -4   5  -7    0.97    0.53
   4   5   7    1.56    0.78
  -4   5  -7    0.79    0.36
   4  -5   7    1.08    0.77
  -4   5  -7    1.95    0.54
  -4   6   9   19.41    1.48
  -4   6   8    0.40    0.45
  -4   6   8   -0.05    0.28
  -4   6   8    1.09    0.62
   4  -6  -8    0.20    0.55
  -4   6   7    9.74    1.06
  -4  -6   7   11.00    0.87
  -4   6   7    9.09    0.80
  -4  -6   7    9.63    0.92
  -4   6   7    8.80    1.19
   4  -6  -7    8.23    1.19
  -4   6   6    3.32    1.61
  -4   6   6    7.09    0.97
  -4  -6   6    4.64    0.72
  -4   6   6    5.51    0.64
  -4  -6   6    5.09    0.74
  -4   6   6    5.94    1.05
   4  -6  -6    5.51    1.15
  -4  -6   5    6.31    0.69
  -4   6   5    3.16    1.74
  -4   6   5    4.34    0.92
  -4  -6   5    6.38    0.77
  -4  -6   5    5.56    0.80
  -4   6   5    5.37    0.65
  -4  -6   5    5.86    0.80
  -4   6   5    6.20    1.10
  -4  -6   4   98.05    5.01
  -4   6   4   86.37    5.26
   4   6  -4   73.78    5.03
  -4  -6   4   92.65    5.03
  -4  -6   4   96.96    5.08
  -4   6   4   96.71    4.93
  -4  -6   4  103.81    5.14
  -4   6   4   92.19    5.51
  -4   6   4   78.85    6.19
   4   6  -4   75.30    5.04
  -4   6   3  129.92    7.53
   4   6  -3  103.94    7.31
  -4  -6   3  141.28    7.38
  -4  -6   3  137.10    7.35
  -4   6   3  172.13    7.30
  -4  -6   3  168.28    7.47
  -4   6   3  134.02    7.80
  -4   6   3  133.07    8.53
   4   6  -3  104.28    7.37
  -4  -6   2  202.77    9.68
  -4   6   2  173.23    9.78
   4  -6  -2  180.03    9.92
  -4  -6   2  181.33    9.68
  -4  -6   2  177.84    9.62
  -4  -6   2  248.02    9.83
  -4   6   2  182.68   10.11
  -4   6   2  192.97   10.85
   4   6  -2  126.01    9.62
  -4  -6   1    7.55    0.82
   4   6  -1    1.81    0.78
  -4   6   1    3.63    0.74
   4  -6  -1    6.81    1.02
  -4  -6   1    5.47    0.83
  -4   6   1    6.00    0.97
  -4  -6   1    5.35    0.75
   4  -6  -1    5.74    1.21
   4   6   0   31.84    3.53
  -4  -6   0   65.09    3.41
  -4   6   0   56.01    3.35
   4  -6   0   61.51    3.59
  -4   6   0   57.65    3.72
  -4  -6   0   57.78    3.44
  -4  -6   0   55.63    3.24
  -4  -6   0   57.64    3.30
  -4   6   0   57.42    3.58
  -4  -6   0   63.82    3.49
   4  -6   0   64.51    4.15
   4   6   0   39.66    3.45
  -4   6   0   65.66    4.33
  -4   6  -1    5.06    1.33
  -4  -6  -1    6.38    0.82
   4   6   1    1.36    0.89
  -4   6  -1    4.40    0.64
   4  -6   1    6.13    0.86
  -4   6  -1    3.62    0.94
  -4  -6  -1    4.48    0.80
  -4  -6  -1    4.48    0.65
  -4  -6  -1    4.84    0.74
  -4   6  -1    5.02    0.87
   4  -6   1    3.92    1.31
   4   6   1    2.30    0.87
   4  -6   2   33.07    2.12
  -4   6  -2   28.84    2.33
  -4  -6  -2   29.03    2.08
  -4  -6  -2   28.52    2.04
  -4   6  -2   29.40    2.15
  -4  -6  -2   32.99    2.19
  -4   6  -2   29.60    2.21
  -4   6  -2   22.70    2.72
   4   6   2   20.06    2.23
   4  -6   3    0.50    0.57
  -4   6  -3    0.40    0.71
  -4  -6  -3    0.27    0.60
  -4   6  -3    0.66    0.64
  -4  -6  -3    0.08    0.64
  -4   6  -3    0.24    0.66
   4  -6   3    0.15    1.05
  -4   6  -3   -0.32    1.15
  -4   6  -4   17.07    1.66
  -4  -6  -4   13.51    1.37
  -4   6  -4   19.66    1.71
  -4  -6  -4   20.14    1.61
  -4   6  -4   19.69    1.59
   4  -6   4   24.08    2.33
  -4   6  -4   13.67    1.97
   4  -6   4   19.19    1.45
  -4  -6  -5   37.58    2.54
  -4   6  -5   45.60    2.85
  -4   6  -5   46.96    2.65
  -4  -6  -5   37.83    2.64
  -4   6  -5   40.14    2.64
   4  -6   5   50.91    3.49
  -4   6  -5   38.65    3.15
  -4   6  -6   -0.06    0.61
  -4  -6  -6    0.25    0.43
  -4   6  -6    0.19    0.35
  -4   6  -6   -0.04    0.44
   4  -6   6   -0.36    0.85
  -4   6  -7    0.77    0.48
  -4   6  -7    1.19    0.30
  -4   6  -7    1.72    0.48
  -4   7   9   17.94    1.35
  -4   7   8    6.25    0.77
  -4   7   8    5.32    0.88
   4  -7  -8    5.87    0.95
  -4   7   7   -1.06    1.37
  -4   7   7    0.43    0.52
  -4  -7   7    0.96    0.44
  -4   7   7    0.98    0.72
   4  -7  -7    1.32    0.79
  -4   7   6    2.38    1.55
  -4   7   6    3.54    0.77
  -4  -7   6    2.97    0.61
  -4   7   6    2.33    0.87
  -4   7   5    2.06    1.66
  -4   7   5    1.55    0.70
  -4  -7   5    1.08    0.49
  -4  -7   5    0.88    0.53
  -4   7   5    1.11    0.80
  -4   7   4    3.24    1.69
  -4  -7   4    4.72    0.64
  -4   7   4    3.09    0.81
  -4  -7   4    4.71    0.70
  -4  -7   4    4.79    0.79
  -4   7   4    4.44    1.03
  -4   7   3  115.57    6.48
   4  -7  -3  118.50    6.55
  -4  -7   3  122.08    6.31
  -4  -7   3  129.74    6.36
  -4   7   3  132.77    6.89
  -4   7   3  123.96    7.64
   4   7  -2    7.86    1.03
  -4   7   2   11.34    1.99
  -4  -7   2   12.71    1.04
  -4  -7   2   10.02    1.07
   4  -7  -2    9.96    1.15
  -4  -7   2   10.93    1.05
  -4   7   1   99.37    5.76
   4  -7  -1  112.03    5.97
  -4  -7   1  104.44    5.78
  -4  -7   1  105.51    5.69
  -4   7   1  100.55    5.96
   4  -7  -1  105.90    5.67
   4  -7  -1  108.29    6.40
  -4  -7   0   22.83    1.47
   4   7   0    9.95    1.55
  -4   7   0   16.85    1.36
   4  -7   0   18.94    1.55
  -4   7   0   18.20    1.73
  -4  -7   0   15.29    1.42
  -4  -7   0   16.76    1.31
  -4   7   0   18.27    1.62
  -4  -7   0   18.38    1.46
   4  -7   0   18.47    2.06
   4   7   0   13.47    1.44
  -4   7   0   22.27    2.38
  -4   7  -1   22.24    1.55
   4  -7   1   26.13    1.82
  -4   7  -1   25.21    2.08
  -4  -7  -1   22.75    1.78
  -4  -7  -1   22.47    1.55
  -4   7  -1   24.53    1.89
  -4  -7  -1   25.09    1.81
   4  -7   1   24.95    2.42
  -4   7  -1   26.72    2.51
  -4   7  -2   16.23    1.64
  -4   7  -2   15.91    1.47
  -4  -7  -2   15.98    1.44
  -4   7  -3  153.93    9.10
  -4  -7  -3  151.14    8.79
  -4   7  -3  174.29    8.91
  -4  -7  -3  169.79    8.91
  -4   7  -3  163.63    8.95
   4  -7   3  179.27    9.71
   4  -7   3  164.71    8.95
   4  -7   4    0.67    0.58
  -4   7  -4   -0.35    0.65
  -4  -7  -4    0.18    0.56
  -4   7  -4   -0.25    0.69
  -4  -7  -4   -0.07    0.63
  -4   7  -4    0.34    0.59
   4  -7   4    1.87    1.15
   4  -7   5   -0.08    0.42
  -4  -7  -5   -0.60    0.55
  -4   7  -5    0.50    0.64
  -4   7  -5   -0.14    0.44
  -4   7  -5    0.06    0.56
   4  -7   5   -0.66    0.99
  -4  -7  -6    0.15    0.39
  -4   7  -6    0.69    0.55
   4   7   6    1.29    0.77
  -4   7  -6    0.76    0.42
   4  -7   6    0.79    0.87
  -4   8   8   12.05    1.03
  -4  -8   8   14.33    0.89
  -4   8   8   12.05    1.18
  -4   8   7    7.58    0.89
  -4  -8   7    7.89    0.70
  -4   8   7    6.24    0.94
  -4   8   6   -0.93    1.26
  -4   8   6   -0.14    0.55
  -4  -8   6    0.38    0.45
  -4   8   6    0.70    0.72
   4  -8  -6   -0.61    0.80
  -4   8   5   13.84    1.39
  -4  -8   5   17.90    1.27
  -4  -8   5   14.63    1.23
  -4  -8   5   18.18    1.25
  -4   8   5   15.28    1.59
   4  -8  -5   18.05    1.87
  -4   8   4   20.55    2.67
  -4   8   4   22.44    1.84
  -4  -8   4   23.06    1.66
  -4  -8   4   24.31    1.73
  -4  -8   4   29.37    1.74
  -4   8   4   22.31    2.05
  -4   8   3  327.06   18.66
  -4  -8   3  347.12   18.53
  -4  -8   3  345.26   18.54
  -4   8   3  328.55   18.96
  -4   8   3  347.41   19.78
  -4   8   2   18.40    2.39
  -4  -8   2   22.80    1.44
  -4   8   2   14.13    1.45
  -4  -8   2   19.93    1.49
  -4  -8   2   17.81    1.45
  -4   8   1   85.15    5.39
  -4  -8   1   88.53    5.43
  -4  -8   1   93.33    5.37
  -4   8   1   88.67    5.60
   4  -8  -1   98.71    5.40
   4  -8  -1   94.75    6.08
  -4   8   1  107.64    6.59
  -4   8   0    2.51    0.56
  -4   8   0    4.24    0.99
  -4  -8   0    3.17    0.71
  -4  -8   0    2.88    0.62
  -4   8   0    3.18    0.82
   4  -8   0    2.33    1.16
  -4   8  -1   19.98    1.82
  -4  -8  -1   17.98    1.51
  -4  -8  -1   17.40    1.33
  -4   8  -1   19.46    1.62
  -4  -8  -1   17.42    1.50
   4  -8   1   20.85    2.25
  -4   8  -1   23.69    2.36
  -4   8  -2    3.64    0.94
  -4  -8  -2    3.61    0.73
  -4   8  -2    3.52    0.77
   4  -8   3    0.93    0.69
  -4   8  -3    0.64    0.73
  -4  -8  -3    0.42    0.56
  -4  -8  -3    0.59    0.60
  -4   8  -3    0.51    0.71
   4  -8   3    1.62    1.06
  -4   8  -3    0.77    1.07
   4  -8   4    3.46    0.72
  -4   8  -4    4.28    0.84
  -4  -8  -4    3.19    0.64
  -4   8  -4    4.57    0.89
  -4   8  -4    3.80    0.66
  -4   8  -4    3.09    0.72
   4  -8   4    2.80    1.12
  -4   8  -4    3.53    1.38
  -4  -8  -5   35.16    2.37
  -4   8  -5   42.18    2.61
  -4   8  -5   40.52    2.34
   4  -8   5   40.62    3.12
   4  -8   5   40.07    2.39
  -4  -8  -6    6.45    0.64
  -4   8  -6    7.37    0.81
  -4   8  -6    5.57    0.60
   4   8   6    6.95    0.99
  -4   9   8    1.28    0.40
  -4   9   8    1.26    0.50
  -4   9   7   70.97    3.92
  -4   9   7   61.80    4.00
   4  -9  -7   72.94    4.21
  -4   9   6    1.85    1.38
  -4   9   6    3.11    0.69
  -4  -9   6    3.12    0.53
  -4   9   6    3.21    0.80
   4  -9  -6    4.16    0.99
  -4   9   5   15.68    2.19
  -4   9   5   17.03    1.50
  -4  -9   5   20.90    1.37
  -4  -9   5   18.55    1.37
  -4   9   5   15.59    1.64
  -4   9   4    3.83    1.63
  -4   9   4    4.23    0.77
  -4  -9   4    3.32    0.59
  -4  -9   4    3.40    0.71
  -4   9   4    2.40    0.86
  -4  -9   3  122.74    6.40
  -4  -9   3  114.13    6.38
  -4   9   3  111.94    7.50
  -4   9   2   22.05    1.75
  -4  -9   2   25.74    1.75
  -4  -9   2   23.97    1.73
   4  -9  -2   23.65    1.72
  -4   9   2   29.17    2.82
  -4   9   1   -0.35    1.29
  -4   9   1   -0.11    0.47
  -4  -9   1    0.06    0.52
  -4  -9   1    0.26    0.57
  -4   9   1   -0.08    0.67
   4  -9  -1    0.05    0.42
  -4   9   0   41.60    2.55
  -4   9   0   46.31    3.10
  -4  -9   0   40.73    2.71
  -4   9   0   45.05    2.89
   4  -9   0   47.29    3.52
  -4   9  -1    7.24    1.09
  -4  -9  -1    4.24    0.80
  -4   9  -1    6.30    0.91
   4  -9   1    6.18    1.42
  -4   9  -2    6.70    1.40
  -4   9  -2    5.57    0.96
  -4  -9  -2    3.75    0.75
   4  -9   3    3.74    0.83
  -4   9  -3    5.11    0.96
  -4  -9  -3    2.83    0.64
  -4   9  -3    4.79    0.73
  -4   9  -3    5.81    0.86
   4  -9   3    5.73    1.34
   4  -9   4    0.18    0.57
  -4   9  -4    0.30    0.59
  -4  -9  -4   -0.34    0.49
  -4   9  -4    1.17    0.69
  -4   9  -4    0.51    0.39
  -4   9  -4    0.45    0.54
   4  -9   4    1.06    1.02
   4  -9   5    0.47    0.42
  -4  -9  -5   -0.04    0.39
  -4   9  -5    0.06    0.51
  -4   9  -5   -0.18    0.27
   4   9   5    0.50    0.66
   4  -9   5    0.58    0.79
  -4  -9  -6    0.72    0.31
  -4   9  -6    0.79    0.48
  -4  10   7   15.15    1.10
  -4  10   7   10.97    1.13
   4 -10  -7   13.71    1.31
  -4  10   6    5.40    1.42
  -4  10   6    6.13    0.76
  -4 -10   6    6.01    0.63
  -4  10   6    5.93    0.87
   4 -10  -6    4.98    1.01
  -4  10   5    3.79    1.43
  -4  10   5    5.06    0.77
  -4 -10   5    4.99    0.64
  -4  10   5    4.55    0.90
   4 -10  -5    5.32    1.10
  -4  10   4    2.08    1.24
  -4  10   4    2.82    0.65
  -4 -10   4    3.84    0.59
  -4 -10   4    2.51    0.59
  -4 -10   3   35.30    2.17
  -4 -10   3   33.19    2.19
   4 -10  -3   35.40    2.25
  -4  10   3   34.76    3.25
  -4  10   2    0.85    1.23
  -4  10   2    0.55    0.47
  -4 -10   2    0.45    0.46
  -4 -10   2   -0.15    0.53
   4 -10  -2    0.49    0.41
  -4  10   1   11.67    1.81
  -4  10   1    8.59    0.84
  -4 -10   1    8.49    0.92
  -4 -10   1    7.99    0.90
  -4  10   1    8.97    1.10
   4 -10  -1    9.27    0.91
  -4  10   0    0.47    1.14
  -4  10   0    0.57    0.73
  -4 -10   0    0.81    0.53
  -4  10   0   -0.07    0.61
   4 -10   0    0.18    0.35
   4 -10   0   -0.14    1.11
  -4  10  -1    3.28    0.89
  -4 -10  -1    2.65    0.64
  -4  10  -1    3.57    0.74
   4 -10   1    4.21    1.28
  -4  10  -2    2.64    1.12
  -4  10  -2    1.44    0.74
  -4 -10  -2    2.70    0.62
  -4  10  -2    2.28    0.62
   4 -10   2    4.28    1.31
   4 -10   3    0.90    0.65
  -4  10  -3    0.53    0.58
  -4 -10  -3   -0.10    0.48
  -4  10  -3    0.09    0.43
  -4  10  -3   -0.06    0.53
   4 -10   3   -0.54    1.03
  -4  10  -4    6.19    0.88
  -4 -10  -4    7.09    0.77
  -4  10  -4    9.78    1.01
  -4  10  -4    7.87    0.69
  -4  10  -4    8.40    0.87
   4 -10   4    8.56    1.38
   4 -10   4    8.81    0.90
   4 -10   5   -0.03    0.35
  -4 -10  -5    0.35    0.34
  -4  10  -5    0.19    0.45
   4  10   5    0.06    0.57
  -4  10  -5   -0.06    0.34
   4 -10   5    0.10    0.76
  -4  11   6    0.76    0.44
  -4 -11   6    1.44    0.35
   4 -11  -6    2.40    0.74
   4 -11  -6    1.65    0.41
  -4  11   5    7.34    1.48
  -4  11   5    7.89    0.86
  -4 -11   5    8.98    0.76
   4 -11  -5    7.26    0.78
  -4  11   4    7.16    1.53
  -4 -11   4    7.65    0.71
  -4 -11   4    7.47    0.77
   4 -11  -4    8.43    1.26
   4 -11  -4    6.02    0.77
  -4  11   3    0.16    1.04
  -4  11   3    0.99    0.51
  -4 -11   3    1.11    0.46
  -4 -11   3    0.04    0.46
   4 -11  -3    0.89    0.46
  -4  11   2    2.94    1.27
  -4  11   2    2.42    0.50
  -4 -11   2    3.11    0.54
  -4 -11   2    2.47    0.58
  -4  11   2    2.02    0.60
   4 -11  -2    1.80    0.51
  -4  11   1    7.16    1.51
  -4  11   1    3.34    0.49
  -4 -11   1    3.97    0.64
  -4 -11   1    4.56    0.65
  -4  11   1    6.04    0.86
   4 -11  -1    5.49    0.69
  -4  11   0    6.79    1.46
  -4  11   0    6.18    1.04
  -4 -11   0    4.91    0.71
  -4  11   0    4.94    0.82
   4 -11   0    5.92    0.65
   4 -11   0    6.29    1.30
  -4  11  -1    1.39    0.71
  -4 -11  -1    0.38    0.47
   4 -11   1   -0.40    0.97
  -4  11  -2    1.36    0.97
  -4  11  -2    1.72    0.64
  -4 -11  -2    1.66    0.49
  -4  11  -2    2.20    0.54
   4 -11   2    1.82    0.97
  -4  11  -3    9.99    1.08
  -4 -11  -3   10.46    0.92
  -4  11  -3   11.37    0.88
  -4  11  -3   12.95    1.10
   4 -11   4    1.48    0.50
  -4 -11  -4    0.75    0.37
  -4  11  -4    1.36    0.55
   4 -11   4    2.02    0.92
  -4  12   5    1.16    0.91
  -4  12   5    1.76    0.46
  -4 -12   5    1.10    0.34
   4 -12  -5    2.58    0.70
   4 -12  -5    0.98    0.39
  -4  12   4    9.82    1.64
  -4  12   4   10.15    0.91
  -4 -12   4   10.50    0.86
   4 -12  -4   11.16    0.94
  -4  12   3   21.65    1.45
  -4 -12   3   24.32    1.49
  -4  12   3   21.58    1.62
   4  12  -3   18.34    1.30
  -4  12   3   21.68    2.28
  -4  12   2   -0.82    1.10
  -4  12   2    0.79    0.35
  -4 -12   2    0.31    0.37
  -4 -12   2    0.53    0.44
  -4  12   2    0.73    0.53
   4  12  -2    0.54    0.25
   4 -12  -2    0.83    0.42
  -4 -12   1   64.30    3.68
  -4 -12   1   65.09    3.68
  -4  12   1   68.13    3.86
   4 -12  -1   66.35    3.72
  -4  12   1   75.59    4.68
  -4  12   0   43.58    2.70
  -4 -12   0   40.42    2.34
   4 -12   0   35.34    2.23
  -4  12   0   49.00    3.29
  -4  12  -1    0.46    0.85
  -4  12  -1    0.21    0.56
  -4 -12  -1    0.15    0.35
  -4  12  -1   -0.26    0.40
   4 -12   1    1.32    0.84
   4 -12   2    1.38    0.62
  -4  12  -2    0.31    0.51
  -4 -12  -2    0.62    0.37
  -4  12  -2    0.25    0.33
  -4  12  -2    0.60    0.51
   4 -12   2    0.55    0.83
  -4  12  -3    2.72    0.56
  -4 -12  -3    1.93    0.42
  -4  13   4   20.33    1.38
  -4 -13   4   24.54    1.41
  -4  13   4   24.63    1.56
   4 -13  -4   24.07    1.50
  -4  13   4   19.29    2.01
  -4  13   3    0.79    0.96
  -4  13   3    0.12    0.24
  -4 -13   3    0.30    0.29
  -4 -13   3    0.48    0.36
  -4  13   3   -0.04    0.43
   4 -13  -3    0.65    0.63
   4 -13  -3    0.28    0.31
  -4  13   2    1.03    0.92
  -4 -13   2    0.28    0.30
  -4 -13   2    0.69    0.38
  -4  13   2   -0.18    0.43
   4 -13  -2    0.45    0.33
  -4  13   1    4.85    1.16
  -4  13   1    3.85    0.74
  -4 -13   1    4.39    0.49
  -4 -13   1    4.42    0.52
   4 -13  -1    3.55    0.48
  -4  13   0    2.74    0.95
  -4  13   0    1.63    0.58
  -4 -13   0    1.89    0.39
  -4 -13   0    1.62    0.40
  -4  13   0    1.27    0.44
  -4  13  -1   27.94    1.88
  -4 -13  -1   25.71    1.61
  -4  13  -1   26.70    1.61
  -4  13  -1   30.43    2.26
   4 -13   2    1.15    0.49
  -4  13  -2    0.90    0.45
  -4 -13  -2    0.81    0.28
  -4  13  -2    0.95    0.42
  -4  14   1    6.19    0.74
  -4 -14   1    5.95    0.54
  -4  14   1    6.89    0.59
  -5   0   7    2.94    0.54
  -5   0   6   24.71    1.68
  -5   0   6   27.76    1.72
  -5   0   5   -0.49    0.51
  -5   0   5   -0.31    0.44
  -5   0   4   12.12    1.15
  -5   0   4   13.76    1.14
  -5   0   3   -0.40    0.55
  -5   0   2   13.40    1.20
  -5   0   1    0.05    0.51
  -5   0   1   -0.06    0.48
  -5   0   0   36.46    2.24
  -5   0   0   33.99    2.32
  -5   0  -1   -0.54    0.56
  -5   0  -1    0.19    0.61
  -5   0  -2    7.93    0.72
  -5   0  -2    7.30    0.87
  -5   0  -2    5.84    0.89
  -5   0  -3   -0.05    0.46
  -5   0  -3    0.11    0.51
  -5   0  -4    0.27    0.41
  -5   0  -4   -0.09    0.47
  -5   0  -5   -0.07    0.37
  -5   1   7   13.51    0.98
  -5  -1   7   13.34    1.00
  -5   1   6    7.19    0.79
  -5   1   6    8.73    0.81
  -5  -1   6    6.93    0.76
  -5  -1   5    1.87    0.53
  -5   1   5    1.06    0.49
  -5   1   5    0.63    0.44
  -5  -1   5    1.21    0.52
  -5  -1   4   43.46    3.04
  -5   1   4   43.31    3.06
  -5   1   4   64.10    3.14
  -5  -1   4   61.90    3.15
  -5  -1   3   59.11    3.40
  -5   1   3   54.89    3.39
  -5  -1   2    3.84    0.71
  -5   1   2    4.24    0.74
  -5   1   2    3.07    0.67
  -5  -1   1   54.46    3.24
  -5   1   1   55.15    3.27
  -5  -1   0    0.50    0.44
  -5   1   0    0.28    0.45
  -5  -1   0   -0.17    0.54
  -5   1   0    0.06    0.54
  -5   1   0   -0.31    0.63
  -5  -1  -1    4.34    0.64
  -5   1  -1    3.94    0.58
  -5  -1  -1    3.88    0.70
  -5   1  -1    3.77    0.72
  -5   1  -1    3.09    0.72
  -5   1  -2    1.44    0.38
  -5  -1  -2    1.17    0.56
  -5   1  -2    0.76    0.58
  -5  -1  -2    1.25    0.62
  -5   1  -2    1.84    0.66
  -5  -1  -3   50.19    3.04
  -5   1  -3   48.70    3.05
  -5  -1  -3   50.22    3.06
  -5   1  -3   53.88    3.15
  -5  -1  -4   12.91    1.16
  -5   1  -4   14.90    1.19
  -5  -1  -4   15.92    1.24
  -5  -1  -5    2.87    0.51
  -5   1  -5    4.29    0.56
  -5  -2   7    4.22    0.55
  -5   2   6    0.17    0.43
  -5  -2   6    0.12    0.41
  -5  -2   5   24.51    1.70
  -5   2   5   22.77    1.74
  -5  -2   4   35.31    2.35
  -5   2   4   30.46    2.36
  -5  -2   4   41.50    2.28
  -5  -2   4   46.30    2.45
  -5  -2   3    4.11    0.69
  -5   2   3    2.07    0.64
  -5  -2   2    0.46    0.52
  -5   2   2    0.11    0.55
  -5  -2   1   -0.15    0.49
  -5   2   1    0.88    0.51
  -5   2   1    0.75    0.58
  -5  -2   0   24.69    1.64
  -5   2   0   22.72    1.75
   5  -2   0   21.11    1.90
  -5  -2  -1   28.24    1.66
  -5   2  -1   23.78    1.57
  -5   2  -1   23.09    1.80
  -5   2  -1   21.88    1.77
  -5   2  -2   57.18    2.81
  -5  -2  -2   44.43    2.99
  -5   2  -2   50.20    3.09
  -5  -2  -2   45.07    3.03
  -5   2  -2   49.16    3.10
  -5  -2  -3   -0.24    0.46
  -5   2  -3   -0.72    0.54
  -5  -2  -3   -0.05    0.51
  -5   2  -3    0.55    0.54
  -5   2  -4    0.43    0.44
  -5  -2  -4    0.72    0.47
  -5   2  -4    0.28    0.46
   5  -2   4    1.57    0.79
  -5   3   7   12.89    0.83
  -5  -3   7   12.53    0.90
  -5   3   6    8.98    0.89
  -5   3   6    9.80    0.82
  -5   3   5    4.53    0.71
  -5  -3   5    6.36    0.69
  -5   3   5    6.16    0.66
  -5  -3   5    6.38    0.75
  -5  -3   4    3.02    0.58
  -5   3   4    3.60    0.68
  -5  -3   4    3.54    0.58
  -5  -3   4    2.73    0.63
  -5  -3   3   61.52    3.60
  -5   3   3   60.55    3.68
  -5  -3   3   70.13    3.52
  -5   3   3   56.85    3.63
  -5  -3   2    8.12    0.87
  -5   3   2    6.53    0.85
  -5  -3   2    8.99    0.77
  -5  -3   1   17.21    1.28
  -5   3   1   16.28    1.30
  -5   3   1   14.15    1.36
  -5  -3   0    0.31    0.45
  -5   3   0   -0.09    0.41
  -5   3   0    0.26    0.57
  -5  -3  -1    1.02    0.46
  -5   3  -1    0.62    0.35
  -5   3  -1    0.99    0.56
  -5  -3  -1    0.11    0.55
  -5   3  -1    1.56    0.62
   5  -3   1   -0.69    0.79
  -5   3  -2   20.26    1.22
  -5   3  -2   19.02    1.54
  -5  -3  -2   20.61    1.54
  -5   3  -2   19.73    1.56
   5  -3   2   20.02    1.94
  -5   3  -3    0.60    0.48
  -5  -3  -3    0.15    0.47
  -5   3  -3    0.43    0.54
  -5   3  -4    1.38    0.46
  -5  -3  -4    1.39    0.47
  -5   3  -4    0.66    0.48
   5  -3   4    0.54    0.75
  -5   4   7    0.33    0.33
  -5  -4   7    0.19    0.31
  -5   4   6    0.71    0.42
  -5  -4   6    1.60    0.45
  -5   4   5    5.70    0.76
  -5  -4   5    6.71    0.71
  -5  -4   5    7.51    0.77
  -5  -4   4    5.78    0.69
  -5   4   4    5.88    0.78
   5  -4  -4    3.98    0.66
  -5  -4   3    8.61    0.83
  -5   4   3    6.76    0.83
  -5  -4   3    8.30    0.77
  -5  -4   2    3.42    0.65
  -5   4   2    2.93    0.64
  -5  -4   2    4.46    0.57
  -5   4   2    3.38    0.73
  -5  -4   1   49.36    2.81
  -5   4   1   44.05    2.93
  -5  -4   0    1.97    0.51
  -5   4   0    1.66    0.46
  -5   4   0    1.38    0.65
  -5   4  -1   -0.17    0.31
  -5   4  -1    0.54    0.54
  -5   4  -1   -0.06    0.58
   5  -4   1    0.19    0.82
  -5   4  -2   18.75    1.43
  -5   4  -2   18.72    1.46
   5  -4   2   16.42    1.76
  -5   4  -3    8.09    0.86
  -5  -4  -3    8.66    0.89
  -5   4  -3    8.20    0.91
   5  -4   3    9.17    1.28
  -5   4  -4    0.63    0.39
  -5  -4  -4    0.47    0.40
  -5   4  -4    0.74    0.45
  -5   5   6    1.33    0.44
  -5  -5   6    1.96    0.45
  -5  -5   6    1.99    0.43
  -5   5   5   -0.19    0.44
  -5  -5   5   -0.06    0.39
  -5  -5   4   16.90    1.16
  -5   5   4   14.56    1.24
  -5  -5   4   18.39    1.16
   5  -5  -4   12.60    1.20
  -5  -5   3    7.54    0.78
  -5   5   3    6.40    0.80
  -5  -5   3    8.30    0.74
  -5   5   3    7.08    0.88
  -5  -5   2  125.38    6.17
  -5   5   2  107.50    6.20
  -5   5   2  109.60    6.30
  -5   5   1  132.23    7.67
  -5  -5   1  136.32    7.62
  -5   5   1  135.98    7.85
  -5  -5   0    1.73    0.53
  -5   5   0    1.04    0.41
  -5   5   0    0.55    0.60
  -5   5   0    0.87    0.54
  -5   5  -1   14.29    0.96
  -5   5  -1   16.18    1.30
  -5   5  -1   15.85    1.31
   5  -5   1   12.42    1.49
  -5   5  -2    7.33    0.85
  -5   5  -2    8.05    0.90
   5  -5   2    5.95    1.14
  -5   5  -3    9.51    0.90
  -5  -5  -3    8.46    0.86
  -5   5  -3   10.13    0.94
   5  -5   3    9.37    1.25
  -5   5  -4    1.96    0.42
  -5   5  -4    2.44    0.51
  -5   6   6    0.07    0.34
  -5  -6   6    0.26    0.33
  -5   6   5    0.09    0.43
  -5  -6   5    0.53    0.39
  -5   6   4   10.53    0.99
   5  -6  -4    9.84    1.05
  -5  -6   3   12.66    0.91
  -5   6   3    8.61    0.92
  -5  -6   3    9.95    0.83
  -5  -6   3   11.55    0.89
  -5   6   3   10.53    1.01
  -5  -6   2    5.40    0.63
  -5  -6   2    4.09    0.56
  -5   6   2    3.70    0.73
  -5   6   1   33.64    2.07
  -5   6   1   34.61    2.28
  -5   6   0  133.17    7.15
  -5   6   0  137.01    7.45
  -5   6   0  148.27    7.46
  -5   6  -1    8.06    0.92
  -5   6  -1    8.16    0.92
  -5   6  -2   18.45    1.40
  -5   6  -2   21.14    1.46
  -5   6  -3    2.53    0.51
  -5   6  -3    2.65    0.56
  -5   7   5   16.74    1.05
  -5  -7   5   21.29    0.98
  -5   7   4    1.59    0.45
  -5  -7   4    1.61    0.41
  -5   7   4    2.67    0.54
   5  -7  -4    2.05    0.60
  -5   7   3   -0.21    0.42
  -5  -7   3   -0.48    0.36
  -5  -7   3    0.30    0.36
  -5   7   3    0.36    0.48
  -5   7   2   10.60    0.93
  -5  -7   2   12.31    0.91
  -5   7   2   12.45    1.11
  -5   7   1  130.58    7.25
  -5  -7   1  144.34    7.30
  -5   7   1  148.09    7.53
  -5   7   0    8.48    0.64
  -5  -7   0   10.18    0.81
  -5   7   0    9.57    0.96
  -5   7   0    9.28    0.96
  -5   7  -1    9.47    1.02
  -5  -7  -1   10.49    0.86
  -5   7  -1   11.73    1.04
  -5   7  -1   13.05    1.06
  -5   7  -2    1.28    0.45
  -5   7  -2    1.40    0.50
  -5   7  -3   18.65    1.24
  -5   7  -3   17.88    1.27
  -5   8   5    3.42    0.49
  -5  -8   5    4.33    0.45
  -5   8   4    9.09    0.80
  -5   8   4    7.91    0.83
  -5  -8   3    4.20    0.49
  -5  -8   3    3.56    0.46
  -5   8   3    2.47    0.57
  -5   8   2    3.08    0.46
  -5  -8   2    3.40    0.46
  -5   8   2    4.28    0.66
  -5  -8   1   26.10    1.54
  -5   8   1   28.71    1.75
  -5   8   0   40.12    2.65
  -5  -8   0   42.71    2.45
  -5   8   0   46.20    2.65
  -5   8   0   44.42    2.61
  -5   8  -1   23.84    1.76
  -5  -8  -1   25.45    1.58
  -5   8  -1   27.71    1.74
  -5   8  -1   28.84    1.77
  -5  -8  -2    0.05    0.25
  -5   8  -2    0.41    0.38
  -5   8  -2   -0.04    0.38
  -5  -9   4    8.46    0.62
  -5   9   4    6.44    0.70
  -5   9   3    0.47    0.29
  -5  -9   3    1.06    0.31
  -5  -9   3    1.28    0.31
  -5   9   3    1.22    0.44
  -5  -9   2   49.03    2.37
  -5   9   2   43.70    2.53
  -5  -9   1   91.97    4.78
  -5   9   1   87.97    4.93
  -5   9   0   14.13    1.14
  -5  -9   0   13.28    0.97
  -5   9   0   16.09    1.14
  -5   9   0   15.03    1.11
  -5   9  -1    0.56    0.40
  -5  -9  -1    0.43    0.26
  -5   9  -1    0.20    0.36
  -5   9  -1    0.77    0.41
   0   0   0    0.00    0.00


TITL pkcf3new in P2(1)/c
REM P2(1)/c (#14 in standard setting)
CELL 1.54184   4.766063  15.902475  10.470035  90.0000  96.9732  90.0000
ZERR    1.00   0.000126   0.000370   0.000259   0.0000   0.0024   0.0000
LATT  1
SYMM -x, y+1/2,-z+1/2
SFAC C H N F
UNIT 7.00 10.00 3.00 3.00
TREF
HKLF 4
END
_computing_structure_solution     'SHELXT 2014/5 (Sheldrick, 2014)'
;
_shelx_hkl_checksum              44481
loop_
_space_group_symop_operation_xyz
'x, y, z'
'-x, y+1/2, -z+1/2'
'-x, -y, -z'
'x, -y-1/2, z-1/2'
loop_
_atom_site_label
_atom_site_type_symbol
_atom_site_fract_x
_atom_site_fract_y
_atom_site_fract_z
_atom_site_U_iso_or_equiv
_atom_site_adp_type
_atom_site_occupancy
_atom_site_site_symmetry_order
_atom_site_calc_flag
_atom_site_refinement_flags_posn
_atom_site_refinement_flags_adp
_atom_site_refinement_flags_occupancy
_atom_site_disorder_assembly
_atom_site_disorder_group
F1A F 0.512(5) 0.4361(8) 0.7106(16) 0.054(3) Uani 0.47(4) 1 d D . P A 1
F2A F 0.2663(16) 0.5149(6) 0.8220(10) 0.039(2) Uani 0.47(4) 1 d D . P A 1
F3A F 0.697(3) 0.4871(12) 0.8886(12) 0.042(2) Uani 0.47(4) 1 d D . P A 1
F1B F 0.446(3) 0.4443(7) 0.6904(11) 0.0453(19) Uani 0.53(4) 1 d D . P A 2
F2B F 0.2730(15) 0.5164(4) 0.8311(8) 0.0301(18) Uani 0.53(4) 1 d D . P A 2
F3B F 0.694(2) 0.4727(10) 0.8694(14) 0.048(2) Uani 0.53(4) 1 d D . P A 2
N1 N 0.7827(2) 0.56957(6) 0.62898(9) 0.0191(3) Uani 1 1 d . . . . .
N3 N 0.5365(2) 0.65519(6) 0.76873(10) 0.0215(3) Uani 1 1 d . . . . .
N2 N 0.6374(2) 0.72532(6) 0.72500(10) 0.0213(3) Uani 1 1 d . . . . .
C2 C 0.8885(3) 0.64127(7) 0.58241(11) 0.0179(3) Uani 1 1 d . . . . .
C1 C 0.6175(2) 0.58175(7) 0.71828(11) 0.0185(3) Uani 1 1 d . . . . .
C7 C 0.8147(3) 0.72020(7) 0.63317(11) 0.0183(3) Uani 1 1 d . . . . .
C4 C 1.1798(3) 0.71136(8) 0.44497(11) 0.0217(3) Uani 1 1 d . . . . .
H4 H 1.304315 0.709617 0.380723 0.026 Uiso 1 1 calc R U . . .
C3 C 1.0730(3) 0.63797(7) 0.48692(11) 0.0201(3) Uani 1 1 d . . . . .
H3 H 1.122362 0.585542 0.452287 0.024 Uiso 1 1 calc R U . . .
C6 C 0.9290(3) 0.79528(8) 0.58770(12) 0.0225(3) Uani 1 1 d . . . . .
H6 H 0.881521 0.848317 0.620913 0.027 Uiso 1 1 calc R U . . .
C11 C 0.5114(3) 0.50359(8) 0.78064(12) 0.0246(3) Uani 1 1 d D . . . .
C5 C 1.1074(3) 0.79041(8) 0.49595(12) 0.0228(3) Uani 1 1 d . . . . .
H5 H 1.185000 0.840510 0.465399 0.027 Uiso 1 1 calc R U . . .
loop_
_atom_site_aniso_label
_atom_site_aniso_U_11
_atom_site_aniso_U_22
_atom_site_aniso_U_33
_atom_site_aniso_U_23
_atom_site_aniso_U_13
_atom_site_aniso_U_12
F1A 0.100(7) 0.0219(16) 0.052(4) -0.003(2) 0.053(4) -0.007(3)
F2A 0.015(4) 0.050(5) 0.051(3) 0.017(3) 0.004(3) 0.000(3)
F3A 0.034(2) 0.054(5) 0.037(3) 0.030(3) 0.0053(14) 0.001(2)
F1B 0.072(4) 0.027(3) 0.041(2) -0.012(2) 0.027(2) -0.026(3)
F2B 0.033(4) 0.022(3) 0.041(2) 0.0038(18) 0.029(2) 0.000(2)
F3B 0.0233(18) 0.046(3) 0.074(5) 0.036(3) 0.001(3) 0.0002(15)
N1 0.0192(5) 0.0209(5) 0.0178(5) 0.0007(4) 0.0044(4) 0.0012(4)
N3 0.0216(6) 0.0237(5) 0.0201(5) -0.0011(4) 0.0063(4) -0.0006(4)
N2 0.0204(6) 0.0224(5) 0.0217(5) -0.0023(4) 0.0053(4) 0.0005(4)
C2 0.0170(6) 0.0199(6) 0.0168(6) 0.0005(4) 0.0017(5) 0.0005(4)
C1 0.0168(6) 0.0221(6) 0.0171(6) 0.0003(4) 0.0034(5) 0.0007(4)
C7 0.0165(6) 0.0216(6) 0.0168(5) -0.0012(4) 0.0022(5) 0.0014(4)
C4 0.0207(6) 0.0274(7) 0.0177(6) 0.0012(5) 0.0056(5) -0.0004(5)
C3 0.0207(6) 0.0217(6) 0.0184(6) -0.0020(5) 0.0049(5) 0.0017(5)
C6 0.0242(7) 0.0193(6) 0.0243(6) -0.0018(5) 0.0042(5) 0.0007(5)
C11 0.0248(7) 0.0249(7) 0.0259(7) 0.0014(5) 0.0108(6) 0.0016(5)
C5 0.0238(7) 0.0215(6) 0.0232(6) 0.0026(5) 0.0035(5) -0.0033(5)
loop_
_atom_type_symbol
_atom_type_description
_atom_type_scat_dispersion_real
_atom_type_scat_dispersion_imag
_atom_type_scat_source
C C 0.0181 0.0091 'International Tables Vol C Tables 4.2.6.8 and 6.1.1.4'
H H 0.0000 0.0000 'International Tables Vol C Tables 4.2.6.8 and 6.1.1.4'
F F 0.0727 0.0534 'International Tables Vol C Tables 4.2.6.8 and 6.1.1.4'
N N 0.0311 0.0180 'International Tables Vol C Tables 4.2.6.8 and 6.1.1.4'
loop_
_geom_angle_atom_site_label_1
_geom_angle_atom_site_label_2
_geom_angle_atom_site_label_3
_geom_angle
C1 N1 C2 114.43(10)
N2 N3 C1 117.37(10)
N3 N2 C7 118.68(10)
N1 C2 C3 120.86(10)
N1 C2 C7 119.06(11)
C3 C2 C7 120.07(11)
N1 C1 N3 129.07(11)
N1 C1 C11 116.55(10)
N3 C1 C11 114.30(10)
N2 C7 C6 118.99(10)
N2 C7 C2 121.37(11)
C6 C7 C2 119.63(11)
C3 C4 C5 121.11(11)
C3 C4 H4 119.4
C5 C4 H4 119.4
C4 C3 C2 118.97(11)
C4 C3 H3 120.5
C2 C3 H3 120.5
C5 C6 C7 119.18(11)
C5 C6 H6 120.4
C7 C6 H6 120.4
F1A C11 F2A 111.4(8)
F3B C11 F2B 107.9(6)
F3B C11 F1B 108.5(7)
F2B C11 F1B 104.5(6)
F1A C11 F3A 105.1(9)
F2A C11 F3A 105.5(6)
F3B C11 C1 113.0(7)
F1A C11 C1 114.1(6)
F2A C11 C1 112.8(4)
F2B C11 C1 113.1(3)
F1B C11 C1 109.5(5)
F3A C11 C1 107.1(7)
C6 C5 C4 121.03(11)
C6 C5 H5 119.5
C4 C5 H5 119.5
loop_
_geom_bond_atom_site_label_1
_geom_bond_atom_site_label_2
_geom_bond_distance
F1A C11 1.299(10)
F2A C11 1.306(8)
F3A C11 1.374(11)
F1B C11 1.345(8)
F2B C11 1.326(6)
F3B C11 1.291(10)
N1 C1 1.3076(16)
N1 C2 1.3610(15)
N3 N2 1.3183(14)
N3 C1 1.3572(15)
N2 C7 1.3576(16)
C2 C3 1.4103(17)
C2 C7 1.4237(16)
C1 C11 1.5190(17)
C7 C6 1.4184(17)
C4 C3 1.3668(17)
C4 C5 1.4244(17)
C4 H4 0.9500
C3 H3 0.9500
C6 C5 1.3603(18)
C6 H6 0.9500
C5 H5 0.9500
