#------------------------------------------------------------------------------
#$Date: 2019-11-12 04:17:52 +0200 (Tue, 12 Nov 2019) $
#$Revision: 227525 $
#$URL: file:///home/coder/svn-repositories/cod/cif/4/03/35/4033500.cif $
#------------------------------------------------------------------------------
#
# This file is available in the Crystallography Open Database (COD),
# http://www.crystallography.net/
#
# All data on this site have been placed in the public domain by the
# contributors.
#
data_4033500
loop_
_publ_author_name
'Chang, Meng-Yang'
'Chen, Yu-Hsin'
'Wang, Heui-Sin'
_publ_section_title
;
 Cu(OAc)<sub>2</sub> Mediated Synthesis of 3-Sulfonyl Chromen-4-ones.
;
_journal_issue                   4
_journal_name_full               'The Journal of organic chemistry'
_journal_page_first              2361
_journal_page_last               2368
_journal_paper_doi               10.1021/acs.joc.8b00177
_journal_volume                  83
_journal_year                    2018
_chemical_formula_sum            'C17 H14 O4 S'
_chemical_formula_weight         314.34
_space_group_crystal_system      triclinic
_space_group_IT_number           2
_space_group_name_Hall           '-P 1'
_space_group_name_H-M_alt        'P -1'
_symmetry_space_group_name_Hall  '-P 1'
_symmetry_space_group_name_H-M   'P -1'
_atom_sites_solution_hydrogens   geom
_audit_creation_method           SHELXL-2014/6
_cell_angle_alpha                67.722(3)
_cell_angle_beta                 80.069(3)
_cell_angle_gamma                84.547(3)
_cell_formula_units_Z            2
_cell_length_a                   7.1482(5)
_cell_length_b                   10.6504(7)
_cell_length_c                   11.8975(8)
_cell_measurement_reflns_used    7707
_cell_measurement_temperature    100(2)
_cell_measurement_theta_max      26.3774
_cell_measurement_theta_min      2.8945
_cell_volume                     825.16(10)
_computing_cell_refinement       'SAINT V8.34A (Bruker AXS Inc., 2013)'
_computing_data_collection       'Bruker APEX2'
_computing_data_reduction        'SAINT V8.34A (Bruker AXS Inc., 2013)'
_computing_molecular_graphics    'Bruker SHELXTL'
_computing_publication_material  'Bruker SHELXTL'
_computing_structure_refinement  'SHELXL-2014/6 (Sheldrick, 2014)'
_diffrn_ambient_temperature      100(2)
_diffrn_detector_area_resol_mean 8.3333
_diffrn_measured_fraction_theta_full 0.995
_diffrn_measured_fraction_theta_max 0.992
_diffrn_measurement_device_type  'Bruker APEX-II CCD'
_diffrn_measurement_method       '\f and \w scans'
_diffrn_radiation_type           MoK\a
_diffrn_radiation_wavelength     0.71073
_diffrn_reflns_av_R_equivalents  0.0250
_diffrn_reflns_av_unetI/netI     0.0218
_diffrn_reflns_Laue_measured_fraction_full 0.995
_diffrn_reflns_Laue_measured_fraction_max 0.992
_diffrn_reflns_limit_h_max       7
_diffrn_reflns_limit_h_min       -8
_diffrn_reflns_limit_k_max       13
_diffrn_reflns_limit_k_min       -13
_diffrn_reflns_limit_l_max       13
_diffrn_reflns_limit_l_min       -14
_diffrn_reflns_number            13901
_diffrn_reflns_point_group_measured_fraction_full 0.995
_diffrn_reflns_point_group_measured_fraction_max 0.992
_diffrn_reflns_theta_full        25.242
_diffrn_reflns_theta_max         26.403
_diffrn_reflns_theta_min         1.870
_exptl_absorpt_coefficient_mu    0.210
_exptl_absorpt_correction_T_max  0.9485
_exptl_absorpt_correction_T_min  0.9091
_exptl_absorpt_correction_type   multi-scan
_exptl_absorpt_process_details   'SADABS V2014/4 (Bruker AXS Inc.)'
_exptl_crystal_colour            colorless
_exptl_crystal_density_diffrn    1.265
_exptl_crystal_density_meas      ?
_exptl_crystal_density_method    'not measured'
_exptl_crystal_description       lump
_exptl_crystal_F_000             328
_exptl_crystal_size_max          0.20
_exptl_crystal_size_mid          0.15
_exptl_crystal_size_min          0.15
_refine_diff_density_max         0.378
_refine_diff_density_min         -0.375
_refine_diff_density_rms         0.043
_refine_ls_extinction_method     none
_refine_ls_goodness_of_fit_ref   1.048
_refine_ls_hydrogen_treatment    constr
_refine_ls_matrix_type           full
_refine_ls_number_parameters     201
_refine_ls_number_reflns         3354
_refine_ls_number_restraints     0
_refine_ls_restrained_S_all      1.048
_refine_ls_R_factor_all          0.0347
_refine_ls_R_factor_gt           0.0314
_refine_ls_shift/su_max          0.000
_refine_ls_shift/su_mean         0.000
_refine_ls_structure_factor_coef Fsqd
_refine_ls_weighting_details
'w=1/[\s^2^(Fo^2^)+(0.0342P)^2^+0.4037P] where P=(Fo^2^+2Fc^2^)/3'
_refine_ls_weighting_scheme      calc
_refine_ls_wR_factor_gt          0.0786
_refine_ls_wR_factor_ref         0.0808
_reflns_Friedel_coverage         0.000
_reflns_number_gt                3059
_reflns_number_total             3354
_reflns_threshold_expression     'I > 2\s(I)'
_cod_data_source_file            jo8b00177_si_001.cif
_cod_data_source_block           161248lt_0m_a_sq
_cod_depositor_comments
;
The following automatic conversions were performed:

'_exptl_crystal_density_meas' value 'not measured' was changed to '?'
- the value is perceived as not measured.

Automatic conversion script
Id: cif_fix_values 4973 2017-02-22 13:04:09Z antanas 

 Adding full bibliography for 4033500--4033507.cif.
;
_cod_database_code               4033500
_shelx_space_group_comment
;
The symmetry employed for this shelxl refinement is uniquely defined
by the following loop, which should always be used as a source of
symmetry information in preference to the above space-group names.
They are only intended as comments.
;
_shelxl_version_number           2014/6
_shelx_res_file
;
TITL 161248LT_0m_a.res in P-1
CELL 0.71073 7.1482 10.6504 11.8975 67.722 80.069 84.547
ZERR 2.00 0.0005 0.0007 0.0008 0.003 0.003 0.003
LATT 1
SFAC C H O S
UNIT 34 28 8 2
TEMP -173.000
ACTA
L.S. 5 0   25
FMAP 2
PLAN 5
BOND $H
ABIN
WGHT    0.034200    0.403700
FVAR       1.23983
S1    4    0.164796    0.340568    0.159080    11.00000    0.01911    0.01390 =
         0.02173   -0.00732   -0.00390    0.00102
O1    3    0.314011    0.145205   -0.074963    11.00000    0.01850    0.01635 =
         0.01854   -0.00589   -0.00195   -0.00117
O2    3    0.263753    0.460265    0.076626    11.00000    0.03268    0.01390 =
         0.02551   -0.00537   -0.00574   -0.00266
O3    3   -0.035399    0.353851    0.197883    11.00000    0.02067    0.02509 =
         0.03185   -0.01301   -0.00546    0.00671
O4    3    0.038510    0.056350    0.273646    11.00000    0.02265    0.02138 =
         0.02015   -0.00776    0.00157   -0.00598
C1    1    0.574535    0.114513    0.603575    11.00000    0.03509    0.04282 =
         0.02407   -0.00904   -0.00806   -0.00400
AFIX 137
H14   2    0.520832    0.158097    0.661772    11.00000   -1.50000
H3    2    0.709880    0.133810    0.577506    11.00000   -1.50000
H1    2    0.559420    0.016181    0.643275    11.00000   -1.50000
AFIX   0
C2    1    0.472135    0.169078    0.493016    11.00000    0.02664    0.02545 =
         0.02124   -0.00867   -0.00447   -0.00252
C3    1    0.570936    0.232246    0.375570    11.00000    0.01894    0.02951 =
         0.02619   -0.00982   -0.00257   -0.00437
AFIX  43
H4    2    0.704764    0.239718    0.364901    11.00000   -1.20000
AFIX   0
C4    1    0.476705    0.284346    0.274066    11.00000    0.02136    0.02134 =
         0.01959   -0.00767    0.00072   -0.00494
AFIX  43
H5    2    0.544915    0.328786    0.194519    11.00000   -1.20000
AFIX   0
C5    1    0.281545    0.270914    0.289847    11.00000    0.01930    0.01550 =
         0.02038   -0.00843   -0.00352   -0.00018
C6    1    0.202192    0.215370    0.092103    11.00000    0.01390    0.01423 =
         0.02041   -0.00638   -0.00495    0.00108
C7    1    0.287966    0.242617   -0.025743    11.00000    0.01373    0.01527 =
         0.02186   -0.00637   -0.00577    0.00096
C8    1    0.256099    0.014527   -0.006148    11.00000    0.01234    0.01601 =
         0.02194   -0.00572   -0.00571    0.00112
C9    1    0.287717   -0.077602   -0.065681    11.00000    0.01595    0.02372 =
         0.02315   -0.01062   -0.00422    0.00238
AFIX  43
H6    2    0.347527   -0.050712   -0.148646    11.00000   -1.20000
AFIX   0
C10   1    0.229661   -0.209072   -0.000682    11.00000    0.01867    0.02150 =
         0.03258   -0.01577   -0.00792    0.00460
AFIX  43
H2    2    0.248202   -0.273214   -0.039744    11.00000   -1.20000
AFIX   0
C11   1    0.168259   -0.021313    0.114033    11.00000    0.01301    0.01633 =
         0.02111   -0.00650   -0.00503    0.00050
C12   1    0.112695   -0.156054    0.178587    11.00000    0.01882    0.01838 =
         0.02360   -0.00576   -0.00341   -0.00076
AFIX  43
H8    2    0.053342   -0.183175    0.261660    11.00000   -1.20000
AFIX   0
C13   1    0.143938   -0.248786    0.121926    11.00000    0.02074    0.01521 =
         0.03150   -0.00726   -0.00601    0.00027
AFIX  43
H7    2    0.107224   -0.339986    0.166148    11.00000   -1.20000
AFIX   0
C14   1    0.127755    0.081480    0.170381    11.00000    0.01385    0.01691 =
         0.02045   -0.00615   -0.00526   -0.00022
C15   1    0.361019    0.373489   -0.120361    11.00000    0.02522    0.01751 =
         0.02087   -0.00309   -0.00113   -0.00236
AFIX 137
H10   2    0.417221    0.359298   -0.195973    11.00000   -1.50000
H9    2    0.457801    0.406145   -0.089784    11.00000   -1.50000
H11   2    0.255990    0.440936   -0.137439    11.00000   -1.50000
AFIX   0
C16   1    0.180242    0.205895    0.405839    11.00000    0.01826    0.02259 =
         0.02423   -0.01157    0.00161   -0.00343
AFIX  43
H13   2    0.046995    0.196048    0.415991    11.00000   -1.20000
AFIX   0
C17   1    0.276488    0.155751    0.506261    11.00000    0.02760    0.02536 =
         0.01842   -0.00833    0.00272   -0.00541
AFIX  43
H12   2    0.207979    0.111407    0.585731    11.00000   -1.20000
AFIX   0
HKLF 4 1 1 0 0 0 1 0 0 0 1

REM  161248LT_0m_a.res in P-1
REM R1 =  0.0314 for    3059 Fo > 4sig(Fo)  and  0.0347 for all    3354 data
REM    201 parameters refined using      0 restraints

END

WGHT      0.0342      0.4036

REM Highest difference peak  0.378,  deepest hole -0.375,  1-sigma level  0.043
Q1    1   0.2226  0.3003  0.2357  11.00000  0.05    0.38
Q2    1   0.1851  0.2733  0.1152  11.00000  0.05    0.30
Q3    1   0.1437  0.0253  0.1438  11.00000  0.05    0.28
Q4    1   0.1293 -0.0819  0.1390  11.00000  0.05    0.27
Q5    1   0.1910  0.1530  0.1323  11.00000  0.05    0.25
;
_shelx_res_checksum              59411
_shelx_hkl_file
;
  -1   0   0  661.97   17.55
  -1   0   0  656.32   16.63
  -1   0   0  624.05   16.67
  -1   0   0  644.91   16.57
  -1   0   0  630.94   16.48
   1   0   0  641.33   17.54
   1   0   0  622.02   16.57
   1   0   0  657.54   16.46
  -2   0   0 4357.86  118.23
  -2   0   0 4499.34  113.35
  -2   0   0 4421.64  112.29
  -2   0   0 4439.17  113.69
  -2   0   0 4215.65  112.29
   2   0   0 4375.68  110.97
   2   0   0 4363.97  114.09
   2   0   0 4481.51  111.03
  -3   0   0  727.43   19.99
  -3   0   0  706.49   19.35
  -3   0   0  725.64   22.09
  -3   0   0  696.31   19.55
  -3   0   0  759.68   19.97
   3   0   0  698.97   18.63
   3   0   0  706.77   18.67
   3   0   0  723.24   18.51
   3   0   0  715.32   22.20
  -4   0   0  391.13   12.53
  -4   0   0  402.98   14.93
  -4   0   0  360.06   11.98
  -4   0   0  401.50   12.64
  -4   0   0  379.80   11.85
   4   0   0  401.12   15.26
  -5   0   0   33.91    2.94
  -5   0   0   42.94    5.27
  -5   0   0   40.87    3.36
  -5   0   0   37.01    2.88
  -5   0   0   39.10    2.11
  -5   0   0   45.09    3.57
   5   0   0   40.32    5.45
  -6   0   0  191.46    7.11
  -6   0   0  250.06   12.52
  -6   0   0  204.22    9.27
  -6   0   0  207.36    9.62
   6   0   0  204.75   12.12
  -7   0   0  550.03   20.37
  -7   0   0  572.11   19.95
  -8   0   0   29.26    4.99
  -8   0   0   28.95    4.71
  -8   1   0   32.54    5.36
  -8   1   0   32.39    4.92
  -7   1   0  579.99   20.93
  -7   1   0  639.27   22.30
  -7   1   0  574.57   20.99
   6  -1   0  166.58   10.67
  -6   1   0  162.13    8.30
  -6   1   0  165.45    8.61
  -6   1   0  146.14    6.20
   5  -1   0  620.57   16.55
   5  -1   0  638.45   22.89
  -5   1   0  655.43   20.19
  -5   1   0  631.13   19.90
  -5   1   0  606.58   18.80
  -5   1   0  582.22   19.05
  -5   1   0  611.22   17.47
  -5   1   0  634.19   21.91
   4  -1   0    0.26    0.44
   4  -1   0    0.60    1.06
   4  -1   0   -0.05    0.48
  -4   1   0   -0.15    0.70
  -4   1   0    0.88    0.47
  -4   1   0    0.04    0.51
  -4   1   0    1.27    0.86
  -4   1   0    0.52    0.72
   3  -1   0  881.82   23.68
   3  -1   0  924.16   26.74
  -3   1   0  889.26   24.92
  -3   1   0  940.88   25.02
  -3   1   0  880.15   24.44
  -3   1   0  915.30   23.23
  -3   1   0  853.37   24.12
  -3   1   0  857.22   22.79
  -3   1   0  902.48   26.26
   2  -1   0   33.44    2.65
   2  -1   0   33.78    1.98
   2  -1   0   38.15    2.23
   2  -1   0   34.67    1.93
  -2   1   0   34.98    2.01
  -2   1   0   37.37    2.37
  -2   1   0   34.76    1.50
  -2   1   0   34.56    2.12
  -2   1   0   35.57    2.26
  -2   1   0   35.46    2.61
  -2   1   0   33.33    1.61
   1  -1   0 3906.16   98.28
   1  -1   0 3787.57   98.25
   1  -1   0 3697.77   97.66
   1  -1   0 3921.21   94.91
   1  -1   0 3792.48   94.77
   1  -1   0 3693.01   96.57
   1  -1   0 3679.41   96.94
  -1   1   0 3673.72   97.13
  -1   1   0 3656.67   97.31
  -1   1   0 3549.66   96.83
  -1   1   0 3634.83   99.17
  -1   1   0 3945.93   95.29
  -1   1   0 3705.77   95.07
  -1   1   0 3676.60   96.66
   0  -1   0  286.00    7.71
   0  -1   0  246.14    7.72
   0   1   0  287.50    7.90
   0   1   0  273.24    7.61
   0   1   0  293.65    7.72
   0   1   0  286.11    7.82
  -1  -1   0 4705.94  123.90
  -1  -1   0 4845.09  125.36
  -1  -1   0 5193.68  124.84
   1   1   0 4916.91  122.81
   1   1   0 4788.76  125.12
  -2  -1   0   -1.13    0.35
  -2  -1   0   -0.03    0.45
  -2  -1   0   -1.01    0.32
  -2  -1   0   -0.68    0.58
  -2  -1   0   -0.46    0.42
  -2  -1   0   -0.86    0.33
   2   1   0   -1.35    0.67
  -3  -1   0 1432.72   37.10
  -3  -1   0 1415.26   36.90
  -3  -1   0 1467.72   40.41
  -3  -1   0 1452.89   37.33
  -3  -1   0 1390.97   37.32
   3   1   0 1450.27   40.36
  -4  -1   0   90.43    4.43
  -4  -1   0   86.45    4.08
  -4  -1   0   84.86    5.94
  -4  -1   0   80.45    3.83
  -4  -1   0   88.84    4.35
   4   1   0   92.35    6.29
  -5  -1   0   15.47    2.13
  -5  -1   0   18.25    2.42
  -5  -1   0   16.89    2.57
  -5  -1   0   28.97    4.52
  -5  -1   0   19.91    2.77
   5   1   0   18.40    3.76
  -6  -1   0    0.27    1.04
  -6  -1   0    0.59    1.09
  -6  -1   0   -0.60    0.64
   6   1   0    2.28    1.81
  -7  -1   0  165.91    8.64
  -7  -1   0  164.56    9.16
  -8  -1   0   50.39    6.06
  -8  -1   0   46.78    6.21
  -8   2   0   11.48    3.52
  -8   2   0   10.34    3.24
  -7   2   0    4.85    2.28
  -7   2   0    4.53    2.22
  -7   2   0    5.89    2.33
   6  -2   0   23.52    5.03
  -6   2   0   14.06    2.35
  -6   2   0   21.50    4.13
  -6   2   0   17.16    3.22
  -6   2   0   18.54    3.44
   5  -2   0  253.41    9.03
   5  -2   0  273.32   12.96
  -5   2   0  264.08   10.76
  -5   2   0  239.53    9.85
  -5   2   0  250.89   11.20
  -5   2   0  268.91    8.93
  -5   2   0  280.57   11.88
  -5   2   0  254.07   11.03
   4  -2   0  930.79   28.79
   4  -2   0  912.26   25.09
  -4   2   0  914.69   26.24
  -4   2   0  904.52   25.81
  -4   2   0  885.57   24.55
  -4   2   0  916.74   27.06
  -4   2   0  886.93   26.51
  -4   2   0  924.41   27.66
   3  -2   0  738.67   20.29
   3  -2   0  689.93   21.99
   3  -2   0  712.75   20.74
   3  -2   0  720.27   19.97
  -3   2   0  733.54   21.76
  -3   2   0  706.89   20.26
  -3   2   0  693.12   20.51
  -3   2   0  710.82   21.22
  -3   2   0  673.49   19.17
  -3   2   0  714.82   20.93
   2  -2   0   76.84    2.90
   2  -2   0   83.73    3.82
   2  -2   0   78.88    3.63
   2  -2   0   77.16    4.22
   2  -2   0   77.73    4.05
   2  -2   0   79.63    2.75
  -2   2   0   80.21    4.32
  -2   2   0   79.45    3.17
  -2   2   0   82.48    4.26
  -2   2   0   73.59    3.73
  -2   2   0   76.87    3.96
  -2   2   0   79.67    3.67
   1  -2   0    4.14    0.90
   1  -2   0    4.55    0.98
   1  -2   0    4.95    0.77
   1  -2   0    5.26    1.01
   1  -2   0    6.32    1.27
  -1   2   0    6.63    1.27
  -1   2   0    6.16    1.05
  -1   2   0    3.57    0.89
  -1   2   0    7.07    1.36
   0  -2   0  873.15   23.01
   0  -2   0  880.14   23.21
   0  -2   0  893.04   23.43
   0  -2   0  867.89   23.61
   0   2   0  834.94   23.07
   0   2   0  900.61   23.68
   0   2   0  846.13   22.91
   0   2   0  876.17   23.35
   0   2   0  884.78   23.54
  -1  -2   0 2585.05   65.70
  -1  -2   0 2524.25   66.76
  -1  -2   0 2569.47   66.27
  -1  -2   0 2505.66   67.68
  -1  -2   0 2506.01   66.33
   1   2   0 2567.45   65.81
   1   2   0 2437.10   63.83
   1   2   0 2611.12   66.79
   1   2   0 2452.98   64.74
   1   2   0 2466.96   64.91
  -2  -2   0   -1.07    0.41
  -2  -2   0    0.01    0.52
  -2  -2   0   -0.55    0.50
  -2  -2   0    1.28    0.65
   2   2   0   -0.35    0.29
   2   2   0    0.09    0.35
   2   2   0   -0.40    0.36
   2   2   0    0.07    0.64
  -3  -2   0  809.13   22.30
  -3  -2   0  829.26   22.11
  -3  -2   0  769.41   21.96
  -3  -2   0  824.81   21.95
  -3  -2   0  821.71   25.18
  -4  -2   0  919.60   25.71
  -4  -2   0  918.92   25.25
  -4  -2   0  905.16   25.42
  -4  -2   0  916.77   25.29
  -5  -2   0  325.32   11.62
  -5  -2   0  354.40   12.36
  -5  -2   0  348.58   15.26
  -5  -2   0  351.22   12.04
  -6  -2   0  260.90   10.63
  -6  -2   0  272.47   11.24
  -7  -2   0   56.65    5.15
  -7  -2   0   51.14    5.30
  -8  -2   0  134.06    9.03
  -8  -2   0  135.61    8.36
  -8   3   0    0.33    1.90
  -8   3   0    1.86    2.29
  -7   3   0   10.58    3.20
  -7   3   0    3.62    2.35
  -7   3   0    9.47    4.01
   6  -3   0  451.20   20.02
  -6   3   0  490.61   18.06
  -6   3   0  467.11   18.33
  -6   3   0  452.16   15.03
  -6   3   0  472.25   18.98
   5  -3   0  136.36    8.92
   5  -3   0  148.75    6.54
   5  -3   0  129.26    6.45
  -5   3   0  157.86    8.45
  -5   3   0  159.12    6.37
  -5   3   0  140.64    7.86
  -5   3   0  148.02    8.62
   4  -3   0  110.59    5.44
   4  -3   0  117.93    7.27
   4  -3   0  117.66    5.84
  -4   3   0  124.91    6.89
  -4   3   0  110.25    6.83
  -4   3   0  118.05    5.06
  -4   3   0  114.74    6.39
   3  -3   0   13.71    2.09
   3  -3   0   12.78    2.32
   3  -3   0   12.94    1.32
   3  -3   0   14.50    2.63
   3  -3   0   12.68    2.09
  -3   3   0   13.54    2.45
  -3   3   0   15.93    2.34
  -3   3   0   12.07    2.20
  -3   3   0   12.40    2.57
   2  -3   0 1028.26   27.07
   2  -3   0  899.63   27.97
   2  -3   0 1013.07   28.22
   2  -3   0 1020.07   25.93
   2  -3   0  936.69   27.16
   2  -3   0  993.87   25.74
  -2   3   0  896.11   26.77
  -2   3   0 1021.62   28.30
  -2   3   0  959.78   27.58
  -2   3   0  977.64   28.26
   1  -3   0 1485.20   39.44
   1  -3   0 1454.70   39.36
   1  -3   0 1384.93   38.49
   1  -3   0 1462.78   38.31
  -1   3   0 1388.87   38.13
  -1   3   0 1488.70   38.97
  -1   3   0 1497.62   39.43
  -1   3   0 1426.88   39.30
   0  -3   0  558.20   15.92
   0  -3   0  553.78   16.73
   0  -3   0  547.06   16.09
   0   3   0  547.37   16.34
   0   3   0  549.93   16.58
   0   3   0  557.58   15.77
   0   3   0  571.06   16.85
  -1  -3   0  454.53   12.98
  -1  -3   0  446.81   13.18
  -1  -3   0  433.78   13.34
  -1  -3   0  432.36   13.75
  -1  -3   0  440.04   13.60
   1   3   0  453.78   13.27
   1   3   0  455.90   13.30
   1   3   0  440.05   13.59
   1   3   0  426.48   12.58
   1   3   0  449.75   13.12
  -2  -3   0   80.41    4.25
  -2  -3   0   83.19    3.68
  -2  -3   0   84.32    4.03
  -2  -3   0   82.99    3.80
   2   3   0   85.14    3.19
   2   3   0   90.94    3.44
   2   3   0   80.28    4.00
  -3  -3   0  486.98   17.25
  -3  -3   0  484.44   15.02
  -3  -3   0  495.73   14.28
  -3  -3   0  490.75   14.46
  -3  -3   0  466.64   14.55
   3   3   0  490.92   15.23
  -4  -3   0  141.74    6.08
  -4  -3   0  136.29    6.35
  -4  -3   0  139.60    6.05
  -4  -3   0  148.36    5.97
  -5  -3   0  477.17   15.17
  -5  -3   0  490.73   19.38
  -5  -3   0  496.37   16.08
  -5  -3   0  431.59   15.00
  -5  -3   0  462.54   15.31
  -6  -3   0  241.37   10.09
  -6  -3   0  236.05   10.53
  -7  -3   0  103.37    7.11
  -7  -3   0  113.76    6.91
  -8  -3   0   -0.23    1.44
  -8  -3   0    1.37    1.79
  -8   4   0   21.25    4.79
  -8   4   0   -2.09    3.29
  -7   4   0    8.67    3.05
  -7   4   0    2.68    2.33
  -6   4   0  149.39    9.69
  -6   4   0  144.08    9.36
  -6   4   0  145.49    9.02
   5  -4   0   87.02    5.32
   5  -4   0   90.81    5.67
   5  -4   0   82.00    7.09
  -5   4   0   97.97    7.06
  -5   4   0   98.72    6.79
  -5   4   0  110.28    7.59
   4  -4   0   87.39    6.41
   4  -4   0   80.77    5.17
   4  -4   0   83.10    5.00
  -4   4   0   93.46    6.30
  -4   4   0   78.90    5.61
  -4   4   0   80.21    6.10
   3  -4   0  102.39    5.41
   3  -4   0   89.77    5.95
   3  -4   0  100.48    5.57
   3  -4   0  102.96    6.23
   3  -4   0  100.15    4.06
   3  -4   0  101.50    4.22
  -3   4   0   97.90    6.25
  -3   4   0   98.09    6.16
  -3   4   0  105.13    6.02
   2  -4   0   17.93    1.99
   2  -4   0   21.20    3.25
   2  -4   0   14.97    2.30
   2  -4   0   15.47    2.75
   2  -4   0   16.11    2.47
  -2   4   0   15.66    2.55
  -2   4   0   18.83    3.02
   1  -4   0   75.36    4.88
   1  -4   0   77.41    4.47
   1  -4   0   63.50    4.58
   1  -4   0   81.16    4.36
  -1   4   0   68.10    4.71
  -1   4   0   84.15    4.85
  -1   4   0   82.39    5.03
   0  -4   0  180.84    7.83
   0  -4   0  184.66    7.27
   0   4   0  176.12    7.39
   0   4   0  179.59    7.63
   0   4   0  171.87    7.72
  -1  -4   0   50.28    3.41
  -1  -4   0   52.04    3.74
  -1  -4   0   42.86    3.11
  -1  -4   0   44.51    3.00
  -1  -4   0   50.39    3.59
   1   4   0   44.87    3.00
   1   4   0   52.53    3.65
   1   4   0   48.01    3.25
   1   4   0   53.74    3.43
  -2  -4   0 2956.24   76.51
  -2  -4   0 2859.18   76.77
  -2  -4   0 2994.70   76.25
  -2  -4   0 3044.29   77.59
   2   4   0 3019.41   76.81
  -3  -4   0 1328.79   37.12
  -3  -4   0 1363.66   36.51
  -3  -4   0 1400.61   38.07
  -3  -4   0 1369.16   36.81
   3   4   0 1361.02   35.11
   3   4   0 1328.20   37.43
  -4  -4   0  926.29   25.45
  -4  -4   0  837.20   28.85
  -4  -4   0  888.92   24.99
  -4  -4   0  863.68   26.17
  -4  -4   0  854.86   25.42
   4   4   0  869.74   26.06
  -5  -4   0  104.79    5.80
  -5  -4   0   97.12    5.67
  -5  -4   0  105.83    6.27
  -5  -4   0  124.77    8.85
  -5  -4   0  105.21    5.62
  -6  -4   0  189.93    8.73
  -6  -4   0  183.24    8.45
  -6  -4   0  173.28    9.11
  -7  -4   0    8.27    2.64
  -7  -4   0    4.10    2.11
  -8  -4   0   -0.42    1.35
  -8  -4   0    0.30    1.78
  -7   5   0  480.70   21.53
  -7   5   0  460.02   20.02
  -6   5   0   17.19    4.02
  -6   5   0   22.52    5.11
   5  -5   0 1963.78   58.26
   5  -5   0 2008.67   54.30
  -5   5   0 1899.17   57.18
  -5   5   0 1971.28   57.76
  -5   5   0 1992.18   56.51
   4  -5   0  904.52   29.70
   4  -5   0  879.39   27.26
   4  -5   0  907.99   27.96
   4  -5   0  904.90   24.50
  -4   5   0  922.87   29.08
  -4   5   0  906.49   29.60
  -4   5   0  895.25   29.89
   3  -5   0   18.39    2.95
   3  -5   0   19.31    3.08
   3  -5   0   10.97    2.73
   3  -5   0   16.81    2.04
   3  -5   0   17.78    2.09
  -3   5   0   20.69    3.48
  -3   5   0   19.82    3.63
  -3   5   0    7.96    2.24
   2  -5   0   37.83    4.84
   2  -5   0   42.83    4.44
   2  -5   0   32.13    3.61
   2  -5   0   37.20    2.76
   2  -5   0   31.84    4.32
  -2   5   0   41.16    4.68
  -2   5   0   40.09    4.93
  -2   5   0   28.05    3.74
   1  -5   0  213.58    9.65
   1  -5   0  203.30    8.74
   1  -5   0  204.43    9.46
   1  -5   0  188.47    8.27
  -1   5   0  211.37    9.67
  -1   5   0  189.32    8.83
  -1   5   0  213.06    9.42
   0  -5   0    6.38    1.82
   0  -5   0    3.63    1.39
   0  -5   0    4.69    1.50
   0   5   0    4.71    1.40
   0   5   0    9.27    2.34
   0   5   0    5.30    1.66
   0   5   0    5.12    1.77
  -1  -5   0  256.19   10.83
  -1  -5   0  273.73   10.24
  -1  -5   0  286.27   11.14
  -1  -5   0  258.82    9.82
   1   5   0  272.52    9.89
   1   5   0  279.17   10.88
   1   5   0  270.50   10.28
  -2  -5   0  277.60   11.29
  -2  -5   0  300.82   10.71
  -2  -5   0  270.75   10.69
  -2  -5   0  273.89   10.20
   2   5   0  310.32   10.55
   2   5   0  293.99   10.72
  -3  -5   0   35.45    3.67
  -3  -5   0   36.84    3.04
  -3  -5   0   33.24    3.64
  -3  -5   0   34.68    4.13
   3   5   0   33.96    2.45
   3   5   0   35.80    4.01
  -4  -5   0  384.57   14.80
  -4  -5   0  377.29   16.80
  -4  -5   0  418.29   14.03
  -4  -5   0  379.10   13.92
  -4  -5   0  427.56   13.85
   4   5   0  397.27   14.54
  -5  -5   0  273.13   10.98
  -5  -5   0  292.21   12.41
  -5  -5   0  282.52   11.34
   5   5   0  296.55   12.23
  -6  -5   0   72.33    5.31
  -6  -5   0   60.31    4.77
  -6  -5   0   57.33    5.26
  -7  -5   0    6.35    2.49
  -7  -5   0    6.67    2.43
  -8  -5   0    0.26    1.83
  -8  -5   0    1.95    1.81
  -7   6   0   -0.26    1.94
  -6   6   0  507.94   21.00
  -6   6   0  486.98   21.73
   5  -6   0   29.04    5.40
   5  -6   0   25.89    4.00
  -5   6   0   20.81    4.07
  -5   6   0   24.91    5.04
   4  -6   0  212.27   10.40
   4  -6   0  220.17   11.55
   4  -6   0  211.86   10.00
   4  -6   0  211.78    7.86
   4  -6   0  218.22    7.40
  -4   6   0  198.63   11.27
  -4   6   0  217.91   11.24
  -4   6   0  209.78   11.70
   3  -6   0    3.60    1.67
   3  -6   0    3.40    1.11
   3  -6   0    3.12    1.68
   3  -6   0    2.84    1.47
   3  -6   0    2.40    1.00
  -3   6   0    1.65    1.33
  -3   6   0    4.24    1.95
  -3   6   0    0.38    1.18
   2  -6   0   62.84    5.50
   2  -6   0   57.21    5.53
   2  -6   0   72.85    4.29
   2  -6   0   70.39    4.99
   2  -6   0   76.02    5.43
  -2   6   0   61.20    5.32
  -2   6   0   67.89    5.44
  -2   6   0   71.50    5.87
   1  -6   0   45.94    3.36
   1  -6   0   42.13    5.09
   1  -6   0   47.74    3.96
   1  -6   0   52.68    4.84
   1  -6   0   49.84    4.27
  -1   6   0   45.05    5.12
  -1   6   0   45.55    4.33
  -1   6   0   49.43    4.69
   0  -6   0  768.49   25.91
   0  -6   0  837.20   24.65
   0  -6   0  790.92   24.88
   0   6   0  815.00   25.27
   0   6   0  808.45   23.86
   0   6   0  751.38   25.72
   0   6   0  879.90   31.72
  -1  -6   0  351.18   13.02
  -1  -6   0  354.15   14.02
  -1  -6   0  345.71   13.92
  -1  -6   0  339.86   12.56
   1   6   0  343.34   13.63
   1   6   0  359.32   13.16
   1   6   0  341.46   12.44
  -2  -6   0  275.80   10.84
  -2  -6   0  290.31   11.33
  -2  -6   0  285.25   12.18
   2   6   0  296.45   11.24
   2   6   0  282.85   10.97
  -3  -6   0  968.57   27.56
  -3  -6   0  916.32   29.04
  -3  -6   0  946.58   27.81
   3   6   0  940.82   28.07
   3   6   0  861.29   26.15
  -4  -6   0   29.60    3.81
  -4  -6   0   32.17    3.78
  -4  -6   0   25.98    4.05
  -4  -6   0   19.51    4.22
   4   6   0   21.95    3.51
  -5  -6   0  278.24   11.46
  -5  -6   0  267.58   11.63
  -5  -6   0  274.34   12.74
   5   6   0  300.43   12.62
  -6  -6   0   -0.14    1.41
  -6  -6   0    1.37    1.67
  -6  -6   0    1.98    1.52
  -7  -6   0   37.63    5.02
  -7  -6   0   29.39    5.19
  -7  -6   0   31.10    4.88
  -7   7   0   30.33    6.06
  -6   7   0  148.39   10.76
  -5   7   0  312.92   15.54
   4  -7   0   14.62    2.11
   4  -7   0   14.97    2.24
   4  -7   0   14.56    3.19
   4  -7   0   22.66    4.32
  -4   7   0   14.38    3.91
  -4   7   0   21.24    4.32
   3  -7   0   95.50    6.58
   3  -7   0   93.76    6.81
   3  -7   0   91.23    5.13
   3  -7   0  106.36    5.58
  -3   7   0   86.66    7.48
  -3   7   0   93.84    7.27
   2  -7   0   28.33    3.25
   2  -7   0   28.69    4.37
   2  -7   0   24.13    4.15
   2  -7   0   19.73    4.07
   2  -7   0   31.18    4.34
  -2   7   0   24.86    4.27
  -2   7   0   22.08    3.88
  -2   7   0   24.26    4.45
   1  -7   0  154.62    8.05
   1  -7   0  147.45    6.93
   1  -7   0  131.06    8.55
   1  -7   0  138.48    8.04
  -1   7   0  153.03    8.75
  -1   7   0  129.84    8.56
  -1   7   0  142.58    8.39
   0  -7   0  681.78   24.68
   0  -7   0  725.57   23.19
   0  -7   0  704.15   23.51
   0   7   0  721.49   23.93
   0   7   0  727.71   24.85
   0   7   0  741.26   22.63
  -1  -7   0 1937.07   56.35
  -1  -7   0 1943.60   55.01
  -1  -7   0 2015.24   54.71
  -1  -7   0 1895.39   56.21
   1   7   0 1965.20   55.08
   1   7   0 2141.16   62.47
   1   7   0 2000.29   54.32
  -2  -7   0   65.12    5.61
  -2  -7   0   71.37    5.05
  -2  -7   0   67.22    5.15
   2   7   0   74.93    5.23
   2   7   0   69.10    5.01
  -3  -7   0   98.96    6.29
  -3  -7   0  110.06    7.36
  -3  -7   0  102.29    6.45
   3   7   0  106.20    6.63
  -4  -7   0  551.81   19.49
  -4  -7   0  537.67   20.58
  -4  -7   0  554.88   19.10
   4   7   0  566.86   20.00
  -5  -7   0  760.94   26.47
  -5  -7   0  744.30   24.51
  -5  -7   0  741.29   24.98
   5   7   0  770.37   25.88
  -6  -7   0   41.31    5.10
  -6  -7   0   42.81    5.60
  -6  -7   0   35.62    5.40
   6   7   0   44.54    5.83
  -7  -7   0   32.90    5.02
  -7  -7   0   30.52    5.66
  -7  -7   0   23.81    4.42
  -6   8   0   17.98    5.01
  -5   8   0  592.02   24.45
   4  -8   0  243.70   13.06
   4  -8   0  290.55   10.62
   4  -8   0  277.53   13.16
  -4   8   0  269.43   14.48
   3  -8   0   39.82    5.66
   3  -8   0   44.91    3.90
   3  -8   0   39.97    5.51
   3  -8   0   41.54    4.14
  -3   8   0   39.80    6.04
   2  -8   0 1360.58   40.00
   2  -8   0 1273.69   37.63
   2  -8   0 1342.35   40.60
  -2   8   0 1300.83   41.16
   1  -8   0  380.45   15.74
   1  -8   0  378.08   13.91
   1  -8   0  385.93   15.29
  -1   8   0  382.05   14.43
  -1   8   0  363.07   15.83
  -1   8   0  344.93   19.26
   0  -8   0   85.75    7.09
   0  -8   0   97.75    6.67
   0  -8   0   83.88    5.45
   0  -8   0  112.87    7.36
   0   8   0  103.04    7.74
   0   8   0   98.31    6.25
   0   8   0  100.69    7.14
  -1  -8   0    5.27    2.01
  -1  -8   0    4.99    2.18
  -1  -8   0    2.18    1.50
   1   8   0    2.61    1.73
   1   8   0    3.18    1.73
  -2  -8   0  733.42   24.98
  -2  -8   0  738.79   24.57
  -2  -8   0  747.11   26.47
   2   8   0  756.59   24.62
   2   8   0  752.52   24.64
  -3  -8   0   65.50    5.45
  -3  -8   0   51.44    6.58
  -3  -8   0   56.10    5.80
   3   8   0   46.87    5.43
  -4  -8   0  692.17   25.69
  -4  -8   0  734.21   24.37
  -4  -8   0  710.84   24.64
   4   8   0  725.75   25.00
  -5  -8   0  865.70   28.52
  -5  -8   0  828.75   27.66
  -5  -8   0  811.56   29.43
   5   8   0  857.67   28.90
  -6  -8   0    4.45    2.24
  -6  -8   0    2.13    1.99
  -6  -8   0   -3.42    2.01
   6   8   0    4.91    2.74
  -5   9   0  514.86   23.32
   4  -9   0   48.30    6.66
   4  -9   0   50.56    4.26
   4  -9   0   48.42    6.67
  -4   9   0   58.13    7.96
   3  -9   0 1612.31   47.73
   3  -9   0 1529.14   43.80
   3  -9   0 1521.45   48.06
  -3   9   0 1607.56   49.60
   2  -9   0 1175.19   38.27
   2  -9   0 1233.77   37.89
  -2   9   0 1156.51   38.81
   1  -9   0  481.26   19.39
   1  -9   0  473.23   18.70
  -1   9   0  463.01   19.44
  -1   9   0  470.44   17.64
   0  -9   0   75.46    6.33
   0  -9   0   80.82    6.70
   0   9   0   67.11    6.55
   0   9   0   93.34    7.36
  -1  -9   0   19.17    3.90
  -1  -9   0   23.14    3.93
   1   9   0   23.78    4.21
   1   9   0   27.96    4.42
  -2  -9   0    0.39    1.47
  -2  -9   0    4.27    1.98
   2   9   0    1.46    1.61
  -3  -9   0    1.21    1.74
  -3  -9   0    2.72    1.86
   3   9   0    2.39    1.93
  -4  -9   0  282.64   13.52
  -4  -9   0  286.65   14.07
   4   9   0  321.60   14.58
  -5  -9   0  175.72   10.90
  -5  -9   0  183.33   10.55
   5   9   0  186.57   11.15
  -6  -9   0   45.17    6.20
  -6  -9   0   61.42    7.17
   6   9   0   48.53    6.95
   4 -10   0   18.03    3.17
   4 -10   0   16.38    4.26
  -4  10   0   14.60    4.66
   3 -10   0  118.80    9.35
   3 -10   0  107.49    8.50
   3 -10   0  113.36    6.80
  -3  10   0   79.86    9.23
   2 -10   0  152.28   10.06
   2 -10   0  161.44   10.62
  -2  10   0  147.77   10.62
  -2  10   0  142.40    8.90
   1 -10   0   90.63    9.62
   1 -10   0   82.46    8.46
  -1  10   0   90.66    9.61
  -1  10   0   95.34    7.14
   0 -10   0  573.95   22.15
   0 -10   0  573.12   22.79
   0  10   0  574.83   23.01
   0  10   0  591.07   21.62
  -1 -10   0  118.78    8.43
  -1 -10   0  103.11    8.21
   1  10   0  112.00    7.90
  -2 -10   0   21.98    4.29
  -2 -10   0   26.73    5.00
   2  10   0   23.15    4.36
  -3 -10   0   18.39    4.38
  -3 -10   0   15.48    3.81
   3  10   0   19.99    4.31
  -4 -10   0   10.87    3.16
  -4 -10   0    2.35    2.38
   4  10   0    2.41    2.19
  -5 -10   0  185.74   11.92
  -5 -10   0  181.48   11.13
   5  10   0  188.47   11.81
   3 -11   0    6.06    3.30
   3 -11   0    3.94    3.03
  -3  11   0    6.25    3.54
  -3  11   0    3.73    2.06
   2 -11   0   43.77    6.91
   2 -11   0   46.10    6.72
  -2  11   0   43.32    7.30
  -2  11   0   41.97    5.86
   1 -11   0   87.51    9.38
   1 -11   0   89.80    9.66
  -1  11   0   88.43    8.42
  -1  11   0   80.90    9.30
   0 -11   0   24.59    5.25
   0 -11   0   21.93    4.80
   0  11   0   23.93    4.59
  -1 -11   0   33.95    5.86
  -1 -11   0   34.00    5.62
   1  11   0   25.67    4.76
  -2 -11   0   17.15    4.45
  -2 -11   0   11.92    3.63
   2  11   0   14.29    3.83
  -3 -11   0    0.23    2.39
  -3 -11   0    4.34    2.78
   3  11   0    4.17    2.65
  -4 -11   0    4.06    2.59
  -4 -11   0    6.75    3.04
   4  11   0    4.65    2.97
   1 -12   0   71.48    9.03
   1 -12   0   87.91   10.57
  -1  12   0   68.99    8.04
   0 -12   0   69.69    9.43
   0 -12   0   76.10    9.17
   0  12   0   86.36    9.19
  -1 -12   0   39.58    6.64
  -1 -12   0   39.51    6.83
   1  12   0   39.70    6.50
  -2 -12   0   15.98    4.36
  -2 -12   0   19.20    4.95
   2  12   0   14.63    4.21
   3  11  -1    6.91    3.16
  -3 -11   1    1.79    2.58
  -3 -11   1    3.11    2.59
   2  11  -1   26.86    5.39
  -2 -11   1   25.16    5.08
  -2 -11   1   32.30    5.98
   1  11  -1    1.71    2.00
  -1 -11   1   -1.09    1.73
  -1 -11   1   -0.85    1.78
   0  11  -1   54.04    6.91
   0 -11   1   67.61    8.26
   0 -11   1   61.30    8.48
  -1  11  -1  103.46    9.61
  -1  11  -1  112.52   12.75
   1 -11   1  124.49    9.75
   1 -11   1  125.59   10.09
  -2  11  -1    8.70    3.04
  -2  11  -1   11.31    4.39
   2 -11   1    6.54    3.28
   2 -11   1    9.10    3.78
  -3  11  -1   78.16   10.19
  -3  11  -1   79.88    8.35
   3 -11   1   74.56    9.09
   3 -11   1   91.38   10.39
   4  10  -1    6.87    3.08
  -4 -10   1   10.17    3.74
  -4 -10   1    7.21    3.24
   3  10  -1    3.51    2.37
  -3 -10   1    3.36    2.49
  -3 -10   1    2.38    2.39
   2  10  -1   80.08    8.36
  -2 -10   1   61.52    7.28
  -2 -10   1   53.46    7.26
   1  10  -1  268.30   13.23
  -1 -10   1  252.47   13.32
  -1 -10   1  234.46   13.47
   0  10  -1  194.44   11.97
   0  10  -1  174.28   10.49
   0 -10   1  199.23   11.63
   0 -10   1  201.76   12.13
  -1  10  -1  123.02    8.48
  -1  10  -1  119.78    9.56
   1 -10   1  124.94    9.19
   1 -10   1  119.91    9.30
  -2  10  -1  114.22    9.63
  -2  10  -1  111.04    7.92
   2 -10   1  130.78    9.82
   2 -10   1  106.83    8.75
  -3  10  -1   21.34    4.21
  -3  10  -1   19.35    5.01
   3 -10   1   15.11    4.43
   3 -10   1   17.28    4.31
  -4  10  -1   19.71    5.46
  -4  10  -1   14.28    3.57
   4 -10   1   20.43    3.29
   5   9  -1  235.06   13.23
  -5  -9   1  208.68   12.15
  -5  -9   1  245.93   13.51
   4   9  -1    0.13    1.49
  -4  -9   1    4.06    2.25
  -4  -9   1    0.75    2.18
   3   9  -1    2.58    2.04
  -3  -9   1   -3.14    1.67
  -3  -9   1    2.87    2.09
   2   9  -1   87.50    8.25
  -2  -9   1   81.45    6.73
  -2  -9   1   68.82    7.55
   1   9  -1    5.46    2.39
   1   9  -1    5.98    2.45
  -1  -9   1    7.65    2.67
  -1  -9   1    5.46    2.36
   0   9  -1  144.78    9.58
   0   9  -1  146.37    8.77
   0  -9   1  140.95    9.40
   0  -9   1  152.96    9.48
  -1   9  -1  139.42    8.29
  -1   9  -1  121.07    9.14
   1  -9   1  124.19    8.90
   1  -9   1  124.80    8.54
  -2   9  -1  603.90   22.11
  -2   9  -1  634.23   24.86
   2  -9   1  651.91   23.87
   2  -9   1  634.65   24.25
  -3   9  -1  117.55    9.63
  -3   9  -1  117.92    7.73
   3  -9   1  125.39    9.25
   3  -9   1  127.73    9.01
  -4   9  -1 1048.03   37.62
   4  -9   1 1087.55   35.91
   4  -9   1 1069.27   31.20
  -5   9  -1  585.78   25.64
   6   8  -1  211.72   12.41
  -6  -8   1  212.26   12.14
  -6  -8   1  194.42   11.36
   5   8  -1  162.19   10.31
  -5  -8   1  156.28   10.04
  -5  -8   1  172.69   10.04
   4   8  -1    4.39    2.38
  -4  -8   1    9.07    2.76
  -4  -8   1    5.06    2.34
   3   8  -1  153.33    9.17
  -3  -8   1  169.93   10.66
  -3  -8   1  156.35    9.46
  -3  -8   1  157.07    9.16
   2   8  -1  170.34    9.39
  -2  -8   1  168.94   10.55
  -2  -8   1  172.69    9.44
  -2  -8   1  177.40    9.93
   1   8  -1   77.73    5.95
   1   8  -1   80.50    6.47
  -1  -8   1   73.23    6.29
  -1  -8   1   84.37    8.07
  -1  -8   1   83.62    6.33
  -1  -8   1   83.79    6.24
   0   8  -1  452.02   16.88
   0   8  -1  422.13   17.91
   0  -8   1  450.83   17.99
   0  -8   1  478.74   19.68
   0  -8   1  454.23   17.59
  -1   8  -1  522.46   20.53
  -1   8  -1  497.25   18.29
   1  -8   1  516.27   19.50
   1  -8   1  543.09   20.22
  -2   8  -1    1.22    1.39
  -2   8  -1    1.96    2.00
   2  -8   1    2.53    1.95
   2  -8   1    3.31    2.16
   2  -8   1    1.25    1.12
  -3   8  -1  299.54   15.21
   3  -8   1  336.84   15.08
   3  -8   1  303.57   12.18
   3  -8   1  333.68   14.67
  -4   8  -1  652.09   25.53
   4  -8   1  636.16   23.63
   4  -8   1  662.24   19.95
   4  -8   1  632.96   24.11
  -5   8  -1    7.80    3.76
  -6   8  -1   33.20    6.43
  -7  -7   1    7.33    2.88
  -7  -7   1    0.19    2.45
   6   7  -1    0.16    1.83
  -6  -7   1    1.31    1.97
  -6  -7   1   -3.23    1.26
  -6  -7   1    1.65    1.85
   5   7  -1  420.92   17.51
  -5  -7   1  408.03   18.11
  -5  -7   1  443.60   17.42
  -5  -7   1  410.83   16.68
   4   7  -1   -0.47    1.22
  -4  -7   1   -0.90    1.28
  -4  -7   1    1.29    1.65
  -4  -7   1   -0.79    1.37
   3   7  -1  203.65   10.26
  -3  -7   1  199.25   11.14
  -3  -7   1  207.75   10.45
  -3  -7   1  228.11   10.47
   2   7  -1  492.56   17.81
   2   7  -1  495.11   17.86
  -2  -7   1  479.47   19.12
  -2  -7   1  482.04   18.08
  -2  -7   1  500.17   17.76
   1   7  -1   15.56    3.27
   1   7  -1    9.63    2.62
   1   7  -1    9.10    2.28
  -1  -7   1   10.32    2.55
  -1  -7   1   10.16    2.49
  -1  -7   1    6.75    1.73
  -1  -7   1   13.23    3.35
   0   7  -1   21.35    3.19
   0   7  -1   31.14    4.53
   0   7  -1   29.09    4.94
   0  -7   1   28.43    4.54
   0  -7   1   27.59    4.17
   0  -7   1   23.84    3.68
   0  -7   1   33.66    3.78
  -1   7  -1  191.42    8.92
  -1   7  -1  196.14   10.27
  -1   7  -1  183.10   10.35
  -1   7  -1  169.64   10.49
   1  -7   1  202.47    9.70
   1  -7   1  187.52    9.84
   1  -7   1  196.56   10.80
  -2   7  -1  778.33   27.19
  -2   7  -1  772.85   27.73
  -2   7  -1  824.21   27.01
   2  -7   1  815.61   25.83
   2  -7   1  702.13   31.51
   2  -7   1  748.32   23.68
   2  -7   1  791.15   26.21
  -3   7  -1  120.75    8.52
  -3   7  -1  144.31    9.76
   3  -7   1  135.25    8.03
   3  -7   1  118.08    6.29
   3  -7   1  128.61    6.19
   3  -7   1  132.62    8.35
  -4   7  -1  203.20   11.81
  -4   7  -1  210.37   12.53
   4  -7   1  213.46    8.23
   4  -7   1  209.84    7.88
   4  -7   1  201.05   10.61
   4  -7   1  214.64   11.12
  -5   7  -1  182.09   11.50
  -6   7  -1   69.55    8.68
  -7  -6   1   61.51    7.88
  -7  -6   1   59.11    6.90
  -6  -6   1   10.92    2.87
  -6  -6   1    8.52    2.78
  -6  -6   1    7.47    2.83
   5   6  -1  113.98    7.80
  -5  -6   1  126.58    8.66
  -5  -6   1  124.64    7.83
  -5  -6   1  135.28    7.76
   4   6  -1  513.50   18.87
  -4  -6   1  499.64   21.21
  -4  -6   1  523.07   18.23
  -4  -6   1  510.85   19.72
  -4  -6   1  547.63   18.92
   3   6  -1   92.61    5.39
   3   6  -1   92.29    6.09
  -3  -6   1   84.25    5.82
  -3  -6   1   90.85    5.86
  -3  -6   1   90.79    6.62
   2   6  -1  253.19   10.66
   2   6  -1  250.94   10.61
  -2  -6   1  252.60   10.87
  -2  -6   1  239.93   11.50
  -2  -6   1  254.43   10.53
   1   6  -1 1713.49   48.04
   1   6  -1 1696.61   47.13
   1   6  -1 1653.37   48.99
  -1  -6   1 1745.49   47.58
  -1  -6   1 1709.57   47.85
  -1  -6   1 1710.47   45.96
  -1  -6   1 1726.30   49.39
   0   6  -1  129.88    6.59
   0   6  -1  139.69    7.72
   0   6  -1  130.45    8.04
   0  -6   1  142.21    7.54
   0  -6   1  138.50    8.09
   0  -6   1  123.07    6.14
   0  -6   1  127.77    6.94
  -1   6  -1   66.56    5.32
  -1   6  -1   62.83    4.38
  -1   6  -1   56.78    5.37
  -1   6  -1   63.93    5.41
   1  -6   1   64.24    5.47
   1  -6   1   71.15    5.04
   1  -6   1   81.69    5.59
  -2   6  -1   18.46    3.76
  -2   6  -1   21.22    3.70
  -2   6  -1   24.29    4.45
   2  -6   1   33.75    4.31
   2  -6   1   21.56    3.65
   2  -6   1   23.26    2.88
   2  -6   1   19.92    3.74
  -3   6  -1    9.87    2.85
  -3   6  -1   12.55    3.16
  -3   6  -1   12.69    3.12
   3  -6   1    8.85    2.42
   3  -6   1   13.09    2.14
   3  -6   1   10.98    1.87
   3  -6   1   10.89    2.64
  -4   6  -1   19.70    4.01
  -4   6  -1   22.85    4.43
   4  -6   1   27.45    2.66
   4  -6   1   16.14    3.33
   4  -6   1   25.36    1.84
   4  -6   1   26.05    3.97
   4  -6   1   17.02    3.82
  -5   6  -1  734.98   27.90
  -5   6  -1  787.24   27.40
   5  -6   1  763.84   28.17
  -6   6  -1   52.75    6.99
  -6   6  -1   80.50    9.25
  -7   6  -1   24.28    5.14
  -7  -5   1    8.50    2.93
  -7  -5   1    9.45    3.06
  -6  -5   1   77.48    5.81
  -6  -5   1   75.81    6.56
  -6  -5   1   68.61    5.78
   5   5  -1  989.89   31.16
  -5  -5   1 1039.71   30.89
  -5  -5   1  966.69   31.89
  -5  -5   1  983.75   30.10
   4   5  -1   25.86    1.88
   4   5  -1   25.88    3.94
  -4  -5   1   29.17    3.66
  -4  -5   1   22.08    4.33
  -4  -5   1   30.97    3.95
  -4  -5   1   23.89    4.01
   3   5  -1  428.76   15.36
  -3  -5   1  429.62   16.14
  -3  -5   1  427.60   14.77
  -3  -5   1  420.37   15.00
   2   5  -1  120.60    6.10
  -2  -5   1  110.90    5.85
  -2  -5   1  111.47    6.79
  -2  -5   1  106.05    6.00
   1   5  -1  386.55   13.47
   1   5  -1  390.69   14.81
   1   5  -1  395.18   14.09
  -1  -5   1  413.68   14.12
  -1  -5   1  387.79   12.52
  -1  -5   1  390.40   14.84
  -1  -5   1  399.86   13.73
   0   5  -1  826.64   25.12
   0   5  -1  890.42   26.72
   0   5  -1  869.53   26.79
   0  -5   1  913.84   24.94
   0  -5   1  872.98   25.90
  -1   5  -1  165.76    8.76
  -1   5  -1  169.46    8.57
  -1   5  -1  173.63    7.29
  -1   5  -1  183.40    8.60
   1  -5   1  165.16    7.99
   1  -5   1  171.21    7.81
   1  -5   1  182.51    8.93
  -2   5  -1  304.20   12.53
  -2   5  -1  299.41   12.99
  -2   5  -1  318.21   13.05
   2  -5   1  322.41   13.08
   2  -5   1  311.57   10.58
   2  -5   1  276.55   11.71
   2  -5   1  302.60   11.69
  -3   5  -1  536.46   19.69
  -3   5  -1  534.75   19.05
  -3   5  -1  525.15   19.62
   3  -5   1  533.72   15.78
   3  -5   1  552.05   18.52
   3  -5   1  513.38   15.87
   3  -5   1  551.15   18.07
  -4   5  -1  356.36   15.31
  -4   5  -1  345.25   15.38
  -4   5  -1  336.26   14.59
   4  -5   1  337.88   13.70
   4  -5   1  385.49   15.44
   4  -5   1  379.43   13.72
   4  -5   1  360.79   10.82
  -5   5  -1  300.24   14.11
  -5   5  -1  321.04   15.22
  -5   5  -1  316.76   14.69
   5  -5   1  311.09   12.56
   5  -5   1  323.45   15.30
  -6   5  -1  934.76   32.90
  -6   5  -1  950.42   31.90
  -7   5  -1  413.15   18.39
  -7   5  -1  364.84   18.48
  -8  -4   1   56.17    7.53
  -8  -4   1   53.61    6.71
  -7  -4   1  167.67    9.54
  -7  -4   1  162.78   10.19
  -6  -4   1   12.19    3.12
  -6  -4   1   12.45    2.87
  -5  -4   1   36.06    4.75
  -5  -4   1   41.30    4.44
  -5  -4   1   37.29    5.95
  -5  -4   1   40.62    4.46
   4   4  -1 2223.23   55.87
   4   4  -1 2269.64   60.32
  -4  -4   1 2312.21   59.40
  -4  -4   1 2130.98   59.60
  -4  -4   1 2190.21   59.53
  -4  -4   1 2205.49   63.16
  -4  -4   1 2186.20   60.78
   3   4  -1  691.62   21.31
  -3  -4   1  690.93   20.65
  -3  -4   1  697.23   20.96
  -3  -4   1  686.90   23.29
  -3  -4   1  615.99   20.84
  -3  -4   1  710.31   22.23
   2   4  -1 1144.84   32.89
   2   4  -1 1232.58   32.82
   2   4  -1 1207.21   34.01
  -2  -4   1 1190.47   32.98
  -2  -4   1 1174.24   34.07
  -2  -4   1 1185.17   32.65
  -2  -4   1 1108.60   33.02
   1   4  -1  933.91   27.55
   1   4  -1  977.36   27.06
   1   4  -1  962.58   28.31
   1   4  -1  944.81   27.48
  -1  -4   1  945.52   28.33
  -1  -4   1  995.52   27.49
  -1  -4   1  929.39   27.00
   0   4  -1 1805.54   49.21
   0   4  -1 1781.19   47.94
   0   4  -1 1829.22   49.60
   0  -4   1 1777.10   48.80
   0  -4   1 1914.50   47.69
   0  -4   1 1812.20   48.53
  -1   4  -1   38.19    3.96
  -1   4  -1   34.80    3.97
  -1   4  -1   37.76    3.52
   1  -4   1   26.95    2.95
   1  -4   1   31.80    3.39
   1  -4   1   34.53    3.28
   1  -4   1   21.10    1.98
  -2   4  -1  400.18   14.42
  -2   4  -1  379.03   13.72
   2  -4   1  384.43   11.88
   2  -4   1  360.16   13.88
   2  -4   1  375.81   12.99
   2  -4   1  380.26   13.29
  -3   4  -1   45.19    4.22
  -3   4  -1   38.77    4.56
  -3   4  -1   47.78    4.15
   3  -4   1   42.77    2.37
   3  -4   1   42.09    2.48
   3  -4   1   47.88    3.83
   3  -4   1   45.31    3.56
  -4   4  -1  194.22    9.59
  -4   4  -1  228.85   10.74
  -4   4  -1  203.46   10.13
   4  -4   1  206.23   10.39
   4  -4   1  193.04    8.85
   4  -4   1  210.36    8.75
  -5   4  -1  450.03   17.56
  -5   4  -1  463.98   18.04
  -5   4  -1  434.08   16.90
   5  -4   1  429.60   15.10
   5  -4   1  448.17   18.48
  -6   4  -1   39.70    5.44
  -6   4  -1   42.85    5.75
  -6   4  -1   36.80    5.34
   6  -4   1   52.76    7.28
  -7   4  -1   14.01    4.08
  -7   4  -1   17.10    4.27
  -8   4  -1   23.45    5.01
  -8   4  -1   21.30    4.62
  -8  -3   1  215.46   11.63
  -8  -3   1  237.07   13.12
  -7  -3   1  642.02   23.57
  -7  -3   1  629.63   22.18
  -6  -3   1   19.42    3.31
  -6  -3   1   16.68    3.45
  -5  -3   1    0.62    1.10
  -5  -3   1    1.97    1.22
  -5  -3   1   -0.07    1.33
  -5  -3   1   -0.12    0.75
  -5  -3   1   -0.14    1.02
  -4  -3   1  225.64    9.06
  -4  -3   1  211.72    9.45
  -4  -3   1  232.56   11.44
  -4  -3   1  225.59    9.08
  -4  -3   1  218.78    8.74
   3   3  -1  386.65   11.89
   3   3  -1  392.09   13.50
  -3  -3   1  383.60   13.06
  -3  -3   1  405.70   13.14
  -3  -3   1  404.96   13.96
  -3  -3   1  374.77   14.84
  -3  -3   1  418.27   12.98
   2   3  -1  483.80   15.16
   2   3  -1  478.14   14.66
   2   3  -1  489.06   14.99
  -2  -3   1  501.11   15.98
  -2  -3   1  489.44   15.27
  -2  -3   1  480.09   14.70
  -2  -3   1  469.65   14.85
   1   3  -1 1810.72   48.53
   1   3  -1 1784.18   48.13
   1   3  -1 1865.13   48.69
   1   3  -1 1842.15   49.29
  -1  -3   1 1835.40   48.34
  -1  -3   1 1822.33   49.27
  -1  -3   1 1879.41   48.76
  -1  -3   1 1870.22   48.18
   0   3  -1 2406.47   60.77
   0   3  -1 2424.57   62.48
   0   3  -1 2292.01   61.64
   0   3  -1 2344.40   62.01
   0  -3   1 2350.70   61.40
   0  -3   1 2325.03   60.40
   0  -3   1 2427.90   61.21
  -1   3  -1 2230.72   60.60
  -1   3  -1 2298.49   61.29
  -1   3  -1 2304.56   61.12
  -1   3  -1 2212.81   59.87
   1  -3   1 2360.92   60.13
   1  -3   1 2415.69   59.34
   1  -3   1 2306.30   60.36
   1  -3   1 2386.76   61.18
  -2   3  -1  112.03    5.26
  -2   3  -1  104.75    5.85
  -2   3  -1  112.61    5.69
  -2   3  -1  118.91    6.11
   2  -3   1  116.49    4.47
   2  -3   1  128.27    6.17
   2  -3   1  119.03    5.38
   2  -3   1  118.63    5.54
  -3   3  -1   28.35    2.16
  -3   3  -1   28.76    3.78
  -3   3  -1   22.01    3.00
  -3   3  -1   27.08    3.36
  -3   3  -1   24.58    2.76
   3  -3   1   30.70    3.69
   3  -3   1   29.24    1.62
   3  -3   1   29.56    3.10
   3  -3   1   22.73    2.80
  -4   3  -1   -0.63    0.67
  -4   3  -1    0.61    0.90
  -4   3  -1    1.02    1.04
  -4   3  -1   -0.02    0.74
   4  -3   1   -0.62    0.64
   4  -3   1   -0.06    0.77
   4  -3   1    0.94    0.78
  -5   3  -1  235.82   10.54
  -5   3  -1  241.18   11.25
  -5   3  -1  230.29   10.82
   5  -3   1  229.36    8.81
   5  -3   1  241.32   12.16
  -6   3  -1  324.78   14.68
  -6   3  -1  329.41   14.46
  -6   3  -1  324.71   11.53
  -6   3  -1  357.90   14.28
   6  -3   1  333.91   16.24
  -7   3  -1   31.54    5.08
  -7   3  -1   31.62    5.30
  -7   3  -1   36.88    5.12
  -8   3  -1   68.18    7.66
  -8   3  -1   68.87    8.59
  -8  -2   1  171.00   10.05
  -8  -2   1  175.32   11.01
  -7  -2   1    9.18    2.97
  -7  -2   1   11.37    3.02
  -6  -2   1   93.58    6.18
  -6  -2   1  109.45    7.06
  -5  -2   1    7.61    2.57
  -5  -2   1    6.68    1.96
  -5  -2   1    7.14    1.87
  -5  -2   1    8.06    2.01
  -4  -2   1  188.98    9.84
  -4  -2   1  186.83    7.62
  -4  -2   1  185.57    7.69
  -4  -2   1  189.39    7.82
  -4  -2   1  184.31    8.18
   3   2  -1  206.96    8.31
   3   2  -1  217.22    6.99
  -3  -2   1  217.15    8.52
  -3  -2   1  219.41    8.11
  -3  -2   1  220.23    7.93
  -3  -2   1  212.11    8.03
  -3  -2   1  232.39   10.03
   2   2  -1    2.25    0.73
   2   2  -1    2.15    0.80
   2   2  -1    3.46    1.03
   2   2  -1    2.56    0.79
  -2  -2   1    2.67    0.96
  -2  -2   1    3.50    1.01
  -2  -2   1    3.26    1.28
  -2  -2   1    2.57    0.89
  -2  -2   1    3.79    1.25
   1   2  -1  410.00   12.15
   1   2  -1  364.16   11.39
   1   2  -1  374.53   11.11
   1   2  -1  384.37   11.57
   1   2  -1  388.91   11.69
  -1  -2   1  350.32   11.22
  -1  -2   1  369.98   11.64
  -1  -2   1  380.22   10.53
  -1  -2   1  393.85   12.26
  -1  -2   1  363.32   11.41
   0   2  -1 2222.43   56.67
   0   2  -1 2224.19   56.89
   0   2  -1 2297.55   60.99
   0   2  -1 2320.72   57.52
   0   2  -1 2225.30   57.67
   0  -2   1 2161.35   57.27
   0  -2   1 1965.01   57.49
   0  -2   1 2360.17   58.94
   0  -2   1 2285.62   57.22
   0  -2   1 2195.16   59.04
  -1   2  -1 2521.98   64.96
  -1   2  -1 2557.78   67.30
  -1   2  -1 2430.05   64.02
  -1   2  -1 2474.63   65.47
  -1   2  -1 2494.65   64.27
   1  -2   1 2510.15   65.90
   1  -2   1 2585.44   66.01
   1  -2   1 2566.63   67.61
   1  -2   1 2480.89   64.30
  -2   2  -1    1.73    0.78
  -2   2  -1    1.22    0.80
  -2   2  -1    0.95    0.91
  -2   2  -1    2.53    1.01
  -2   2  -1    1.32    0.59
  -2   2  -1    0.60    0.74
   2  -2   1    2.88    1.12
   2  -2   1    0.74    0.73
   2  -2   1    1.30    0.85
   2  -2   1    1.72    0.42
   2  -2   1    0.87    0.45
   2  -2   1    1.75    0.94
  -3   2  -1  296.82    9.29
  -3   2  -1  304.13   10.42
  -3   2  -1  313.79   10.77
  -3   2  -1  300.32   10.11
  -3   2  -1  300.37   11.12
  -3   2  -1  324.54    9.34
  -3   2  -1  299.99   10.99
   3  -2   1  323.26   10.03
   3  -2   1  310.11   10.18
   3  -2   1  311.90   11.68
  -4   2  -1   92.73    3.85
  -4   2  -1   86.05    4.95
  -4   2  -1   78.51    4.60
  -4   2  -1  101.75    5.76
  -4   2  -1   78.21    3.67
  -4   2  -1   92.19    5.42
  -4   2  -1   88.05    4.59
   4  -2   1   87.95    6.06
   4  -2   1   83.76    4.08
  -5   2  -1  159.71    7.20
  -5   2  -1  172.07    6.24
  -5   2  -1  153.16    7.46
  -5   2  -1  164.76    7.97
  -5   2  -1  176.64    8.79
  -5   2  -1  163.78    8.14
   5  -2   1  162.19    6.04
   5  -2   1  160.21    9.44
   5  -2   1  157.95    6.21
  -6   2  -1  420.98   15.88
  -6   2  -1  412.39   13.37
  -6   2  -1  440.67   16.59
  -6   2  -1  441.86   17.16
   6  -2   1  425.51   18.90
  -7   2  -1    5.61    2.32
  -7   2  -1    2.71    2.17
  -7   2  -1    4.58    2.18
  -8   2  -1    3.91    2.34
  -8   2  -1    5.25    2.74
  -8  -1   1  118.20    8.21
  -8  -1   1  120.27    9.10
  -7  -1   1    1.46    1.68
  -7  -1   1    1.59    1.65
   6   1  -1  377.12   17.69
  -6  -1   1  361.86   14.06
  -6  -1   1  371.38   14.82
  -6  -1   1  361.46   11.47
   5   1  -1  361.74   16.04
  -5  -1   1  351.16   15.63
  -5  -1   1  387.54   13.42
  -5  -1   1  380.99   13.87
  -5  -1   1  343.23   12.81
   4   1  -1  380.77   10.53
   4   1  -1  398.33   15.52
   4   1  -1  383.51   10.81
  -4  -1   1  384.33   15.22
  -4  -1   1  372.21   12.70
  -4  -1   1  403.05   13.18
  -4  -1   1  391.81   13.40
   3   1  -1  186.69    6.05
   3   1  -1  185.00    8.57
  -3  -1   1  196.37    7.45
  -3  -1   1  169.31    6.77
  -3  -1   1  181.49    8.52
  -3  -1   1  193.27    7.17
   2   1  -1  619.94   16.30
   2   1  -1  595.85   16.14
   2   1  -1  591.54   16.41
   2   1  -1  570.15   18.06
  -2  -1   1  585.92   16.70
  -2  -1   1  622.40   18.34
  -2  -1   1  616.03   17.29
  -2  -1   1  588.98   16.84
  -2  -1   1  561.94   16.69
   1   1  -1  786.81   21.69
   1   1  -1  828.13   22.32
   1   1  -1  839.66   22.02
   1   1  -1  819.41   22.06
  -1  -1   1  833.77   22.52
  -1  -1   1  845.66   22.12
  -1  -1   1  866.46   21.19
  -1  -1   1  790.23   21.97
  -1  -1   1  841.71   22.52
  -1  -1   1  818.12   22.53
  -1  -1   1  797.51   21.87
   0   1  -1 6835.65  176.07
   0   1  -1 6977.24  177.65
   0   1  -1 6966.50  177.76
   0   1  -1 6854.33  179.86
   0  -1   1 6963.20  176.10
   0  -1   1 6984.99  179.37
   0  -1   1 7138.83  177.55
   0  -1   1 6786.64  176.52
   0  -1   1 6825.45  177.66
  -1   1  -1 1745.19   46.10
  -1   1  -1 1769.59   43.87
  -1   1  -1 1642.37   43.94
  -1   1  -1 1700.59   43.74
  -1   1  -1 1749.76   43.90
   1  -1   1 1675.77   43.88
   1  -1   1 1733.80   43.86
   1  -1   1 1653.03   44.79
   1  -1   1 1742.70   46.83
   1  -1   1 1771.39   43.68
  -2   1  -1 4142.01  104.07
  -2   1  -1 3968.71  104.64
  -2   1  -1 4084.27  101.67
  -2   1  -1 4202.40  107.87
  -2   1  -1 3966.77  107.18
  -2   1  -1 3958.48  103.99
  -2   1  -1 4118.74  102.73
  -2   1  -1 4072.01  103.69
   2  -1   1 3996.51  103.55
   2  -1   1 4137.98  108.02
   2  -1   1 4112.24  104.07
  -3   1  -1 2111.97   53.01
  -3   1  -1 2035.59   53.16
  -3   1  -1 2065.26   54.11
  -3   1  -1 2057.23   50.93
  -3   1  -1 2028.15   52.02
  -3   1  -1 2087.09   52.66
  -3   1  -1 1974.39   52.24
   3  -1   1 1807.02   51.52
   3  -1   1 2064.04   54.53
  -4   1  -1   25.33    2.95
  -4   1  -1   22.74    2.71
  -4   1  -1   29.12    3.04
  -4   1  -1   24.10    2.48
  -4   1  -1   24.17    3.53
  -4   1  -1   22.50    2.53
  -4   1  -1   24.85    1.54
   4  -1   1   23.39    3.56
   4  -1   1   23.21    1.52
   4  -1   1   25.57    1.68
  -5   1  -1  230.33    8.65
  -5   1  -1  230.00    9.49
  -5   1  -1  248.01    9.61
  -5   1  -1  234.46   11.13
  -5   1  -1  225.45    8.94
  -5   1  -1  238.85    9.40
  -5   1  -1  225.39    7.44
   5  -1   1  226.72   11.55
  -6   1  -1    0.02    1.09
  -6   1  -1    0.37    0.73
  -6   1  -1   -0.57    1.55
  -6   1  -1    0.87    1.20
   6  -1   1   -0.42    1.16
  -7   1  -1  124.74    8.21
  -7   1  -1  123.03    7.37
  -7   1  -1  121.61    7.70
  -8   1  -1    0.00    1.38
  -8   1  -1   -1.44    1.49
  -8   1  -1    0.99    1.69
  -8   0   1  160.36    9.62
  -8   0   1  141.28   10.26
  -7   0   1  222.37   11.59
  -7   0   1  201.19   10.43
   6   0  -1   -0.53    1.44
  -6   0   1   -0.69    0.75
  -6   0   1   -1.83    0.94
  -6   0   1    1.02    1.29
   5   0  -1  380.01   16.36
   5   0  -1  376.11   10.18
  -5   0   1  397.27   16.04
  -5   0   1  374.18   12.88
  -5   0   1  369.57   13.93
  -5   0   1  383.62   13.65
  -5   0   1  381.14   11.40
  -5   0   1  340.36   12.92
   4   0  -1  761.98   20.45
   4   0  -1  787.22   25.43
   4   0  -1  755.94   20.77
  -4   0   1  736.95   22.17
  -4   0   1  793.25   25.05
  -4   0   1  806.48   23.18
  -4   0   1  741.62   22.60
  -4   0   1  729.84   21.83
  -4   0   1  792.64   20.55
   3   0  -1  112.96    6.27
  -3   0   1  112.13    4.91
  -3   0   1  108.73    4.68
  -3   0   1  112.50    3.55
  -3   0   1  108.34    6.10
  -3   0   1  115.01    3.89
  -3   0   1  109.55    5.12
  -3   0   1  125.77    5.47
   2   0  -1   94.30    4.79
   2   0  -1   89.46    3.62
   2   0  -1   95.06    3.80
   2   0  -1   95.31    3.54
   2   0  -1   88.02    3.70
  -2   0   1   98.91    4.25
  -2   0   1   98.18    4.19
  -2   0   1   95.27    4.76
  -2   0   1   95.91    3.95
  -2   0   1   93.17    3.77
  -2   0   1   93.95    2.98
   1   0  -1 9835.69  238.74
   1   0  -1 9279.87  240.81
  -1   0   1 9024.23  238.76
  -1   0   1 9506.81  240.04
   0   0  -1 2366.23   58.99
   0   0   1 1981.98   59.84
   0   0   1 2575.68   60.14
  -1   0  -1  740.09   18.04
  -1   0  -1  764.85   18.55
  -1   0  -1  686.75   18.65
  -1   0  -1  690.91   18.05
  -1   0  -1  700.05   18.04
   1   0   1  698.75   18.70
   1   0   1  683.81   17.89
   1   0   1  695.02   17.89
  -3   0  -1    0.60    0.52
  -3   0  -1    1.03    0.57
  -3   0  -1    0.59    0.43
  -3   0  -1    1.58    0.58
   3   0   1    0.18    0.88
  -4   0  -1  848.27   26.25
  -4   0  -1  840.90   23.04
  -4   0  -1  819.91   22.76
  -4   0  -1  871.50   23.54
  -4   0  -1  837.34   23.48
   4   0   1  830.94   26.57
  -5   0  -1   66.01    6.62
  -5   0  -1   61.90    2.28
  -5   0  -1   59.09    3.93
  -5   0  -1   67.63    4.08
  -5   0  -1   59.97    3.64
  -5   0  -1   64.41    3.58
   5   0   1   68.75    7.10
  -6   0  -1  313.65    9.44
  -6   0  -1  297.01   14.52
  -6   0  -1  323.46   11.99
  -6   0  -1  323.32   12.07
   6   0   1  287.86   14.92
  -7   0  -1    2.03    1.57
  -7   0  -1    2.45    1.59
  -7   0  -1    1.90    1.55
  -8   0  -1   38.16    5.46
  -8   0  -1   42.30    5.13
  -8   0  -1   42.57    5.25
  -8   1   1  144.35    9.32
  -8   1   1  136.25    9.13
  -7   1   1    3.46    2.01
  -7   1   1    0.85    1.54
   6  -1  -1    8.90    3.04
  -6   1   1   10.08    2.64
  -6   1   1   10.69    2.73
  -6   1   1   12.98    2.01
   5  -1  -1  513.46   14.74
   5  -1  -1  507.05   15.09
   5  -1  -1  516.89   20.12
  -5   1   1  507.61   16.65
  -5   1   1  481.21   16.86
  -5   1   1  525.17   19.51
  -5   1   1  524.30   18.02
  -5   1   1  519.53   15.26
  -5   1   1  545.92   17.85
   4  -1  -1  247.56   11.46
   4  -1  -1  246.77    8.16
  -4   1   1  259.80    9.84
  -4   1   1  246.43    9.35
  -4   1   1  253.15    8.08
  -4   1   1  232.72    8.92
  -4   1   1  261.76   10.11
  -4   1   1  243.36   10.93
   3  -1  -1 3096.28   77.33
   3  -1  -1 2967.32   76.63
   3  -1  -1 2996.04   76.92
   3  -1  -1 3132.78   79.95
  -3   1   1 2981.24   79.33
  -3   1   1 3108.01   78.31
  -3   1   1 3055.84   78.05
  -3   1   1 2985.66   77.52
  -3   1   1 2869.51   77.09
  -3   1   1 3075.96   76.25
   2  -1  -1  996.21   26.14
   2  -1  -1  977.13   27.20
   2  -1  -1  968.73   25.55
   2  -1  -1  966.20   25.79
  -2   1   1  979.13   26.37
  -2   1   1  968.82   26.49
  -2   1   1  945.64   25.74
  -2   1   1  927.52   26.83
  -2   1   1  964.30   26.00
  -2   1   1  974.81   25.08
   1  -1  -1  573.10   16.84
   1  -1  -1  642.17   17.03
   1  -1  -1  613.41   16.10
   1  -1  -1  624.56   17.06
   1  -1  -1  663.67   16.59
   1  -1  -1  611.70   16.66
  -1   1   1  635.92   16.18
  -1   1   1  622.86   16.59
  -1   1   1  611.65   16.73
  -1   1   1  578.00   16.86
   0  -1  -1  904.39   23.61
   0  -1  -1  902.69   24.92
   0  -1  -1  880.56   23.61
   0  -1  -1  914.97   24.46
   0  -1  -1  922.63   24.96
   0   1   1  937.57   23.84
   0   1   1  928.32   24.16
   0   1   1  906.72   23.56
   0   1   1  939.03   23.60
  -1  -1  -1   63.73    1.94
   1   1   1   62.50    1.99
  -2  -1  -1  351.48    9.98
  -2  -1  -1  372.00   11.85
   2   1   1  368.69   11.85
  -3  -1  -1  386.82   10.37
  -3  -1  -1  390.17   10.51
  -3  -1  -1  388.68   13.69
  -3  -1  -1  386.62   10.71
   3   1   1  390.54   13.77
  -4  -1  -1  840.37   22.65
  -4  -1  -1  878.58   22.98
  -4  -1  -1  850.48   26.76
  -4  -1  -1  864.18   23.26
  -4  -1  -1  849.66   22.85
   4   1   1  844.49   27.05
  -5  -1  -1  249.07    8.83
  -5  -1  -1  240.32    8.67
  -5  -1  -1  244.72   11.78
  -5  -1  -1  234.59    8.35
  -5  -1  -1  248.93    8.22
   5   1   1  239.82   12.02
  -6  -1  -1  348.07   12.27
  -6  -1  -1  320.79   15.42
  -6  -1  -1  336.69   12.35
   6   1   1  353.22   16.38
  -7  -1  -1   81.44    5.69
  -7  -1  -1   96.58    6.23
  -8  -1  -1   14.67    3.26
  -8  -1  -1   15.87    3.53
  -8   2   1   24.98    4.66
  -8   2   1   23.02    5.16
  -7   2   1   69.00    7.33
  -7   2   1   69.96    6.62
  -7   2   1   63.02    6.88
   6  -2  -1   96.74    8.23
  -6   2   1   87.21    6.69
  -6   2   1   84.83    4.78
  -6   2   1   93.12    6.60
  -6   2   1   87.44    6.37
   5  -2  -1   96.99    7.34
   5  -2  -1   93.40    4.51
  -5   2   1   82.26    5.15
  -5   2   1   82.59    5.76
  -5   2   1   89.32    4.52
  -5   2   1   85.43    5.83
  -5   2   1  102.58    6.47
  -5   2   1   93.77    6.86
   4  -2  -1 1152.98   31.35
   4  -2  -1 1135.45   34.70
   4  -2  -1 1182.27   31.09
  -4   2   1 1107.56   30.48
  -4   2   1 1143.00   33.10
  -4   2   1 1057.74   31.60
  -4   2   1 1126.32   34.01
  -4   2   1 1201.87   33.00
   3  -2  -1  129.90    5.59
   3  -2  -1  135.28    5.39
   3  -2  -1  133.09    6.89
   3  -2  -1  136.49    5.99
  -3   2   1  125.79    5.52
  -3   2   1  126.69    4.91
  -3   2   1  129.40    5.83
  -3   2   1  130.03    6.15
  -3   2   1  130.52    6.29
   2  -2  -1  844.66   23.45
   2  -2  -1  834.74   24.03
   2  -2  -1  803.72   22.08
   2  -2  -1  864.58   23.22
   2  -2  -1  868.65   24.50
   2  -2  -1  886.34   22.36
  -2   2   1  846.29   24.01
  -2   2   1  841.36   23.36
  -2   2   1  864.43   23.99
  -2   2   1  811.53   23.53
  -2   2   1  855.90   22.57
  -2   2   1  893.53   24.33
   1  -2  -1 5223.17  137.22
   1  -2  -1 5113.44  132.54
   1  -2  -1 5001.46  130.95
   1  -2  -1 5240.23  133.94
  -1   2   1 5261.43  136.07
  -1   2   1 5115.03  134.65
  -1   2   1 5101.00  133.01
  -1   2   1 4907.46  132.88
   0  -2  -1  416.39   11.81
   0  -2  -1  426.80   11.98
   0  -2  -1  401.21   11.49
   0  -2  -1  423.59   11.70
   0   2   1  410.20   11.64
   0   2   1  449.71   12.06
   0   2   1  421.00   12.02
   0   2   1  394.57   11.45
   0   2   1  404.73   11.77
  -1  -2  -1 1217.29   31.29
  -1  -2  -1 1193.96   31.36
  -1  -2  -1 1230.44   31.74
  -1  -2  -1 1222.08   31.14
  -1  -2  -1 1217.30   30.85
   1   2   1 1251.85   30.67
   1   2   1 1223.95   30.91
   1   2   1 1208.46   30.78
   1   2   1 1119.92   30.93
  -2  -2  -1  783.99   20.64
  -2  -2  -1  778.32   19.79
  -2  -2  -1  772.20   19.71
  -2  -2  -1  792.70   22.81
   2   2   1  778.59   20.82
  -3  -2  -1 1441.02   36.08
  -3  -2  -1 1422.26   36.03
  -3  -2  -1 1481.00   40.53
  -3  -2  -1 1439.90   36.23
  -3  -2  -1 1379.55   36.17
  -4  -2  -1   67.11    3.09
  -4  -2  -1   61.29    2.73
  -4  -2  -1   65.91    2.98
  -4  -2  -1   81.37    5.20
  -4  -2  -1   62.61    2.89
  -4  -2  -1   61.11    2.79
  -5  -2  -1  399.98   12.43
  -5  -2  -1  397.27   12.52
  -5  -2  -1  405.59   16.29
  -5  -2  -1  390.98   12.17
  -5  -2  -1  384.74   11.90
  -6  -2  -1   29.97    3.48
  -6  -2  -1   31.34    3.45
  -7  -2  -1  276.01   11.62
  -7  -2  -1  272.86   11.12
  -8  -2  -1   -0.66    1.36
  -8  -2  -1    0.11    1.24
  -8   3   1   -0.42    2.16
  -8   3   1    1.95    2.10
  -7   3   1  114.18    8.89
  -7   3   1  103.61    7.93
   6  -3  -1   -0.54    1.68
  -6   3   1    0.82    1.80
  -6   3   1   -0.58    1.15
  -6   3   1   -0.31    1.21
   5  -3  -1   70.10    7.46
   5  -3  -1   62.50    4.22
   5  -3  -1   67.57    4.12
  -5   3   1   70.90    5.62
  -5   3   1   59.47    5.04
  -5   3   1   65.78    5.70
  -5   3   1   54.08    3.76
   4  -3  -1  568.43   20.09
   4  -3  -1  550.41   17.36
   4  -3  -1  559.99   17.11
  -4   3   1  556.47   16.36
  -4   3   1  534.67   18.86
  -4   3   1  546.57   18.46
  -4   3   1  551.95   19.52
   3  -3  -1 1331.48   33.03
   3  -3  -1 1323.80   35.68
   3  -3  -1 1276.93   33.61
   3  -3  -1 1325.87   35.32
   3  -3  -1 1283.58   37.26
   3  -3  -1 1265.46   36.37
  -3   3   1 1305.46   37.47
  -3   3   1 1322.49   34.41
  -3   3   1 1208.78   36.26
  -3   3   1 1321.85   36.51
  -3   3   1 1282.95   36.83
   2  -3  -1  343.89   12.13
   2  -3  -1  357.96   11.28
   2  -3  -1  367.83   10.42
   2  -3  -1  340.48   11.49
   2  -3  -1  347.41   10.35
  -2   3   1  351.35   11.99
  -2   3   1  349.84   12.54
  -2   3   1  340.26   11.30
   1  -3  -1  156.17    6.65
   1  -3  -1  160.64    6.17
   1  -3  -1  169.81    6.07
   1  -3  -1  149.59    6.70
  -1   3   1  153.14    5.94
  -1   3   1  156.12    6.68
  -1   3   1  170.81    6.50
  -1   3   1  154.62    6.58
   0  -3  -1 5949.52  150.30
   0  -3  -1 5617.21  152.54
   0  -3  -1 5988.59  150.44
   0  -3  -1 5975.64  152.33
   0  -3  -1 4887.45  150.20
   0   3   1 6099.50  153.18
   0   3   1 5941.39  150.83
   0   3   1 6131.51  152.81
   0   3   1 5770.36  148.25
  -1  -3  -1 5531.69  149.00
  -1  -3  -1 5955.75  149.82
  -1  -3  -1 5552.74  149.72
  -1  -3  -1 6126.34  152.45
  -1  -3  -1 5697.90  148.24
   1   3   1 5736.51  147.32
   1   3   1 5924.78  149.79
   1   3   1 5781.81  148.66
   1   3   1 5603.19  149.33
   1   3   1 5690.13  148.79
  -2  -3  -1  357.61   10.19
  -2  -3  -1  369.06   10.64
  -2  -3  -1  360.84   10.34
  -2  -3  -1  369.74   10.84
  -2  -3  -1  368.28   10.53
   2   3   1  345.14   10.89
  -3  -3  -1  847.63   22.52
  -3  -3  -1  852.90   22.48
  -3  -3  -1  831.39   26.27
  -3  -3  -1  930.85   22.86
  -3  -3  -1  826.11   22.69
  -3  -3  -1  835.10   22.33
   3   3   1  823.89   23.59
  -4  -3  -1  396.10   11.47
  -4  -3  -1  367.55   15.16
  -4  -3  -1  373.50   11.41
  -4  -3  -1  386.33   11.53
  -4  -3  -1  374.54   11.19
  -5  -3  -1  947.66   25.83
  -5  -3  -1  952.07   26.26
  -5  -3  -1  954.74   31.09
  -5  -3  -1  915.15   25.97
  -5  -3  -1  907.79   25.81
  -6  -3  -1  151.12    7.10
  -6  -3  -1  145.09    6.77
  -7  -3  -1   43.90    4.89
  -7  -3  -1   44.36    4.63
  -8  -3  -1  127.68    7.51
  -8  -3  -1  135.74    8.37
  -8   4   1    3.46    2.47
  -8   4   1    1.66    3.02
  -7   4   1   -3.61    1.85
  -7   4   1    2.79    2.37
  -6   4   1  224.00    9.35
  -6   4   1  212.65   12.23
  -6   4   1  236.80   11.91
  -6   4   1  237.79   12.87
   5  -4  -1   52.75    4.07
   5  -4  -1   58.65    4.43
   5  -4  -1   54.90    6.79
  -5   4   1   61.77    5.83
  -5   4   1   43.77    5.20
  -5   4   1   52.84    6.08
   4  -4  -1  378.25   10.81
   4  -4  -1  374.85   13.48
   4  -4  -1  354.28   13.01
   4  -4  -1  355.41   15.24
  -4   4   1  383.46   14.48
  -4   4   1  378.54   14.96
  -4   4   1  392.21   15.56
   3  -4  -1   59.89    4.74
   3  -4  -1   65.55    3.30
   3  -4  -1   62.26    3.09
   3  -4  -1   70.51    4.26
   3  -4  -1   54.12    4.04
   3  -4  -1   62.67    4.72
  -3   4   1   65.41    4.69
  -3   4   1   63.27    4.81
  -3   4   1   76.12    5.37
   2  -4  -1  604.09   19.82
   2  -4  -1  616.50   18.24
   2  -4  -1  575.48   16.90
   2  -4  -1  606.91   19.43
   2  -4  -1  579.84   18.45
  -2   4   1  637.56   19.13
  -2   4   1  569.95   19.43
   1  -4  -1  396.03   13.70
   1  -4  -1  389.66   12.89
   1  -4  -1  394.42   13.84
   1  -4  -1  401.85   12.69
  -1   4   1  397.44   13.35
  -1   4   1  409.34   13.86
  -1   4   1  392.75   13.57
   0  -4  -1 3534.06   93.80
   0  -4  -1 3535.15   95.83
   0  -4  -1 3141.34   88.96
   0  -4  -1 3384.12   87.98
   0   4   1 3577.11   89.08
   0   4   1 3675.83   89.50
   0   4   1 3367.96   88.68
  -1  -4  -1 1823.85   46.82
  -1  -4  -1 1704.30   47.08
  -1  -4  -1 1863.79   47.81
  -1  -4  -1 1763.84   46.53
  -1  -4  -1 1798.51   47.44
   1   4   1 1786.39   46.56
   1   4   1 1777.95   46.95
   1   4   1 1755.08   46.81
   1   4   1 1833.27   47.35
  -2  -4  -1 2069.73   55.98
  -2  -4  -1 2178.08   55.33
  -2  -4  -1 2147.67   55.04
  -2  -4  -1 2168.01   55.77
  -2  -4  -1 2169.40   55.67
   2   4   1 2158.83   55.68
   2   4   1 2119.80   54.67
  -3  -4  -1   43.49    2.56
  -3  -4  -1   45.67    2.73
  -3  -4  -1   42.11    2.78
  -3  -4  -1   37.89    2.66
  -3  -4  -1   45.58    3.09
   3   4   1   46.32    3.16
  -4  -4  -1  656.64   19.63
  -4  -4  -1  658.72   19.25
  -4  -4  -1  664.68   19.01
  -4  -4  -1  650.46   23.25
  -4  -4  -1  689.26   18.86
   4   4   1  661.08   20.16
  -5  -4  -1   31.12    5.17
  -5  -4  -1   39.31    3.24
  -5  -4  -1   39.91    2.95
  -5  -4  -1   41.83    3.14
  -5  -4  -1   39.55    3.05
  -6  -4  -1  811.88   23.95
  -6  -4  -1  788.14   23.59
  -6  -4  -1  801.01   24.59
  -7  -4  -1   82.88    5.51
  -7  -4  -1   80.75    5.88
  -8  -4  -1   40.65    5.04
  -8  -4  -1   43.45    5.62
  -7   5   1  184.99   11.60
  -7   5   1  178.38   12.26
  -6   5   1  109.03    8.20
  -6   5   1  116.01    9.08
   5  -5  -1 1668.55   51.50
   5  -5  -1 1625.73   49.13
   5  -5  -1 1763.58   47.58
  -5   5   1 1678.89   50.57
  -5   5   1 1739.42   51.34
  -5   5   1 1695.48   49.72
   4  -5  -1   20.47    3.22
   4  -5  -1   14.65    1.87
   4  -5  -1   17.86    1.39
   4  -5  -1   18.82    3.62
   4  -5  -1   17.96    3.21
  -4   5   1   16.73    3.63
  -4   5   1   21.26    4.07
  -4   5   1   16.26    3.13
   3  -5  -1 1235.07   35.36
   3  -5  -1 1250.08   33.49
   3  -5  -1 1266.01   37.25
   3  -5  -1 1234.54   35.76
   3  -5  -1 1229.69   33.45
  -3   5   1 1268.23   37.68
  -3   5   1 1212.38   36.46
   2  -5  -1  112.05    6.11
   2  -5  -1  117.69    6.92
   2  -5  -1  105.08    5.75
   2  -5  -1  116.73    5.08
   2  -5  -1  121.38    5.27
  -2   5   1  108.36    6.81
  -2   5   1  118.95    6.88
  -2   5   1  110.93    6.46
   1  -5  -1  164.24    8.06
   1  -5  -1  151.72    7.74
   1  -5  -1  165.05    7.03
   1  -5  -1  144.18    6.96
  -1   5   1  157.54    7.72
  -1   5   1  145.37    7.64
  -1   5   1  168.53    7.69
   0  -5  -1   13.46    2.55
   0  -5  -1    7.98    1.77
   0  -5  -1   11.23    1.94
   0  -5  -1    9.24    2.18
   0   5   1   10.52    2.06
   0   5   1    8.98    1.96
   0   5   1   10.90    2.26
  -1  -5  -1 1011.57   29.01
  -1  -5  -1 1009.00   29.09
  -1  -5  -1 1012.63   27.81
  -1  -5  -1  989.23   28.03
   1   5   1  966.07   28.17
   1   5   1 1007.41   28.76
   1   5   1  979.88   27.70
  -2  -5  -1  136.77    6.60
  -2  -5  -1  135.68    6.49
  -2  -5  -1  134.46    5.77
  -2  -5  -1  134.82    6.21
  -2  -5  -1  140.01    6.07
   2   5   1  136.23    6.10
  -3  -5  -1   30.84    2.63
  -3  -5  -1   31.50    2.99
  -3  -5  -1   36.65    2.69
  -3  -5  -1   34.22    2.92
  -3  -5  -1   32.49    2.80
   3   5   1   34.53    3.49
  -4  -5  -1  143.96    6.39
  -4  -5  -1  153.80    7.21
  -4  -5  -1  139.71    6.11
  -4  -5  -1  135.40    6.44
  -4  -5  -1  161.90    9.46
   4   5   1  149.62    7.11
  -5  -5  -1    0.49    0.93
  -5  -5  -1    1.06    0.95
  -5  -5  -1    0.87    1.03
   5   5   1   -0.28    0.99
  -6  -5  -1   56.71    4.40
  -6  -5  -1   70.54    5.25
  -6  -5  -1   69.88    4.56
  -7  -5  -1   56.87    4.78
  -7  -5  -1   55.11    5.13
  -8  -5  -1   19.35    3.60
  -8  -5  -1   24.10    4.40
  -7   6   1    0.51    2.12
  -6   6   1    1.72    2.08
  -6   6   1    0.68    1.98
   5  -6  -1  150.70   17.56
   5  -6  -1  175.30    9.07
  -5   6   1  174.77   11.05
  -5   6   1  176.69   10.37
   4  -6  -1  618.72   20.92
   4  -6  -1  603.32   20.28
   4  -6  -1  617.13   22.57
   4  -6  -1  582.09   17.17
   4  -6  -1  593.10   17.76
  -4   6   1  596.85   21.78
  -4   6   1  537.58   21.84
  -4   6   1  615.64   23.00
   3  -6  -1   14.90    2.87
   3  -6  -1   16.56    2.28
   3  -6  -1   11.03    1.94
   3  -6  -1   16.80    3.14
   3  -6  -1   17.19    3.10
  -3   6   1   13.38    3.07
  -3   6   1   13.78    3.28
  -3   6   1   11.16    2.59
   2  -6  -1    1.17    1.25
   2  -6  -1    2.48    1.60
   2  -6  -1    3.64    1.14
   2  -6  -1    3.78    1.41
   2  -6  -1    3.52    1.56
  -2   6   1    3.78    1.77
  -2   6   1    3.63    1.62
  -2   6   1    2.65    1.57
   1  -6  -1  304.81   11.76
   1  -6  -1  297.33   12.75
   1  -6  -1  276.37   12.42
   1  -6  -1  288.45   11.30
  -1   6   1  318.59   12.68
  -1   6   1  305.48   12.80
  -1   6   1  288.36   12.04
   0  -6  -1  394.50   13.80
   0  -6  -1  370.75   13.25
   0  -6  -1  371.23   14.57
   0   6   1  388.73   14.02
   0   6   1  378.46   14.48
  -1  -6  -1  124.12    7.00
  -1  -6  -1  127.70    6.25
  -1  -6  -1  130.24    6.52
  -1  -6  -1  142.53    7.37
   1   6   1  123.26    6.48
   1   6   1  122.82    6.02
   1   6   1  135.31    7.01
  -2  -6  -1  307.82   11.26
  -2  -6  -1  298.02   11.88
  -2  -6  -1  314.49   10.92
  -2  -6  -1  290.37   11.75
   2   6   1  283.06   10.65
   2   6   1  294.08   11.00
  -3  -6  -1   69.21    4.84
  -3  -6  -1   66.29    4.19
  -3  -6  -1   72.64    4.55
  -3  -6  -1   66.35    4.83
  -3  -6  -1   60.82    4.34
   3   6   1   64.18    3.36
   3   6   1   63.68    4.50
  -4  -6  -1  227.61    9.12
  -4  -6  -1  252.25   10.52
  -4  -6  -1  237.17    9.49
  -4  -6  -1  219.76    9.58
   4   6   1  221.63    9.91
  -5  -6  -1  299.81   11.76
  -5  -6  -1  322.43   11.74
  -5  -6  -1  316.46   12.95
   5   6   1  302.95   12.62
  -6  -6  -1   14.29    2.66
  -6  -6  -1   11.31    2.94
  -6  -6  -1   17.13    3.21
  -7  -6  -1    6.37    2.40
  -7  -6  -1    3.60    2.29
  -7  -6  -1    5.04    2.11
  -8  -6  -1    5.22    2.29
  -8  -6  -1    4.04    2.37
  -7   7   1   70.00    9.09
  -6   7   1  149.27   10.74
   5  -7  -1   -0.54    1.29
  -5   7   1   -1.15    1.61
   4  -7  -1   70.89    4.33
   4  -7  -1   73.82    4.22
   4  -7  -1   69.21    6.00
   4  -7  -1   67.80    7.65
   4  -7  -1   80.84    6.02
  -4   7   1   78.82    8.62
  -4   7   1   59.43    6.94
   3  -7  -1   42.44    5.13
   3  -7  -1   33.56    3.51
   3  -7  -1   29.58    3.19
   3  -7  -1   38.28    4.83
   3  -7  -1   32.47    6.39
  -3   7   1   24.49    4.34
  -3   7   1   34.94    6.35
  -3   7   1   35.55    4.97
   2  -7  -1   -0.56    1.34
   2  -7  -1   -0.68    0.80
   2  -7  -1    0.14    0.99
   2  -7  -1    0.36    0.69
  -2   7   1    1.78    1.67
  -2   7   1   -0.42    1.02
  -2   7   1    0.83    1.27
   1  -7  -1   98.23    6.15
   1  -7  -1  112.78    6.77
   1  -7  -1   91.32    6.93
   1  -7  -1   98.99    7.10
  -1   7   1  112.90    7.07
  -1   7   1   98.85    7.13
  -1   7   1  105.42    7.08
   0  -7  -1  461.84   17.72
   0  -7  -1  462.97   16.12
   0  -7  -1  458.02   16.53
   0   7   1  458.74   16.79
   0   7   1  459.02   17.54
  -1  -7  -1   13.76    2.99
  -1  -7  -1    8.47    2.50
  -1  -7  -1   12.97    2.75
  -1  -7  -1   14.11    2.65
   1   7   1   12.73    2.66
   1   7   1   14.09    2.52
  -2  -7  -1  181.98    8.74
  -2  -7  -1  182.29    9.49
  -2  -7  -1  196.21    9.67
  -2  -7  -1  203.19    8.76
   2   7   1  189.01    8.64
   2   7   1  185.23    8.48
  -3  -7  -1  295.21   11.61
  -3  -7  -1  294.78   11.28
  -3  -7  -1  271.08   12.13
  -3  -7  -1  272.75   12.28
   3   7   1  288.97   11.72
  -4  -7  -1  114.29    6.62
  -4  -7  -1  121.27    7.49
  -4  -7  -1  110.46    6.35
   4   7   1  121.68    7.15
  -5  -7  -1  317.73   12.83
  -5  -7  -1  323.23   13.91
  -5  -7  -1  315.49   12.49
   5   7   1  328.70   13.71
  -6  -7  -1   23.78    3.67
  -6  -7  -1   25.40    3.98
  -6  -7  -1   24.96    4.33
   6   7   1   25.14    4.20
  -7  -7  -1   66.91    5.59
  -7  -7  -1   70.64    6.50
  -7  -7  -1   66.84    6.81
  -6   8   1  215.02   13.80
  -5   8   1   46.20    7.05
   4  -8  -1    9.93    2.80
   4  -8  -1   16.73    2.61
   4  -8  -1   10.98    3.32
   4  -8  -1   11.04    2.12
  -4   8   1   16.36    4.16
   3  -8  -1  516.41   19.78
   3  -8  -1  520.93   19.14
   3  -8  -1  468.13   16.73
   3  -8  -1  506.58   16.58
  -3   8   1  507.12   20.39
   2  -8  -1  570.58   18.79
   2  -8  -1  587.93   21.19
   2  -8  -1  581.59   22.84
   2  -8  -1  594.09   20.62
  -2   8   1  528.22   23.54
  -2   8   1  543.41   21.40
   1  -8  -1    4.07    2.03
   1  -8  -1    1.64    1.32
   1  -8  -1    0.84    1.21
   1  -8  -1    2.56    1.76
  -1   8   1    6.83    3.04
  -1   8   1    2.23    1.85
   0  -8  -1  991.85   30.92
   0  -8  -1 1004.01   30.25
   0  -8  -1  964.77   32.16
   0   8   1  955.11   31.86
   0   8   1  959.85   29.34
   0   8   1  970.20   30.93
  -1  -8  -1 1417.11   44.20
  -1  -8  -1 1458.50   43.05
  -1  -8  -1 1479.88   42.49
  -1  -8  -1 1473.96   44.57
   1   8   1 1530.95   43.24
   1   8   1 1493.16   42.03
  -2  -8  -1    4.36    2.13
  -2  -8  -1    2.70    1.69
  -2  -8  -1    1.67    1.44
  -2  -8  -1    5.48    1.84
   2   8   1    6.53    2.10
   2   8   1    1.59    1.37
  -3  -8  -1    3.67    2.02
  -3  -8  -1    7.58    2.07
  -3  -8  -1    4.59    2.00
   3   8   1    3.47    1.70
  -4  -8  -1  405.80   15.42
  -4  -8  -1  367.32   16.04
  -4  -8  -1  378.02   14.72
   4   8   1  392.65   15.61
  -5  -8  -1   20.10    3.47
  -5  -8  -1   20.15    4.10
  -5  -8  -1   18.57    3.53
   5   8   1   13.74    3.37
  -6  -8  -1  248.69   11.91
  -6  -8  -1  245.55   12.79
  -6  -8  -1  231.44   11.24
   6   8   1  238.06   12.22
  -7  -8  -1  181.69   11.09
  -7  -8  -1  179.17    9.82
  -7  -8  -1  166.64    9.97
  -5   9   1  195.76   13.19
   4  -9  -1   45.93    6.19
   4  -9  -1   47.00    6.65
   4  -9  -1   48.10    4.07
  -4   9   1   42.18    6.67
   3  -9  -1  960.75   32.58
   3  -9  -1  954.64   31.71
   3  -9  -1  932.48   28.58
  -3   9   1  980.39   33.72
   2  -9  -1  366.82   16.40
   2  -9  -1  371.99   15.86
  -2   9   1  363.66   16.79
   1  -9  -1  910.59   30.08
   1  -9  -1  912.64   30.82
  -1   9   1  952.30   31.43
   0  -9  -1  810.69   26.98
   0  -9  -1  736.24   27.94
   0  -9  -1  779.66   26.00
   0   9   1  754.21   25.06
   0   9   1  786.36   26.91
  -1  -9  -1  454.20   18.03
  -1  -9  -1  469.52   17.70
  -1  -9  -1  455.19   19.51
   1   9   1  462.96   17.22
   1   9   1  455.23   17.79
  -2  -9  -1  102.93    7.39
  -2  -9  -1  102.77    7.86
  -2  -9  -1  105.00    8.04
  -2  -9  -1  109.37    7.28
   2   9   1  107.78    7.06
  -3  -9  -1   16.66    3.33
  -3  -9  -1   10.20    2.73
  -3  -9  -1    8.74    2.90
   3   9   1   12.41    2.90
  -4  -9  -1  154.36    9.86
  -4  -9  -1  155.66    8.88
  -4  -9  -1  128.35    8.62
   4   9   1  154.05    9.18
  -5  -9  -1   39.80    5.48
  -5  -9  -1   34.56    5.86
  -5  -9  -1   40.47    5.34
   5   9   1   36.55    5.46
  -6  -9  -1   27.00    4.98
  -6  -9  -1   17.77    4.01
   6   9   1   28.46    5.09
   5 -10  -1   55.95    3.57
  -5  10   1   46.72    8.01
   4 -10  -1  354.68   17.09
  -4  10   1  393.58   19.46
   3 -10  -1   21.41    3.43
   3 -10  -1   23.89    5.17
   3 -10  -1   23.06    4.71
  -3  10   1   22.46    5.14
   2 -10  -1   97.11    7.80
   2 -10  -1  102.74    8.35
  -2  10   1   83.37    8.97
   1 -10  -1   39.81    5.96
   1 -10  -1   41.72    5.85
  -1  10   1   42.38    6.13
  -1  10   1   41.02    5.30
   0 -10  -1  151.47    9.30
   0 -10  -1  130.85    9.20
   0  10   1  131.29    9.20
   0  10   1  145.85    8.64
  -1 -10  -1   31.78    4.93
  -1 -10  -1   35.13    5.59
   1  10   1   35.26    4.89
  -2 -10  -1  440.18   18.47
  -2 -10  -1  423.01   17.73
   2  10   1  473.28   18.24
  -3 -10  -1  100.15    8.03
  -3 -10  -1  117.29    8.08
   3  10   1  105.39    7.85
  -4 -10  -1  260.34   12.69
  -4 -10  -1  261.34   13.31
   4  10   1  230.86   12.59
  -5 -10  -1  332.16   15.95
  -5 -10  -1  368.57   16.01
   5  10   1  339.87   16.25
  -4  11   1    0.67    3.06
   3 -11  -1    8.95    3.42
   3 -11  -1   12.02    3.37
   3 -11  -1   17.44    4.36
  -3  11   1   16.43    4.67
   2 -11  -1  128.87    9.62
   2 -11  -1  146.63   10.61
  -2  11   1  139.54   10.69
  -2  11   1  121.60    8.59
   1 -11  -1   86.77    8.99
   1 -11  -1   85.81    9.49
  -1  11   1   84.36    9.28
  -1  11   1   71.71    7.49
   0 -11  -1  225.20   12.67
   0 -11  -1  237.19   13.46
   0  11   1  245.22   12.38
  -1 -11  -1   66.61    7.76
  -1 -11  -1   61.49    7.70
   1  11   1   58.83    7.06
  -2 -11  -1  107.84    8.63
  -2 -11  -1  104.98    8.19
   2  11   1  105.79    8.09
  -3 -11  -1    2.16    2.17
  -3 -11  -1   -4.29    1.72
   3  11   1    4.30    2.55
  -4 -11  -1  123.51    9.04
  -4 -11  -1  124.10    9.35
   4  11   1  112.61   10.39
   2 -12  -1  189.19   13.05
   2 -12  -1  211.58   13.12
  -2  12   1  194.08   11.77
   1 -12  -1   87.02    9.43
   1 -12  -1  116.19    9.85
  -1  12   1   99.11    9.30
   0 -12  -1    8.15    3.51
   0 -12  -1    7.08    3.07
   0  12   1    8.77    3.35
  -1 -12  -1    0.16    2.09
  -1 -12  -1    0.27    1.87
   1  12   1    1.05    1.88
  -2 -12  -1  105.08   10.87
  -2 -12  -1  127.39    9.71
   2  12   1  138.63    9.82
  -3 -12  -1   84.47    9.27
  -3 -12  -1   79.10    9.44
   3  12   1   71.99    8.53
   2  11  -2    2.66    2.31
  -2 -11   2    6.47    3.43
  -2 -11   2    8.09    3.87
   1  11  -2   41.67    6.54
  -1 -11   2   47.93    7.70
  -1 -11   2   33.01    6.15
   0  11  -2  109.74   10.50
   0 -11   2   85.60    9.65
   0 -11   2  117.85   10.05
  -1  11  -2    1.93    2.21
   1 -11   2    8.43    3.53
   1 -11   2    7.02    3.41
  -2  11  -2   84.20    9.14
  -2  11  -2   98.99   11.23
   2 -11   2   99.62   10.42
   2 -11   2   81.84   10.09
   4  10  -2   -1.26    1.78
  -4 -10   2   -2.18    1.81
  -4 -10   2    1.16    2.38
   3  10  -2   31.87    5.89
  -3 -10   2   33.89    5.94
  -3 -10   2   25.69    5.37
   2  10  -2    7.76    3.18
  -2 -10   2   13.19    3.85
  -2 -10   2   12.32    3.87
   1  10  -2    1.04    1.83
  -1 -10   2    1.51    2.32
  -1 -10   2    1.12    2.02
   0  10  -2   49.62   10.70
   0  10  -2   55.21    6.91
   0 -10   2   64.85    7.89
   0 -10   2   57.65    7.56
  -1  10  -2  550.32   21.82
  -1  10  -2  562.30   23.96
   1 -10   2  591.81   24.07
   1 -10   2  554.79   22.93
  -2  10  -2  122.25    8.53
  -2  10  -2  116.49   11.95
   2 -10   2  102.37   10.35
   2 -10   2  127.11    9.98
  -3  10  -2  101.86    9.16
  -3  10  -2   81.66    9.69
   3 -10   2   94.15   10.18
   3 -10   2   81.93    9.29
  -4  10  -2  112.74   11.87
  -4  10  -2  110.93    8.50
   4 -10   2  117.52    6.71
   5   9  -2   59.06    7.80
  -5  -9   2   50.46    7.28
  -5  -9   2   50.19    7.10
   4   9  -2    5.07    2.71
  -4  -9   2    0.74    2.05
  -4  -9   2    5.00    2.83
   3   9  -2    0.72    1.80
  -3  -9   2    7.01    2.79
  -3  -9   2    4.93    2.60
   2   9  -2   69.95    7.66
  -2  -9   2   95.02    9.26
  -2  -9   2   71.49    8.14
   1   9  -2   91.26    8.53
  -1  -9   2   98.94    7.83
  -1  -9   2   96.08    7.96
   0   9  -2    3.41    1.96
   0   9  -2    0.66    1.65
   0  -9   2    0.14    1.98
   0  -9   2    1.42    1.80
  -1   9  -2   -0.16    1.22
  -1   9  -2   -0.16    1.87
   1  -9   2   -1.21    1.68
   1  -9   2   -1.92    1.34
  -2   9  -2   49.14    5.97
  -2   9  -2   51.38    7.26
   2  -9   2   56.67    7.01
   2  -9   2   54.09    7.26
  -3   9  -2   -1.81    0.99
  -3   9  -2   -0.42    1.82
   3  -9   2    0.85    1.83
   3  -9   2   -0.62    1.34
  -4   9  -2 1077.25   33.44
  -4   9  -2 1066.90   37.45
   4  -9   2  967.10   29.76
  -5   9  -2  373.60   19.74
  -5   9  -2  405.45   16.92
   6   8  -2   16.20    4.46
  -6  -8   2   22.63    4.74
  -6  -8   2   18.59    4.63
   5   8  -2   62.99    7.74
  -5  -8   2   46.09    7.11
  -5  -8   2   48.54    6.55
   4   8  -2    1.13    1.75
  -4  -8   2   -1.46    1.35
  -4  -8   2    0.02    1.88
   3   8  -2  274.69   13.50
  -3  -8   2  274.28   13.53
  -3  -8   2  295.79   14.20
   2   8  -2  307.00   14.13
  -2  -8   2  314.75   14.76
  -2  -8   2  333.85   14.63
   1   8  -2  400.86   17.18
   1   8  -2  388.29   16.10
  -1  -8   2  399.63   17.06
  -1  -8   2  407.39   16.69
   0   8  -2  717.49   24.38
   0   8  -2  751.51   26.35
   0  -8   2  671.30   25.33
   0  -8   2  748.14   25.41
  -1   8  -2   14.86    3.94
  -1   8  -2   21.79    3.68
   1  -8   2   22.59    4.26
   1  -8   2   23.35    4.23
  -2   8  -2  125.03    7.54
  -2   8  -2  117.64    8.79
   2  -8   2  112.18    8.19
   2  -8   2   96.15    7.52
   2  -8   2  113.55    6.84
  -3   8  -2  137.94   10.05
  -3   8  -2  147.61    8.43
   3  -8   2  153.88    7.80
   3  -8   2  146.47    9.29
   3  -8   2  142.13    9.55
  -4   8  -2    4.11    2.15
  -4   8  -2    4.49    2.64
   4  -8   2    3.76    2.16
   4  -8   2    4.44    1.39
  -5   8  -2   51.58    7.36
  -6   8  -2  223.47   14.41
  -6  -7   2  334.84   15.69
  -6  -7   2  337.74   16.08
   5   7  -2    2.41    2.23
  -5  -7   2    6.17    2.12
  -5  -7   2    1.22    2.31
   4   7  -2   49.40    6.33
  -4  -7   2   55.09    6.80
  -4  -7   2   61.77    6.56
  -4  -7   2   47.13    6.85
   3   7  -2   45.91    5.86
  -3  -7   2   39.70    5.00
  -3  -7   2   41.02    5.48
  -3  -7   2   41.84    5.81
   2   7  -2   16.64    3.38
   2   7  -2   20.62    3.75
  -2  -7   2   23.36    3.92
  -2  -7   2   18.71    3.89
  -2  -7   2   20.32    3.86
   1   7  -2   28.79    4.26
   1   7  -2   28.12    4.73
   1   7  -2   26.00    4.32
  -1  -7   2   23.96    4.20
  -1  -7   2   18.33    3.36
  -1  -7   2   25.80    3.49
  -1  -7   2   17.71    3.53
   0   7  -2  534.82   18.42
   0   7  -2  530.79   19.76
   0   7  -2  505.59   20.52
   0  -7   2  520.29   19.49
   0  -7   2  497.89   17.37
   0  -7   2  491.74   20.13
   0  -7   2  528.00   19.00
  -1   7  -2  585.75   19.88
  -1   7  -2  583.09   22.96
  -1   7  -2  571.19   22.04
  -1   7  -2  577.85   21.82
   1  -7   2  583.59   22.43
   1  -7   2  584.09   19.32
   1  -7   2  595.47   21.44
   1  -7   2  617.96   21.23
  -2   7  -2   40.81    4.47
  -2   7  -2   39.60    5.95
  -2   7  -2   43.49    5.83
   2  -7   2   42.65    3.81
   2  -7   2   48.66    6.10
   2  -7   2   49.58    5.95
  -3   7  -2    3.76    2.28
  -3   7  -2    2.59    1.59
  -3   7  -2   -3.34    1.50
   3  -7   2    3.26    1.88
   3  -7   2    3.48    1.43
   3  -7   2    4.79    2.20
  -4   7  -2  160.82   10.51
  -4   7  -2  188.58   20.85
   4  -7   2  157.33    6.33
   4  -7   2  167.37    9.87
   4  -7   2  156.98    9.26
  -5   7  -2   14.76    4.18
  -6   7  -2    3.04    2.53
  -7  -6   2    3.50    2.21
  -6  -6   2    2.53    2.32
  -6  -6   2   -0.41    2.07
   5   6  -2  368.84   15.89
  -5  -6   2  346.27   14.84
  -5  -6   2  348.76   16.53
  -5  -6   2  342.22   15.31
   4   6  -2   84.99    7.77
  -4  -6   2   61.98    7.19
  -4  -6   2   50.13    5.64
  -4  -6   2   70.19    5.89
   3   6  -2   14.78    3.21
   3   6  -2   14.15    2.79
  -3  -6   2   12.52    3.34
  -3  -6   2   12.42    2.72
  -3  -6   2    9.05    2.70
   2   6  -2  267.82   12.04
   2   6  -2  317.76   12.70
  -2  -6   2  297.16   11.27
  -2  -6   2  297.51   12.41
  -2  -6   2  321.62   13.05
  -2  -6   2  280.49   13.46
   1   6  -2  204.99   10.14
   1   6  -2  214.04   11.05
   1   6  -2  196.93    9.35
  -1  -6   2  196.57    8.54
  -1  -6   2  205.45    9.99
  -1  -6   2  223.95   11.08
  -1  -6   2  208.15    9.72
   0   6  -2    2.21    1.23
   0   6  -2    4.72    1.74
   0   6  -2    3.03    1.85
   0  -6   2    0.63    1.20
   0  -6   2    2.40    1.49
   0  -6   2    4.68    1.42
   0  -6   2   -0.01    0.75
  -1   6  -2  354.04   15.55
  -1   6  -2  394.22   15.72
  -1   6  -2  381.73   13.90
  -1   6  -2  396.90   16.62
   1  -6   2  403.32   16.29
   1  -6   2  394.10   14.94
   1  -6   2  401.58   15.44
   1  -6   2  393.49   13.65
  -2   6  -2  213.78   10.68
  -2   6  -2  190.39    8.61
  -2   6  -2  198.16   10.63
  -2   6  -2  190.89   10.90
   2  -6   2  197.74    8.40
   2  -6   2  179.33    9.62
   2  -6   2  206.43    9.78
  -3   6  -2  173.67    9.72
  -3   6  -2  152.52    9.86
  -3   6  -2  114.96    8.51
   3  -6   2  169.42    7.05
   3  -6   2  166.24    8.68
   3  -6   2  153.15    8.76
  -4   6  -2  216.36   11.59
  -4   6  -2  193.43   11.68
   4  -6   2  199.61    7.36
   4  -6   2  198.39    9.95
   4  -6   2  199.76   10.31
   4  -6   2  203.02   10.97
  -5   6  -2    2.09    1.96
  -5   6  -2    2.30    2.13
   5  -6   2    2.94    2.18
  -6   6  -2    0.01    1.67
  -6   6  -2    0.78    2.15
  -7   6  -2   44.72    6.88
  -7  -5   2   47.09    6.36
  -6  -5   2  176.86   10.08
  -6  -5   2  159.77   10.63
  -6  -5   2  171.42    9.70
   5   5  -2   31.54    4.81
  -5  -5   2   33.40    5.56
  -5  -5   2   30.84    4.60
  -5  -5   2   19.48    3.70
   4   5  -2  841.78   26.65
  -4  -5   2  799.13   26.15
  -4  -5   2  811.64   25.74
  -4  -5   2  784.10   27.46
  -4  -5   2  797.49   28.56
   3   5  -2  436.80   15.87
   3   5  -2  412.49   14.61
  -3  -5   2  411.06   15.57
  -3  -5   2  421.69   16.76
  -3  -5   2  415.66   15.27
   2   5  -2  769.08   23.63
   2   5  -2  736.46   23.40
  -2  -5   2  749.53   23.44
  -2  -5   2  748.01   21.91
  -2  -5   2  708.54   23.52
  -2  -5   2  755.27   25.08
   1   5  -2  143.89    7.61
   1   5  -2  128.42    7.84
   1   5  -2  131.71    6.89
  -1  -5   2  133.08    6.22
  -1  -5   2  135.39    7.27
  -1  -5   2  142.52    7.17
  -1  -5   2  157.22    8.41
   0   5  -2   25.81    3.15
   0   5  -2   33.91    4.24
   0   5  -2   34.08    4.67
   0   5  -2   34.59    4.85
   0  -5   2   25.94    3.74
   0  -5   2   32.44    3.78
   0  -5   2   36.22    2.94
   0  -5   2   33.93    4.24
  -1   5  -2  456.88   17.12
  -1   5  -2  466.46   16.75
  -1   5  -2  450.39   17.36
  -1   5  -2  444.02   14.95
   1  -5   2  451.67   17.03
   1  -5   2  485.62   16.14
   1  -5   2  429.17   16.03
   1  -5   2  456.50   14.75
  -2   5  -2   44.72    4.13
  -2   5  -2   47.53    5.61
  -2   5  -2   45.23    4.96
  -2   5  -2   48.90    4.70
   2  -5   2   47.98    5.09
   2  -5   2   45.89    3.31
   2  -5   2   40.44    4.35
   2  -5   2   43.19    5.29
  -3   5  -2    0.39    1.06
  -3   5  -2    0.24    1.11
  -3   5  -2   -2.05    0.77
   3  -5   2    0.79    0.75
   3  -5   2    0.73    1.11
   3  -5   2    0.32    0.60
   3  -5   2   -0.64    0.99
  -4   5  -2    1.04    1.43
  -4   5  -2   -0.85    1.26
  -4   5  -2    0.06    1.26
   4  -5   2   -0.26    1.05
   4  -5   2    0.21    0.49
   4  -5   2   -0.54    0.84
   4  -5   2    0.32    1.05
  -5   5  -2 1073.61   34.65
  -5   5  -2 1150.74   41.52
  -5   5  -2 1046.09   35.45
   5  -5   2 1059.25   35.46
  -6   5  -2   57.00    6.73
  -6   5  -2   61.62    7.32
  -7   5  -2  299.70   16.21
  -7   5  -2  296.15   15.30
  -7  -4   2  370.90   18.03
  -7  -4   2  423.53   17.41
  -6  -4   2    2.72    1.68
  -6  -4   2    0.86    1.71
  -5  -4   2  240.97   12.01
  -5  -4   2  242.45   11.18
  -5  -4   2  218.57   10.48
   4   4  -2  158.71    6.64
   4   4  -2  159.22    8.39
  -4  -4   2  162.40    9.85
  -4  -4   2  152.69    8.14
  -4  -4   2  149.11    7.80
  -4  -4   2  162.00    9.14
   3   4  -2   95.87    5.18
   3   4  -2   94.30    5.82
  -3  -4   2   91.25    6.58
  -3  -4   2   82.74    5.49
  -3  -4   2   86.27    5.42
  -3  -4   2   93.91    6.41
   2   4  -2  676.40   21.54
   2   4  -2  698.99   22.27
   2   4  -2  686.45   21.50
  -2  -4   2  672.72   22.74
  -2  -4   2  718.53   21.93
  -2  -4   2  711.37   21.57
  -2  -4   2  707.41   20.11
   1   4  -2 6480.23  159.87
   1   4  -2 6052.22  160.47
   1   4  -2 6197.57  162.86
   1   4  -2 6337.62  159.53
  -1  -4   2 6055.97  165.26
  -1  -4   2 6576.58  159.21
  -1  -4   2 6235.31  159.24
  -1  -4   2 6174.74  160.44
   0   4  -2 2411.45   62.30
   0   4  -2 2265.85   63.77
   0   4  -2 2273.28   64.29
   0   4  -2 2429.51   63.57
   0  -4   2 2518.95   63.46
   0  -4   2 2286.59   62.65
   0  -4   2 2395.30   61.74
   0  -4   2 2412.43   64.39
  -1   4  -2  148.47    7.66
  -1   4  -2  144.34    7.31
  -1   4  -2  142.33    7.69
  -1   4  -2  140.22    6.20
   1  -4   2  151.90    7.16
   1  -4   2  149.22    7.62
   1  -4   2  144.90    6.86
   1  -4   2  139.37    6.01
  -2   4  -2   54.12    4.66
  -2   4  -2   45.58    4.89
   2  -4   2   53.12    4.37
   2  -4   2   49.26    3.77
   2  -4   2   43.56    3.71
   2  -4   2   47.12    3.07
  -3   4  -2  758.20   25.43
  -3   4  -2  798.29   25.13
  -3   4  -2  791.69   25.71
   3  -4   2  791.58   21.18
   3  -4   2  784.15   23.90
   3  -4   2  825.77   24.48
   3  -4   2  772.42   21.41
  -4   4  -2  497.64   17.89
  -4   4  -2  493.42   18.41
  -4   4  -2  503.81   18.62
   4  -4   2  482.30   16.37
   4  -4   2  471.76   16.70
   4  -4   2  498.02   18.32
  -5   4  -2    0.38    1.45
  -5   4  -2    2.54    1.81
  -5   4  -2    2.44    1.81
   5  -4   2    0.24    0.98
   5  -4   2    0.34    1.42
  -6   4  -2  227.42   11.90
  -6   4  -2  222.95   12.13
  -6   4  -2  269.18   13.27
   6  -4   2  226.52   13.17
  -7   4  -2    0.74    2.01
  -7   4  -2    1.47    2.06
  -8   4  -2   28.78    5.45
  -8   4  -2   43.82    6.53
  -8  -3   2  447.39   19.09
  -7  -3   2 1121.54   35.07
  -7  -3   2 1061.22   36.36
  -6  -3   2  229.71   12.16
  -6  -3   2  251.75   11.71
  -5  -3   2  932.17   32.61
  -5  -3   2  967.16   30.84
  -5  -3   2  972.31   29.62
   4   3  -2  797.77   22.66
  -4  -3   2  745.46   24.72
  -4  -3   2  816.82   27.51
  -4  -3   2  833.47   24.86
  -4  -3   2  816.12   25.08
  -4  -3   2  836.06   26.30
   3   3  -2   10.81    1.90
   3   3  -2   12.09    2.31
  -3  -3   2    9.58    2.51
  -3  -3   2   10.17    2.15
  -3  -3   2   12.06    2.26
  -3  -3   2   13.51    2.40
  -3  -3   2   12.56    2.63
   2   3  -2  414.49   13.59
   2   3  -2  405.07   13.78
   2   3  -2  384.61   13.90
  -2  -3   2  402.41   14.73
  -2  -3   2  395.53   13.75
  -2  -3   2  422.00   13.66
  -2  -3   2  423.22   12.39
   1   3  -2   76.38    4.52
   1   3  -2   70.09    4.75
  -1  -3   2   69.67    3.58
  -1  -3   2   77.00    4.45
  -1  -3   2   81.34    4.42
   0   3  -2 1015.46   28.69
   0   3  -2 1063.74   30.58
   0   3  -2 1050.47   30.15
   0  -3   2 1003.15   29.16
   0  -3   2 1094.90   29.64
   0  -3   2 1019.32   30.33
   0  -3   2 1081.89   28.45
  -1   3  -2  213.33    8.70
  -1   3  -2  228.96    7.67
  -1   3  -2  214.34    9.11
  -1   3  -2  211.21    9.20
  -1   3  -2  210.05    7.63
   1  -3   2  221.70    9.03
   1  -3   2  214.12    8.49
   1  -3   2  213.29    7.56
   1  -3   2  222.12    8.35
  -2   3  -2 1172.34   33.40
  -2   3  -2 1086.99   33.03
  -2   3  -2 1137.64   32.69
  -2   3  -2 1173.69   31.12
   2  -3   2 1174.04   30.48
   2  -3   2 1148.37   32.21
   2  -3   2 1150.96   31.90
   2  -3   2 1148.94   32.90
  -3   3  -2  228.50    9.94
  -3   3  -2  230.34    8.21
  -3   3  -2  218.83    9.44
  -3   3  -2  232.35   10.04
   3  -3   2  231.76    8.80
   3  -3   2  232.98    9.61
   3  -3   2  224.22    9.01
   3  -3   2  232.64    6.78
   3  -3   2  225.90    6.81
  -4   3  -2   11.03    2.39
  -4   3  -2   15.97    2.85
  -4   3  -2   18.04    3.24
  -4   3  -2   14.37    2.00
   4  -3   2   15.83    2.47
   4  -3   2   16.73    2.38
   4  -3   2   11.79    2.58
  -5   3  -2  488.92   17.80
  -5   3  -2  505.77   18.67
  -5   3  -2  519.56   18.71
   5  -3   2  485.45   19.38
   5  -3   2  500.64   15.74
  -6   3  -2  102.59    7.49
  -6   3  -2  105.58    7.41
  -6   3  -2  102.60    6.98
   6  -3   2  118.84    8.88
  -7   3  -2   32.63    5.04
  -7   3  -2   35.49    5.31
  -7   3  -2   38.20    5.18
  -8   3  -2   73.74    7.88
  -8   3  -2   83.46    7.85
  -8  -2   2  167.09   10.37
  -7  -2   2   45.41    5.64
  -7  -2   2   34.41    5.41
  -6  -2   2   31.16    4.37
  -6  -2   2   36.33    5.13
   5   2  -2   18.94    1.34
  -5  -2   2   22.61    4.27
  -5  -2   2   18.03    3.30
  -5  -2   2   21.40    3.41
   4   2  -2  484.98   14.56
  -4  -2   2  501.19   18.78
  -4  -2   2  455.33   16.29
  -4  -2   2  494.13   16.57
  -4  -2   2  514.38   17.61
   3   2  -2    2.27    1.00
   3   2  -2    1.95    0.86
  -3  -2   2    1.70    1.40
  -3  -2   2    2.54    1.29
  -3  -2   2    2.91    1.35
  -3  -2   2    0.79    0.91
  -3  -2   2    1.82    1.17
   2   2  -2   56.94    3.68
   2   2  -2   53.96    3.40
   2   2  -2   56.36    3.68
  -2  -2   2   56.94    2.80
  -2  -2   2   52.30    3.44
  -2  -2   2   55.61    3.98
  -2  -2   2   56.58    3.66
  -2  -2   2   56.31    4.01
  -2  -2   2   53.78    3.58
   1   2  -2 3442.08   91.14
   1   2  -2 3586.02   93.32
   1   2  -2 3490.62   90.38
  -1  -2   2 3367.21   91.20
  -1  -2   2 3640.97   93.40
  -1  -2   2 3647.13   90.33
  -1  -2   2 3590.01   93.90
   0   2  -2   75.47    3.33
   0   2  -2   79.41    3.85
   0   2  -2   74.25    4.36
   0   2  -2   80.55    4.16
   0  -2   2   81.22    4.44
   0  -2   2   65.62    3.70
   0  -2   2   75.80    3.45
  -1   2  -2 1102.91   29.07
  -1   2  -2 1075.50   27.83
  -1   2  -2  980.78   28.29
  -1   2  -2 1064.41   27.78
   1  -2   2 1060.78   28.53
   1  -2   2 1013.27   28.64
   1  -2   2 1027.17   29.15
   1  -2   2 1046.22   27.70
  -2   2  -2    6.07    1.53
  -2   2  -2   12.41    1.85
  -2   2  -2    9.02    1.30
  -2   2  -2    8.95    1.64
  -2   2  -2    7.39    1.66
  -2   2  -2    5.74    1.43
   2  -2   2    7.55    0.92
   2  -2   2    8.59    1.57
   2  -2   2    7.94    1.56
   2  -2   2    6.43    0.91
   2  -2   2    7.98    1.59
  -3   2  -2  190.15    6.64
  -3   2  -2  192.02    7.67
  -3   2  -2  191.24    8.27
  -3   2  -2  188.93    8.14
  -3   2  -2  201.54    8.04
  -3   2  -2  198.36    7.48
   3  -2   2  188.98    7.19
   3  -2   2  211.10    7.55
   3  -2   2  200.99    8.51
  -4   2  -2  437.02   14.37
  -4   2  -2  421.92   13.96
  -4   2  -2  411.08   12.78
  -4   2  -2  457.13   15.43
  -4   2  -2  461.67   14.85
  -4   2  -2  438.55   15.26
   4  -2   2  442.81   16.30
  -5   2  -2  648.76   20.41
  -5   2  -2  622.71   17.95
  -5   2  -2  624.86   21.01
  -5   2  -2  601.38   19.31
  -5   2  -2  670.77   21.21
  -5   2  -2  618.97   19.78
   5  -2   2  647.12   22.84
   5  -2   2  602.31   18.26
   5  -2   2  637.33   17.64
  -6   2  -2  772.87   25.49
  -6   2  -2  814.68   26.17
  -6   2  -2  797.15   25.07
  -6   2  -2  758.74   22.20
   6  -2   2  773.90   28.33
  -7   2  -2    9.24    2.62
  -7   2  -2   10.12    2.93
  -7   2  -2   11.42    2.74
  -8   2  -2  112.34    8.53
  -8   2  -2   91.81    7.49
  -8  -1   2  105.62    8.08
  -7  -1   2    5.47    2.39
  -7  -1   2    6.07    2.69
   6   1  -2  187.84   12.07
  -6  -1   2  202.00    8.37
  -6  -1   2  200.36   10.08
  -6  -1   2  208.10   10.85
   5   1  -2    5.94    2.39
   5   1  -2    4.89    0.99
  -5  -1   2    3.34    1.37
  -5  -1   2    6.46    2.14
  -5  -1   2    4.75    1.80
  -5  -1   2    9.88    2.24
  -5  -1   2    4.90    2.43
   4   1  -2    0.99    0.65
   4   1  -2   -0.18    1.08
   4   1  -2   -0.20    0.23
  -4  -1   2    0.39    0.86
  -4  -1   2    1.13    1.24
  -4  -1   2    1.27    1.01
  -4  -1   2    1.27    1.05
   3   1  -2   39.18    4.35
   3   1  -2   43.27    2.81
   3   1  -2   45.32    2.73
  -3  -1   2   51.26    3.58
  -3  -1   2   52.05    3.86
  -3  -1   2   44.85    2.43
  -3  -1   2   46.68    3.36
  -3  -1   2   42.07    4.52
   2   1  -2   81.90    4.21
   2   1  -2   76.83    4.54
   2   1  -2   79.85    3.89
  -2  -1   2   76.62    4.14
  -2  -1   2   74.11    3.24
  -2  -1   2   74.70    3.99
  -2  -1   2   70.35    4.38
  -2  -1   2   74.89    4.11
  -2  -1   2   80.09    4.56
   1   1  -2  921.04   24.88
   1   1  -2  863.46   24.47
   1   1  -2  912.39   25.44
   1   1  -2  971.20   23.61
   1   1  -2  897.61   24.70
  -1  -1   2  884.56   24.71
  -1  -1   2  894.34   23.96
  -1  -1   2  847.69   24.77
  -1  -1   2  895.13   25.53
  -1  -1   2  912.84   24.74
  -1  -1   2  910.57   24.95
   0   1  -2   23.46    2.21
   0   1  -2   25.12    1.86
   0   1  -2   25.57    1.98
   0   1  -2   22.29    1.95
   0  -1   2   25.34    1.94
   0  -1   2   26.77    2.04
   0  -1   2   23.07    2.08
  -1   1  -2  561.03   15.54
  -1   1  -2  557.00   16.29
  -1   1  -2  592.21   16.26
  -1   1  -2  569.21   16.77
  -1   1  -2  606.06   15.75
  -1   1  -2  584.22   16.47
   1  -1   2  565.81   15.26
   1  -1   2  583.97   16.59
   1  -1   2  572.49   16.19
   1  -1   2  598.42   16.43
  -2   1  -2 2300.35   59.26
  -2   1  -2 2304.97   59.61
  -2   1  -2 2235.94   59.42
  -2   1  -2 2362.51   59.96
  -2   1  -2 2332.38   58.74
   2  -1   2 2378.86   59.15
   2  -1   2 2335.37   60.00
   2  -1   2 2346.31   59.50
   2  -1   2 2295.78   59.29
  -3   1  -2 1081.03   29.25
  -3   1  -2 1042.62   28.96
  -3   1  -2 1076.10   29.85
  -3   1  -2 1089.79   29.87
  -3   1  -2 1073.99   29.41
  -3   1  -2 1086.69   30.47
  -3   1  -2 1109.34   27.75
   3  -1   2 1093.03   28.66
   3  -1   2 1102.60   30.95
  -4   1  -2 1250.26   34.26
  -4   1  -2 1284.60   35.34
  -4   1  -2 1358.39   35.72
  -4   1  -2 1263.22   36.63
  -4   1  -2 1277.15   34.85
  -4   1  -2 1269.42   32.75
  -4   1  -2 1237.84   34.53
   4  -1   2 1279.43   33.73
   4  -1   2 1282.01   32.60
   4  -1   2 1282.99   37.40
  -5   1  -2  586.03   18.51
  -5   1  -2  534.14   17.02
  -5   1  -2  550.53   17.51
  -5   1  -2  514.81   16.61
  -5   1  -2  548.36   15.25
  -5   1  -2  560.62   19.69
  -5   1  -2  567.16   18.00
   5  -1   2  543.71   20.39
  -6   1  -2   -0.10    0.97
  -6   1  -2    0.62    1.13
  -6   1  -2    1.42    0.79
  -6   1  -2   -1.15    1.30
  -6   1  -2   -0.26    1.10
   6  -1   2    1.80    1.86
  -7   1  -2   94.31    6.36
  -7   1  -2  106.94    7.32
  -7   1  -2  102.43    6.90
  -8   1  -2    1.76    1.83
  -8   1  -2   -0.65    1.75
  -8   1  -2   -2.64    1.30
  -8   0   2   42.19    6.11
  -7   0   2   -0.09    1.34
  -7   0   2   -3.00    1.28
   6   0  -2  346.58   17.31
  -6   0   2  360.32   12.39
  -6   0   2  395.28   16.11
  -6   0   2  380.30   15.14
   5   0  -2  902.05   25.34
   5   0  -2  912.40   25.74
   5   0  -2  992.07   32.06
  -5   0   2  934.92   28.42
  -5   0   2  944.34   26.12
  -5   0   2  897.29   27.77
  -5   0   2  979.86   31.22
  -5   0   2  973.27   28.88
  -5   0   2  957.76   29.70
   4   0  -2  371.01   11.52
   4   0  -2  386.39   15.36
  -4   0   2  377.50   13.18
  -4   0   2  369.87   11.41
  -4   0   2  372.70   14.82
  -4   0   2  363.46   12.75
  -4   0   2  369.81   13.91
  -4   0   2  388.04   13.58
   3   0  -2   80.78    3.80
   3   0  -2   81.38    5.38
   3   0  -2   80.25    4.09
   3   0  -2   81.06    3.95
  -3   0   2   76.83    4.39
  -3   0   2   88.41    4.76
  -3   0   2   76.04    4.76
  -3   0   2   87.65    3.72
  -3   0   2   76.33    5.13
  -3   0   2   79.40    3.50
   2   0  -2   12.45    1.83
   2   0  -2   12.02    2.22
   2   0  -2   15.75    2.50
   2   0  -2   12.67    1.89
  -2   0   2   11.56    1.36
  -2   0   2    9.21    1.98
  -2   0   2   11.12    2.02
  -2   0   2   15.88    1.44
  -2   0   2   18.58    2.72
  -2   0   2   13.92    2.19
   1   0  -2  303.40   10.28
   1   0  -2  331.37    9.98
   1   0  -2  333.62    9.98
   1   0  -2  302.20    9.83
   1   0  -2  334.69    9.25
  -1   0   2  333.06    9.18
  -1   0   2  295.72    9.88
  -1   0   2  325.07    9.47
  -1   0   2  319.40    9.85
  -1   0   2  319.43   10.12
   0   0  -2 2643.16   71.62
   0   0  -2 2584.17   68.32
   0   0  -2 2727.17   70.94
   0   0  -2 2515.08   69.80
   0   0  -2 2807.20   70.07
   0   0  -2 2561.65   68.28
   0   0   2 2644.16   72.88
   0   0   2 2584.52   71.86
   0   0   2 2775.83   67.25
   0   0   2 2641.30   68.04
   0   0   2 2714.63   67.52
   0   0   2 2621.05   67.70
  -1   0  -2 6161.96  155.63
  -1   0  -2 6108.23  153.29
  -1   0  -2 6038.21  157.22
  -1   0  -2 6055.28  155.79
  -1   0  -2 6156.48  156.70
  -1   0  -2 6038.38  154.26
   1   0   2 6127.55  155.14
   1   0   2 5915.78  155.17
   1   0   2 6240.83  156.20
   1   0   2 6132.20  154.13
   1   0   2 5979.09  152.80
  -3   0  -2   25.75    1.76
  -3   0  -2   23.25    1.64
  -3   0  -2   28.84    1.92
  -3   0  -2   23.26    2.90
   3   0   2   24.83    3.13
  -4   0  -2 4322.84  109.06
  -4   0  -2 4279.39  108.30
  -4   0  -2 4391.79  110.81
  -4   0  -2 4294.97  108.55
  -4   0  -2 4283.71  111.96
  -4   0  -2 4253.78  110.79
   4   0   2 4378.64  112.61
  -5   0  -2  230.65    8.34
  -5   0  -2  233.15    8.78
  -5   0  -2  241.22   11.31
  -5   0  -2  231.27    8.12
  -5   0  -2  232.52    8.70
  -5   0  -2  246.53    8.97
   5   0   2  237.87   11.67
  -6   0  -2   38.36    5.48
  -6   0  -2   30.20    1.84
  -6   0  -2   36.67    3.87
  -6   0  -2   34.43    3.31
   6   0   2   43.60    6.35
  -7   0  -2    9.40    2.37
  -7   0  -2    5.71    1.94
  -8   0  -2   39.04    4.90
  -8   0  -2   48.45    5.79
  -8   0  -2   38.50    5.29
  -8   1   2   34.34    5.74
  -7   1   2   -0.45    1.17
  -7   1   2   -2.08    1.25
   6  -1  -2    0.95    2.00
  -6   1   2    2.70    1.68
  -6   1   2   -0.99    0.92
  -6   1   2    0.32    1.25
   5  -1  -2  313.23   14.68
   5  -1  -2  285.93   10.48
  -5   1   2  330.65   13.54
  -5   1   2  312.35   10.61
  -5   1   2  349.18   13.14
  -5   1   2  294.27   11.83
  -5   1   2  330.02   14.33
   4  -1  -2  348.86   11.56
   4  -1  -2  365.54   14.71
   4  -1  -2  352.03   11.24
  -4   1   2  359.11   14.19
  -4   1   2  343.54   12.20
  -4   1   2  355.11   13.44
  -4   1   2  355.17   13.06
  -4   1   2  330.76   10.95
   3  -1  -2  880.83   23.72
   3  -1  -2  851.55   26.11
   3  -1  -2  864.91   24.41
   3  -1  -2  869.51   23.94
  -3   1   2  841.90   24.54
  -3   1   2  862.81   23.19
  -3   1   2  829.84   24.21
  -3   1   2  876.31   25.53
  -3   1   2  810.30   24.77
  -3   1   2  855.82   25.89
   2  -1  -2  189.14    7.20
   2  -1  -2  187.77    6.60
   2  -1  -2  188.49    6.81
   2  -1  -2  175.83    7.43
   2  -1  -2  191.25    5.73
   2  -1  -2  184.07    5.77
  -2   1   2  188.27    7.27
  -2   1   2  187.64    7.60
  -2   1   2  199.83    7.59
  -2   1   2  186.25    6.15
  -2   1   2  183.31    7.03
  -2   1   2  182.75    6.83
   1  -1  -2 4877.09  124.72
   1  -1  -2 4552.63  119.95
   1  -1  -2 4752.84  123.65
   1  -1  -2 4669.25  122.64
   1  -1  -2 4664.79  122.42
  -1   1   2 4532.16  123.75
  -1   1   2 4712.20  123.43
  -1   1   2 4730.64  123.49
  -1   1   2 4677.66  123.19
  -1   1   2 4725.81  120.29
   0  -1  -2  214.61    6.80
   0  -1  -2  223.99    7.21
   0  -1  -2  233.90    6.22
   0  -1  -2  221.16    6.88
   0   1   2  210.66    7.09
   0   1   2  214.16    6.82
   0   1   2  210.35    6.77
   0   1   2  213.52    6.08
  -1  -1  -2 1208.79   31.06
  -1  -1  -2 1247.35   32.00
  -1  -1  -2 1265.67   31.48
   1   1   2 1207.26   31.18
   1   1   2 1221.58   30.99
  -2  -1  -2  702.61   17.68
  -2  -1  -2  695.06   20.04
   2   1   2  716.48   20.17
  -3  -1  -2   26.27    1.05
  -3  -1  -2   20.34    1.34
  -3  -1  -2   24.71    3.01
   3   1   2   20.78    2.90
  -4  -1  -2   57.77    2.41
  -4  -1  -2   57.54    2.54
  -4  -1  -2   57.62    2.71
  -4  -1  -2   60.37    4.78
   4   1   2   57.21    4.77
  -5  -1  -2  218.58    7.75
  -5  -1  -2  220.81    7.53
  -5  -1  -2  224.27    7.34
  -5  -1  -2  235.42    7.96
  -5  -1  -2  207.36   10.77
   5   1   2  238.91   11.59
  -6  -1  -2   31.39    2.57
  -6  -1  -2   24.42    2.93
  -6  -1  -2   22.38    2.46
  -6  -1  -2   31.41    2.80
  -6  -1  -2   29.32    4.76
   6   1   2   29.26    5.20
  -7  -1  -2   52.90    4.25
  -7  -1  -2   55.35    4.34
  -8  -1  -2   54.73    4.76
  -8  -1  -2   57.23    5.69
  -8  -1  -2   60.75    5.28
  -8   2   2   31.11    5.45
  -8   2   2   30.04    5.22
  -7   2   2  136.00    9.11
  -7   2   2  164.08    9.90
   6  -2  -2   -1.01    1.44
  -6   2   2   -3.06    1.07
  -6   2   2    2.46    1.65
  -6   2   2   -0.16    1.14
   5  -2  -2  103.39    5.30
   5  -2  -2   97.26    7.55
   5  -2  -2   97.64    4.97
  -5   2   2   97.11    6.82
  -5   2   2  108.12    5.19
  -5   2   2  102.30    7.21
  -5   2   2   89.88    6.46
   4  -2  -2    0.39    0.73
   4  -2  -2    0.67    0.86
   4  -2  -2    2.47    1.67
  -4   2   2    1.77    1.24
  -4   2   2    2.43    1.40
  -4   2   2    0.98    1.08
  -4   2   2    1.91    1.30
  -4   2   2    2.19    0.91
   3  -2  -2 1680.83   46.29
   3  -2  -2 1696.21   44.21
   3  -2  -2 1651.17   42.09
   3  -2  -2 1637.73   43.75
   3  -2  -2 1687.52   44.80
  -3   2   2 1664.45   45.72
  -3   2   2 1679.93   43.17
  -3   2   2 1532.95   44.12
  -3   2   2 1658.52   45.26
   2  -2  -2  426.62   13.06
   2  -2  -2  444.25   14.25
   2  -2  -2  437.70   13.86
   2  -2  -2  429.74   13.26
   2  -2  -2  420.41   12.21
  -2   2   2  429.21   12.41
  -2   2   2  437.53   14.29
  -2   2   2  438.81   13.95
  -2   2   2  416.99   13.24
   1  -2  -2 3483.43   89.97
   1  -2  -2 3407.42   89.95
   1  -2  -2 3643.04   91.35
   1  -2  -2 3292.02   89.50
  -1   2   2 3582.97   95.07
  -1   2   2 3408.64   87.83
  -1   2   2 3317.15   89.91
   0  -2  -2 3846.15  102.24
   0  -2  -2 3660.35   96.91
   0  -2  -2 3751.57  100.05
   0  -2  -2 3751.36   98.65
   0  -2  -2 3928.59  102.33
   0   2   2 3791.34  100.06
   0   2   2 3790.05   99.92
   0   2   2 3824.61  102.24
   0   2   2 3931.06  100.42
  -1  -2  -2  163.37    5.12
  -1  -2  -2  162.33    5.03
  -1  -2  -2  177.29    5.06
  -1  -2  -2  160.40    4.99
   1   2   2  163.41    4.67
   1   2   2  164.00    4.71
   2   2   2  100.96    3.34
  -3  -2  -2   61.56    2.57
  -3  -2  -2   64.96    4.46
  -4  -2  -2    1.69    0.39
  -4  -2  -2    1.39    0.93
  -5  -2  -2   23.20    1.83
  -5  -2  -2   20.10    3.90
  -5  -2  -2   20.71    1.57
  -5  -2  -2   18.75    1.43
  -6  -2  -2  774.17   22.03
  -6  -2  -2  770.68   22.42
  -6  -2  -2  801.38   22.35
  -6  -2  -2  759.52   21.70
  -6  -2  -2  821.68   28.19
  -7  -2  -2   75.29    4.71
  -7  -2  -2   71.83    4.77
  -8  -2  -2    0.32    1.20
  -8  -2  -2   -0.09    1.13
  -8   3   2   96.98    9.22
  -8   3   2   87.25    9.07
  -7   3   2   40.57    6.49
  -7   3   2   45.09    5.92
  -6   3   2  153.04    6.88
  -6   3   2  137.05    8.69
  -6   3   2  130.96    9.07
  -6   3   2  131.07    9.33
  -6   3   2  126.03    8.48
   5  -3  -2  154.18    9.77
   5  -3  -2  147.43    6.90
   5  -3  -2  149.18    7.19
  -5   3   2  149.51    8.44
  -5   3   2  154.48    9.03
  -5   3   2  151.78    8.53
  -5   3   2  149.00    6.59
   4  -3  -2 1598.15   41.68
   4  -3  -2 1533.54   45.04
   4  -3  -2 1498.52   42.01
  -4   3   2 1562.12   44.27
  -4   3   2 1591.50   40.92
  -4   3   2 1432.25   43.09
  -4   3   2 1480.27   43.39
   3  -3  -2   14.21    2.46
   3  -3  -2   12.04    2.16
   3  -3  -2   12.75    2.06
   3  -3  -2   13.01    1.57
   3  -3  -2   12.78    1.35
   3  -3  -2   15.15    2.96
  -3   3   2   12.27    2.54
  -3   3   2   15.84    1.97
  -3   3   2   15.58    3.10
  -3   3   2   11.62    2.33
  -3   3   2   14.89    2.60
   2  -3  -2  215.08    7.87
   2  -3  -2  200.21    6.99
   2  -3  -2  218.93    8.14
   2  -3  -2  203.18    8.49
  -2   3   2  211.06    8.45
  -2   3   2  206.51    7.12
  -2   3   2  213.73    8.59
  -2   3   2  217.17    9.12
   1  -3  -2  221.86    8.07
   1  -3  -2  239.64    8.68
   1  -3  -2  226.74    7.23
   1  -3  -2  222.36    7.83
  -1   3   2  231.76    8.44
  -1   3   2  244.94    8.90
  -1   3   2  227.69    8.80
  -1   3   2  224.37    7.93
  -1  -3  -2  181.55    6.28
  -1  -3  -2  192.71    6.04
  -1  -3  -2  186.68    6.45
  -1  -3  -2  178.76    6.08
  -1  -3  -2  188.87    6.45
   1   3   2  196.89    6.14
   1   3   2  198.97    5.92
   1   3   2  201.99    6.11
  -2  -3  -2    2.00    0.44
  -2  -3  -2    1.15    0.42
  -2  -3  -2    1.41    0.48
   2   3   2    1.48    0.56
  -3  -3  -2 1145.54   32.82
   3   3   2 1090.97   29.53
  -4  -3  -2   76.07    2.48
  -4  -3  -2   70.38    2.59
  -4  -3  -2   72.75    2.45
  -4  -3  -2   77.03    5.69
  -4  -3  -2   71.48    2.58
  -5  -3  -2  638.31   17.09
  -5  -3  -2  655.48   17.33
  -5  -3  -2  627.02   22.89
  -5  -3  -2  615.83   17.40
  -5  -3  -2  614.79   17.28
  -6  -3  -2   -0.38    0.68
  -6  -3  -2    0.43    0.78
  -6  -3  -2    0.49    0.91
  -6  -3  -2   -1.47    0.64
  -6  -3  -2   -0.90    1.09
  -7  -3  -2 1016.16   29.36
  -7  -3  -2  993.42   28.77
  -8  -3  -2    1.35    1.36
  -8  -3  -2   -0.10    1.15
  -8   4   2    5.70    2.98
  -8   4   2    5.09    3.14
  -7   4   2  247.60   13.54
  -7   4   2  257.39   14.85
  -6   4   2    3.78    2.32
  -6   4   2    9.70    3.02
   5  -4  -2  229.15    9.89
   5  -4  -2  258.41   13.29
   5  -4  -2  251.84   10.50
  -5   4   2  272.16   12.85
  -5   4   2  244.23   11.73
  -5   4   2  219.00    9.28
  -5   4   2  260.30   12.99
   4  -4  -2  257.27   10.48
   4  -4  -2  263.16   12.43
   4  -4  -2  279.83    8.40
   4  -4  -2  251.11   10.06
  -4   4   2  250.99    9.40
  -4   4   2  247.82   12.25
  -4   4   2  262.68   12.04
  -4   4   2  250.35   11.32
   3  -4  -2   74.16    3.56
   3  -4  -2   72.97    3.69
   3  -4  -2   78.78    5.55
   3  -4  -2   75.58    4.59
   3  -4  -2   73.06    4.70
   3  -4  -2   81.58    5.46
  -3   4   2   67.49    5.42
  -3   4   2   84.93    5.49
  -3   4   2   74.58    5.40
   2  -4  -2 1667.80   43.30
   2  -4  -2 1587.54   44.52
   2  -4  -2 1580.72   43.54
   2  -4  -2 1625.85   42.00
  -2   4   2 1551.09   44.57
  -2   4   2 1600.34   45.00
  -2   4   2 1620.56   44.19
   1  -4  -2  105.92    5.19
   1  -4  -2  104.55    5.57
   1  -4  -2  104.04    4.93
  -1   4   2  112.45    5.77
  -1   4   2  102.59    5.30
  -1   4   2  106.28    5.73
   0  -4  -2   49.21    3.17
   0  -4  -2   49.60    3.03
   0  -4  -2   58.85    3.82
   0  -4  -2   52.25    3.54
   0   4   2   63.32    3.78
   0   4   2   55.94    3.63
   0   4   2   50.82    3.33
  -1  -4  -2 1799.53   46.91
  -1  -4  -2 1816.51   46.58
  -1  -4  -2 1798.43   46.29
  -1  -4  -2 1786.46   47.06
  -1  -4  -2 1773.87   47.17
   1   4   2 1753.96   46.63
   1   4   2 1764.99   46.71
   1   4   2 1798.29   46.55
  -2  -4  -2  441.74   13.31
  -2  -4  -2  448.77   13.34
  -2  -4  -2  463.73   13.64
  -2  -4  -2  455.64   13.10
  -2  -4  -2  457.60   12.92
   2   4   2  472.34   13.53
   2   4   2  452.05   11.95
  -3  -4  -2    4.86    0.97
  -3  -4  -2    4.82    0.88
  -3  -4  -2    6.34    0.97
  -3  -4  -2    4.92    0.99
  -3  -4  -2    4.67    0.82
   3   4   2    4.92    1.17
  -4  -4  -2  287.67    8.52
  -4  -4  -2  270.15   12.27
  -4  -4  -2  266.04    8.60
  -4  -4  -2  278.90    8.30
  -4  -4  -2  284.05    8.31
  -4  -4  -2  280.28    8.58
   4   4   2  271.04    9.69
  -5  -4  -2   28.06    2.01
  -5  -4  -2   26.03    2.08
  -5  -4  -2   23.69    2.01
  -5  -4  -2   28.04    4.76
  -5  -4  -2   28.11    2.09
  -6  -4  -2  787.40   22.89
  -6  -4  -2  820.98   23.31
  -6  -4  -2  801.73   22.74
  -7  -4  -2   -1.18    1.06
  -7  -4  -2    0.88    1.18
  -8  -4  -2  225.79    9.81
  -8  -4  -2  220.87   10.44
  -7   5   2   26.75    4.93
  -7   5   2   30.69    6.08
  -6   5   2  131.41    9.90
  -6   5   2  127.99    8.91
   5  -5  -2  169.34   10.64
   5  -5  -2  160.27    8.42
   5  -5  -2  148.72    7.89
  -5   5   2  156.64    9.33
  -5   5   2  154.90   10.11
  -5   5   2  144.90   10.01
   4  -5  -2  162.27    9.58
   4  -5  -2  170.63    6.51
   4  -5  -2  180.34    8.61
   4  -5  -2  174.85    8.25
   4  -5  -2  162.54    5.80
   4  -5  -2  164.56    9.95
  -4   5   2  169.62    9.14
  -4   5   2  156.11    9.56
  -4   5   2  166.17    9.58
   3  -5  -2 2980.19   80.05
   3  -5  -2 3170.66   76.49
   3  -5  -2 2929.44   76.29
   3  -5  -2 2999.46   78.73
   3  -5  -2 2952.09   78.09
  -3   5   2 2840.49   80.49
  -3   5   2 2930.29   79.53
   2  -5  -2   48.66    4.51
   2  -5  -2   46.80    3.79
   2  -5  -2   51.94    3.13
   2  -5  -2   46.38    3.54
   2  -5  -2   46.20    4.18
  -2   5   2   33.08    4.22
  -2   5   2   46.28    4.19
  -2   5   2   66.19    4.64
   1  -5  -2    8.37    1.82
   1  -5  -2    8.80    2.25
   1  -5  -2    8.32    1.94
   1  -5  -2    5.42    1.71
  -1   5   2    7.65    2.01
  -1   5   2    9.26    2.25
  -1   5   2    5.63    1.71
   0  -5  -2 1411.95   37.82
   0  -5  -2 1394.25   38.15
   0  -5  -2 1385.75   39.30
   0  -5  -2 1390.65   39.11
   0   5   2 1416.80   38.91
   0   5   2 1348.68   38.92
   0   5   2 1441.07   38.63
  -1  -5  -2  578.58   17.12
  -1  -5  -2  570.83   17.88
  -1  -5  -2  575.86   16.77
  -1  -5  -2  583.15   17.80
  -1  -5  -2  550.98   17.40
   1   5   2  569.14   17.08
   1   5   2  539.72   17.26
  -2  -5  -2  365.32   11.34
  -2  -5  -2  352.79   11.89
  -2  -5  -2  379.98   12.18
  -2  -5  -2  374.10   12.35
  -2  -5  -2  360.80   11.58
   2   5   2  352.01   11.00
   2   5   2  365.99   11.74
  -3  -5  -2  659.22   19.07
  -3  -5  -2  641.85   19.34
  -3  -5  -2  619.41   18.87
  -3  -5  -2  678.10   18.48
  -3  -5  -2  651.79   18.62
   3   5   2  664.05   19.41
  -4  -5  -2  801.89   22.26
  -4  -5  -2  800.52   27.31
  -4  -5  -2  754.19   22.70
  -4  -5  -2  830.69   22.89
  -4  -5  -2  837.82   23.40
  -4  -5  -2  819.40   22.57
   4   5   2  802.05   23.72
  -5  -5  -2  423.77   13.64
  -5  -5  -2  444.39   14.39
  -5  -5  -2  425.31   13.91
  -5  -5  -2  446.44   13.50
  -5  -5  -2  487.32   18.67
   5   5   2  442.14   15.05
  -6  -5  -2  238.61    8.76
  -6  -5  -2  219.95    8.79
  -6  -5  -2  239.11    9.55
  -7  -5  -2  193.27    9.04
  -7  -5  -2  194.87    8.46
  -8  -5  -2   33.91    4.23
  -8  -5  -2   30.77    4.45
  -7   6   2   48.54    7.15
  -6   6   2  164.94   11.46
  -6   6   2  161.24   10.63
   5  -6  -2   37.16    4.69
  -5   6   2   39.24    5.49
  -5   6   2   37.56    6.20
   4  -6  -2   30.80    2.45
   4  -6  -2   26.36    3.79
   4  -6  -2   30.82    4.87
   4  -6  -2   25.81    2.83
   4  -6  -2   24.58    3.84
  -4   6   2   30.85    4.62
  -4   6   2   35.84    5.43
   3  -6  -2    0.21    0.60
   3  -6  -2    0.23    1.02
   3  -6  -2   -0.21    0.96
   3  -6  -2    0.15    0.73
   3  -6  -2    0.09    0.98
  -3   6   2    1.11    1.26
  -3   6   2   -0.17    0.98
  -3   6   2    0.63    1.02
   2  -6  -2  122.00    6.54
   2  -6  -2  118.44    7.35
   2  -6  -2  122.49    5.64
   2  -6  -2  121.29    7.79
   2  -6  -2  123.38    6.87
  -2   6   2  136.97    8.09
  -2   6   2  118.93    7.42
   1  -6  -2  108.82    5.77
   1  -6  -2   96.48    5.72
   1  -6  -2  100.61    6.45
  -1   6   2  103.44    6.16
  -1   6   2   92.92    6.14
  -1   6   2  106.07    6.56
   0  -6  -2  597.88   19.13
   0  -6  -2  599.95   20.21
   0  -6  -2  612.15   18.82
   0  -6  -2  630.88   20.55
   0   6   2  583.17   20.01
   0   6   2  615.86   19.67
  -1  -6  -2  699.84   21.95
  -1  -6  -2  695.56   20.56
  -1  -6  -2  691.14   21.86
  -1  -6  -2  675.82   20.90
   1   6   2  689.52   20.97
   1   6   2  670.14   21.32
  -2  -6  -2  145.35    6.23
  -2  -6  -2  152.49    7.28
  -2  -6  -2  136.23    6.31
  -2  -6  -2  142.19    6.93
  -2  -6  -2  129.40    6.52
   2   6   2  141.91    6.39
  -3  -6  -2   36.49    2.82
  -3  -6  -2   37.79    3.25
  -3  -6  -2   33.21    3.17
  -3  -6  -2   37.65    3.11
  -3  -6  -2   32.82    2.86
   3   6   2   40.95    4.07
  -4  -6  -2  517.49   15.86
  -4  -6  -2  488.82   16.56
  -4  -6  -2  484.20   15.98
  -4  -6  -2  497.42   15.45
  -4  -6  -2  493.96   16.34
   4   6   2  519.53   16.77
  -5  -6  -2   44.19    3.90
  -5  -6  -2   60.90    3.93
  -5  -6  -2   46.24    3.50
   5   6   2   48.73    4.96
  -6  -6  -2   43.32    4.12
  -6  -6  -2   44.98    3.71
  -6  -6  -2   36.39    3.77
  -7  -6  -2   72.29    5.04
  -7  -6  -2   67.01    4.84
  -7  -6  -2   70.30    5.56
  -8  -6  -2    0.17    1.41
  -8  -6  -2    0.85    1.37
  -7   7   2  104.95   10.99
  -6   7   2    1.05    2.14
   5  -7  -2  237.40   11.41
  -5   7   2  228.18   12.72
   4  -7  -2  194.18   10.39
   4  -7  -2  197.31    7.88
   4  -7  -2  187.21   11.30
   4  -7  -2  205.60    8.29
   4  -7  -2  199.11    9.97
  -4   7   2  214.22   11.52
  -4   7   2  172.13   11.39
   3  -7  -2   94.10    6.27
   3  -7  -2   98.03    5.28
   3  -7  -2   93.42    5.12
   3  -7  -2   77.73    6.08
   3  -7  -2   81.64    6.85
  -3   7   2   89.15    7.23
  -3   7   2   92.19    6.93
  -3   7   2   99.71    7.72
   2  -7  -2   29.13    4.65
   2  -7  -2   38.27    4.74
   2  -7  -2   43.01    4.69
   2  -7  -2   45.32    5.91
  -2   7   2   35.17    5.12
  -2   7   2   46.20    5.63
   1  -7  -2   27.45    3.79
   1  -7  -2   29.21    4.56
   1  -7  -2   21.60    3.33
   1  -7  -2   22.23    4.05
  -1   7   2   23.28    3.61
  -1   7   2   25.63    4.23
  -1   7   2   20.81    3.50
   0  -7  -2  169.02    7.94
   0  -7  -2  168.75    9.02
   0  -7  -2  149.07    7.92
   0  -7  -2  173.21    9.19
   0   7   2  177.95    9.10
   0   7   2  173.63    8.57
  -1  -7  -2  406.48   14.19
  -1  -7  -2  385.81   15.10
  -1  -7  -2  378.57   13.64
  -1  -7  -2  380.10   14.92
   1   7   2  390.62   14.15
   1   7   2  389.66   13.52
  -2  -7  -2  751.17   24.09
  -2  -7  -2  780.80   25.25
  -2  -7  -2  831.19   25.62
  -2  -7  -2  802.89   23.90
   2   7   2  789.88   23.98
   2   7   2  808.86   23.72
  -3  -7  -2  238.17    9.95
  -3  -7  -2  228.71    9.50
  -3  -7  -2  234.53   10.12
  -3  -7  -2  256.38   10.81
  -3  -7  -2  251.30   10.81
   3   7   2  271.81   10.46
  -4  -7  -2  164.80    8.45
  -4  -7  -2  178.82    8.10
  -4  -7  -2  175.39    7.79
  -4  -7  -2  177.42    8.81
   4   7   2  185.03    8.63
  -5  -7  -2  150.31    8.09
  -5  -7  -2  144.02    7.26
  -5  -7  -2  146.00    7.06
   5   7   2  143.30    7.88
  -6  -7  -2    0.48    1.13
  -6  -7  -2   -0.24    1.02
  -6  -7  -2   -0.14    1.09
   6   7   2   -0.27    1.23
  -7  -7  -2  128.73    7.01
  -7  -7  -2  115.24    7.69
  -7  -7  -2  107.90    6.95
  -6   8   2   15.20    4.68
  -5   8   2   75.63    8.59
   4  -8  -2  229.70   11.44
   4  -8  -2  208.55   11.50
   4  -8  -2  220.16    9.20
   4  -8  -2  227.90    9.20
  -4   8   2  227.36   12.73
   3  -8  -2  107.01    7.64
   3  -8  -2  111.54    6.08
   3  -8  -2  122.05    6.49
   3  -8  -2  116.35    7.56
  -3   8   2  111.83    8.30
   2  -8  -2    6.98    2.42
   2  -8  -2   12.98    3.19
   2  -8  -2    9.03    2.57
  -2   8   2    7.34    2.54
  -2   8   2    8.25    3.10
   1  -8  -2  733.28   26.32
   1  -8  -2  732.61   24.62
   1  -8  -2  765.02   24.38
   1  -8  -2  722.97   26.31
  -1   8   2  767.01   25.54
  -1   8   2  719.73   26.00
   0  -8  -2 3031.45   80.93
   0  -8  -2 2947.50   78.21
   0  -8  -2 2706.48   80.00
   0  -8  -2 3033.48   78.92
   0   8   2 2929.36   79.09
   0   8   2 2878.52   80.09
  -1  -8  -2  162.52    8.46
  -1  -8  -2  168.29    8.18
  -1  -8  -2  152.29    9.03
  -1  -8  -2  150.41    8.98
   1   8   2  144.80    8.03
   1   8   2  149.79    7.62
  -2  -8  -2  849.49   26.70
  -2  -8  -2  849.64   28.00
  -2  -8  -2  889.08   26.41
  -2  -8  -2  872.68   28.08
   2   8   2  849.97   26.31
   2   8   2  811.83   25.82
  -3  -8  -2   81.86    6.16
  -3  -8  -2   78.99    6.07
  -3  -8  -2   63.99    4.93
  -3  -8  -2   76.89    5.54
   3   8   2   82.27    5.62
  -4  -8  -2   22.85    3.89
  -4  -8  -2   29.09    4.07
  -4  -8  -2   22.92    3.31
  -4  -8  -2   24.77    4.02
   4   8   2   26.31    3.90
  -5  -8  -2   13.64    2.83
  -5  -8  -2   12.72    2.68
  -5  -8  -2   12.16    2.94
   5   8   2   11.31    2.82
  -6  -8  -2  357.64   13.97
  -6  -8  -2  366.12   15.44
  -6  -8  -2  326.58   13.84
   6   8   2  354.00   14.90
  -7  -8  -2  114.96    8.23
  -7  -8  -2  121.25    7.76
  -7  -8  -2  124.47    7.45
   5  -9  -2   42.25    3.12
  -5   9   2   49.34    7.47
   4  -9  -2    3.71    2.21
   4  -9  -2    3.95    1.57
   4  -9  -2    6.97    3.10
  -4   9   2    5.17    3.03
   3  -9  -2   21.94    3.18
   3  -9  -2   16.60    3.89
   3  -9  -2   18.44    3.97
  -3   9   2   19.72    4.73
   2  -9  -2   33.86    4.90
   2  -9  -2   44.81    5.90
  -2   9   2   38.95    5.72
   1  -9  -2  884.74   29.34
   1  -9  -2  963.87   30.50
   1  -9  -2  867.79   31.62
  -1   9   2  945.99   30.94
   0  -9  -2  163.46   10.38
   0  -9  -2  158.40    8.82
   0  -9  -2  154.52    9.17
   0   9   2  176.99    9.75
  -1  -9  -2 1272.77   40.10
  -1  -9  -2 1295.52   38.43
  -1  -9  -2 1232.25   39.86
  -1  -9  -2 1310.83   37.87
   1   9   2 1256.57   37.12
   1   9   2 1193.23   37.86
  -2  -9  -2   52.54    6.42
  -2  -9  -2   50.35    6.24
  -2  -9  -2   46.83    5.48
  -2  -9  -2   78.02    5.66
   2   9   2   62.85    6.14
  -3  -9  -2  413.19   15.55
  -3  -9  -2  392.11   15.80
  -3  -9  -2  386.01   16.90
  -3  -9  -2  411.64   17.11
   3   9   2  399.61   15.72
  -4  -9  -2    4.56    1.99
  -4  -9  -2    7.85    2.60
  -4  -9  -2    5.16    2.10
   4   9   2    6.80    2.43
  -5  -9  -2  116.41    8.20
  -5  -9  -2  109.49    7.41
  -5  -9  -2  110.06    7.08
   5   9   2  124.61    8.10
  -6  -9  -2   -2.20    1.49
  -6  -9  -2   -0.43    1.36
  -6  -9  -2    1.76    1.65
   6   9   2    1.73    1.88
   5 -10  -2  276.60   10.30
  -5  10   2  273.85   16.44
   4 -10  -2  462.01   20.89
   4 -10  -2  490.38   20.51
  -4  10   2  514.14   22.63
   3 -10  -2   42.80    4.71
   3 -10  -2   64.94    7.89
   3 -10  -2   62.29    7.40
  -3  10   2   57.93    7.90
   2 -10  -2  169.94   10.32
   2 -10  -2  183.71   11.11
  -2  10   2  177.32   11.39
   1 -10  -2   88.89    8.98
   1 -10  -2   64.87    7.12
  -1  10   2   73.06    7.92
   0 -10  -2  105.07    7.43
   0 -10  -2   85.46    7.16
   0 -10  -2   98.92    8.35
   0  10   2   97.90    6.83
   0  10   2   95.20    7.60
  -1 -10  -2  526.92   20.41
  -1 -10  -2  528.44   21.82
  -1 -10  -2  504.05   19.49
   1  10   2  510.30   19.01
  -2 -10  -2  336.60   16.51
  -2 -10  -2  338.35   14.72
  -2 -10  -2  352.12   15.42
   2  10   2  355.69   14.86
  -3 -10  -2   12.23    3.23
  -3 -10  -2   19.96    4.40
  -3 -10  -2   20.36    3.92
   3  10   2   13.00    3.15
  -4 -10  -2  442.49   18.38
  -4 -10  -2  470.06   18.27
   4  10   2  489.49   18.96
  -5 -10  -2   32.29    5.14
  -5 -10  -2   37.21    5.31
   5  10   2   22.24    4.55
  -6 -10  -2   27.65    4.74
  -6 -10  -2   18.24    4.37
   6  10   2   19.69    4.36
   4 -11  -2   32.16    5.81
  -4  11   2   41.07    7.40
   3 -11  -2  218.08   13.40
   3 -11  -2  218.98   10.49
   3 -11  -2  235.45   13.20
  -3  11   2  202.29   13.61
   2 -11  -2   24.02    5.06
   2 -11  -2   22.30    4.67
  -2  11   2   27.82    5.39
   1 -11  -2   69.11    8.34
   1 -11  -2   59.88    7.17
  -1  11   2   58.00    6.59
  -1  11   2   60.69    7.72
   0 -11  -2    6.32    2.82
   0 -11  -2    8.03    2.90
   0  11   2    4.84    2.35
  -1 -11  -2   40.98    6.35
  -1 -11  -2   50.89    6.72
   1  11   2   26.86    4.60
  -2 -11  -2  144.39    9.63
  -2 -11  -2  147.84   10.01
  -2 -11  -2  179.08   11.84
   2  11   2  151.69    9.53
  -3 -11  -2   43.52    5.91
  -3 -11  -2   53.04    6.93
   3  11   2   48.26    6.54
  -4 -11  -2   19.82    4.49
  -4 -11  -2   11.83    3.64
   4  11   2   19.59    4.28
  -5 -11  -2  275.46   14.23
  -5 -11  -2  267.94   13.71
   5  11   2  271.90   14.34
   2 -12  -2  262.20   14.58
   2 -12  -2  241.92   14.72
  -2  12   2  246.51   13.31
   1 -12  -2   28.66    5.79
   1 -12  -2   25.98    5.15
  -1  12   2   22.54    4.58
   0 -12  -2   50.70    6.91
   0 -12  -2   63.12    8.35
   0  12   2   58.92    7.08
  -1 -12  -2  166.12   11.22
  -1 -12  -2  147.24   10.27
   1  12   2  147.07    9.81
  -2 -12  -2  132.41    9.59
  -2 -12  -2  131.61   10.02
   2  12   2  136.42    9.62
  -3 -12  -2   72.05    8.36
  -3 -12  -2   88.12    9.67
   3  12   2   79.88    8.53
   0  11  -3   13.61    4.28
   0 -11   3   12.54    4.29
   0 -11   3   12.92    4.85
   3  10  -3  158.33   11.46
  -3 -10   3  161.42   11.51
  -3 -10   3  149.98   11.70
   2  10  -3    4.38    2.50
  -2 -10   3    2.22    2.75
  -2 -10   3    1.38    2.21
   1  10  -3  125.57    9.41
  -1 -10   3  118.94    9.71
  -1 -10   3  128.83   10.29
   0  10  -3  408.26   18.43
   0 -10   3  397.99   19.46
   0 -10   3  403.19   19.07
  -1  10  -3    3.75    2.98
  -1  10  -3    2.59    2.60
   1 -10   3    7.32    3.18
   1 -10   3    6.54    3.35
  -2  10  -3   13.85    4.59
  -2  10  -3    8.34    3.05
   2 -10   3    6.96    3.25
   2 -10   3    4.55    3.00
  -3  10  -3  170.75   10.90
  -3  10  -3  184.22   13.43
   3 -10   3  191.40   12.51
   4   9  -3    3.99    2.64
  -4  -9   3    8.85    3.28
  -4  -9   3    3.64    2.80
   3   9  -3   41.16    6.31
  -3  -9   3   40.58    6.28
  -3  -9   3   38.50    6.38
   2   9  -3   40.81    6.30
  -2  -9   3   47.97    7.18
  -2  -9   3   46.21    6.65
   1   9  -3   23.12    4.49
  -1  -9   3   32.97    5.78
  -1  -9   3   26.77    5.12
   0   9  -3  292.84   14.08
   0   9  -3  290.87   15.28
   0  -9   3  268.97   14.35
   0  -9   3  289.45   15.10
  -1   9  -3  410.71   17.69
  -1   9  -3  433.44   19.87
   1  -9   3  422.72   19.37
   1  -9   3  448.41   19.23
  -2   9  -3   90.78    8.50
  -2   9  -3  115.18    9.65
   2  -9   3  109.02    8.99
   2  -9   3  100.62    8.41
  -3   9  -3   11.43    4.18
  -3   9  -3   12.76    3.52
   3  -9   3   15.25    4.12
   3  -9   3   18.76    4.77
  -4   9  -3  175.12   12.73
  -4   9  -3  189.72   10.79
   5   8  -3   94.37    9.71
  -5  -8   3  104.36    8.66
  -5  -8   3   82.55    9.55
   4   8  -3   72.29    8.23
  -4  -8   3   70.32    7.99
  -4  -8   3   71.97    8.63
   3   8  -3   19.62    4.26
  -3  -8   3   20.07    4.46
  -3  -8   3   15.52    4.14
   2   8  -3    3.57    2.12
  -2  -8   3    0.91    1.87
  -2  -8   3    2.21    1.87
   1   8  -3  635.22   24.28
   1   8  -3  641.65   23.36
  -1  -8   3  626.95   24.25
  -1  -8   3  674.04   24.26
   0   8  -3  315.31   14.08
   0   8  -3  297.83   15.06
   0  -8   3  326.30   14.91
   0  -8   3  315.51   15.19
  -1   8  -3  510.55   19.36
  -1   8  -3  533.19   21.49
   1  -8   3  520.68   20.60
   1  -8   3  500.40   20.81
  -2   8  -3  332.06   14.22
  -2   8  -3  326.91   16.31
   2  -8   3  330.97   15.71
   2  -8   3  322.83   15.28
  -3   8  -3   10.95    2.99
  -3   8  -3    8.32    3.30
   3  -8   3   16.03    4.04
   3  -8   3   10.99    2.48
   3  -8   3    9.84    3.03
  -4   8  -3  224.27   11.23
  -4   8  -3  228.09   13.78
  -5   8  -3  309.10   17.02
  -5   8  -3  308.36   13.89
  -6  -7   3   13.13    4.22
  -6  -7   3   13.19    4.24
   5   7  -3    7.97    3.31
  -5  -7   3   10.04    3.29
  -5  -7   3    7.95    3.41
   4   7  -3   71.93    7.98
  -4  -7   3   76.77    8.23
  -4  -7   3   85.21    8.47
   3   7  -3   59.73    7.01
  -3  -7   3   61.96    6.96
  -3  -7   3   53.09    6.23
   2   7  -3   37.56    5.26
   2   7  -3   45.54    5.74
  -2  -7   3   40.25    5.42
  -2  -7   3   45.60    5.85
   1   7  -3    3.79    2.00
   1   7  -3    3.74    1.99
  -1  -7   3    3.85    2.04
  -1  -7   3    4.93    2.22
   0   7  -3  503.44   19.91
   0   7  -3  508.94   18.53
   0  -7   3  504.22   19.19
   0  -7   3  485.55   18.65
   0  -7   3  510.82   19.73
  -1   7  -3    6.23    2.05
  -1   7  -3    0.93    1.80
   1  -7   3    3.21    2.00
   1  -7   3    2.75    1.42
   1  -7   3    4.37    2.18
  -2   7  -3  126.11    7.46
  -2   7  -3  132.64    9.06
   2  -7   3  125.90    7.03
   2  -7   3  120.67    8.37
   2  -7   3  122.45    8.15
  -3   7  -3   54.98    7.17
  -3   7  -3   46.92    5.08
   3  -7   3   47.66    5.93
   3  -7   3   67.62    7.40
   3  -7   3   49.49    3.96
  -4   7  -3   14.99    4.17
  -4   7  -3   13.01    2.82
   4  -7   3   13.61    3.34
  -5   7  -3   17.14    4.45
  -5   7  -3   15.13    3.26
  -6   7  -3  184.04   12.51
  -6  -6   3   61.83    7.61
  -6  -6   3   69.12    7.97
   5   6  -3   -0.96    1.46
  -5  -6   3    1.69    1.49
  -5  -6   3    2.04    1.92
   4   6  -3   43.58    5.80
  -4  -6   3   31.47    4.80
  -4  -6   3   39.81    5.60
  -4  -6   3   35.18    5.81
   3   6  -3    9.08    2.74
  -3  -6   3    9.30    3.19
  -3  -6   3   10.07    2.90
  -3  -6   3    7.63    2.56
   2   6  -3   10.18    2.77
   2   6  -3    9.45    2.49
  -2  -6   3   12.18    2.95
  -2  -6   3   10.77    3.11
  -2  -6   3    9.44    2.73
  -2  -6   3    9.73    2.06
   1   6  -3    7.66    2.49
   1   6  -3    7.76    2.20
   1   6  -3    5.74    2.49
  -1  -6   3    8.97    2.56
  -1  -6   3   13.30    3.10
  -1  -6   3   10.94    2.25
   0   6  -3  751.29   27.70
   0   6  -3  816.43   26.88
   0   6  -3  775.91   25.10
   0  -6   3  805.14   26.03
   0  -6   3  815.91   24.60
   0  -6   3  850.24   26.84
   0  -6   3  751.90   27.26
  -1   6  -3  868.04   27.48
  -1   6  -3  759.96   27.15
  -1   6  -3  785.63   24.83
  -1   6  -3  751.42   27.72
   1  -6   3  769.88   27.12
   1  -6   3  810.02   26.44
   1  -6   3  793.08   25.99
   1  -6   3  784.26   24.26
  -2   6  -3    1.50    1.72
  -2   6  -3    2.93    1.56
  -2   6  -3    0.55    1.19
  -2   6  -3   -0.62    1.38
   2  -6   3   -0.98    1.05
   2  -6   3    0.08    0.86
   2  -6   3    1.09    1.32
  -3   6  -3    1.04    1.31
  -3   6  -3    1.84    1.67
  -3   6  -3    3.23    2.22
   3  -6   3    1.40    0.98
   3  -6   3    0.98    1.37
   3  -6   3    2.14    1.64
  -4   6  -3   27.99    4.97
  -4   6  -3   30.67    5.27
  -4   6  -3   28.43    3.85
   4  -6   3   29.69    4.71
   4  -6   3   29.93    4.68
   4  -6   3   29.39    4.48
   4  -6   3   23.18    2.45
  -5   6  -3   10.13    3.39
  -5   6  -3    8.75    3.41
   5  -6   3    8.13    3.11
  -6   6  -3   13.42    4.14
  -6   6  -3   21.91    4.81
  -7   6  -3   87.97    9.83
  -7  -5   3    5.89    2.64
  -6  -5   3    1.29    2.10
  -5  -5   3   83.59    6.63
  -5  -5   3   68.65    7.27
  -5  -5   3   82.72    7.61
   4   5  -3   47.76    5.74
  -4  -5   3   47.78    5.89
  -4  -5   3   50.92    6.90
  -4  -5   3   50.31    6.00
  -4  -5   3   44.53    5.97
   3   5  -3   89.94    5.94
   3   5  -3   99.83    6.69
  -3  -5   3   98.23    6.57
  -3  -5   3   87.95    6.51
  -3  -5   3   97.60    7.38
  -3  -5   3   87.97    7.10
   2   5  -3  186.00    9.20
   2   5  -3  173.68    8.99
  -2  -5   3  188.68    9.50
  -2  -5   3  179.46    7.93
  -2  -5   3  184.45   10.17
  -2  -5   3  181.62    9.11
   1   5  -3  380.65   14.72
   1   5  -3  360.51   15.46
  -1  -5   3  373.47   14.53
  -1  -5   3  367.14   14.14
  -1  -5   3  342.53   12.70
   0   5  -3  242.37   11.16
   0   5  -3  252.81   10.30
   0   5  -3  235.56   11.40
   0   5  -3  226.45   11.73
   0  -5   3  261.63   10.99
   0  -5   3  234.51   11.63
   0  -5   3  255.92    9.85
   0  -5   3  264.67   11.31
  -1   5  -3   66.51    4.52
  -1   5  -3   61.11    5.34
  -1   5  -3   58.65    5.60
  -1   5  -3   64.95    5.37
   1  -5   3   61.86    5.02
   1  -5   3   60.32    4.14
   1  -5   3   68.69    5.04
   1  -5   3   61.62    5.34
  -2   5  -3  779.56   27.02
  -2   5  -3  796.10   26.53
  -2   5  -3  827.67   24.42
  -2   5  -3  827.18   27.86
   2  -5   3  842.06   26.19
   2  -5   3  781.33   25.53
   2  -5   3  817.58   23.90
  -3   5  -3    7.53    2.58
  -3   5  -3   11.88    3.08
  -3   5  -3    3.89    1.44
  -3   5  -3   10.11    2.81
   3  -5   3    6.66    2.20
   3  -5   3    5.87    1.96
   3  -5   3    6.90    1.38
  -4   5  -3   41.82    6.09
  -4   5  -3   40.90    5.77
  -4   5  -3   29.09    4.64
   4  -5   3   33.45    4.60
   4  -5   3   40.49    4.64
   4  -5   3   38.79    2.24
   4  -5   3   41.03    2.25
   4  -5   3   32.02    4.41
  -5   5  -3   18.58    3.86
  -5   5  -3   23.51    4.51
   5  -5   3   17.51    3.91
  -6   5  -3  202.87   12.41
  -6   5  -3  196.65   11.64
  -7   5  -3    8.12    3.17
  -7   5  -3    6.11    3.10
  -7  -4   3  143.88    9.89
  -6  -4   3   10.64    3.57
  -6  -4   3    9.84    3.19
  -5  -4   3 2226.62   66.10
  -5  -4   3 2340.66   64.08
  -5  -4   3 2294.21   64.44
   4   4  -3   64.50    4.25
   4   4  -3   71.53    7.02
  -4  -4   3   79.35    5.81
  -4  -4   3   58.35    6.91
  -4  -4   3   72.23    5.76
  -4  -4   3   67.13    6.21
   3   4  -3    6.78    2.11
   3   4  -3    3.13    1.47
  -3  -4   3    5.00    2.03
  -3  -4   3    5.60    1.85
  -3  -4   3    5.78    2.30
  -3  -4   3    4.54    1.93
   2   4  -3   33.05    4.41
   2   4  -3   33.46    4.12
   2   4  -3   43.08    4.73
  -2  -4   3   33.72    3.97
  -2  -4   3   38.44    3.06
  -2  -4   3   42.02    5.36
  -2  -4   3   30.20    3.92
   1   4  -3  240.87    9.80
   1   4  -3  226.52   11.09
   1   4  -3  251.16   10.60
  -1  -4   3  244.07    9.14
  -1  -4   3  232.34   10.28
  -1  -4   3  235.08    9.99
   0   4  -3  373.72   14.97
   0   4  -3  364.28   14.36
   0   4  -3  379.48   13.07
   0   4  -3  358.82   13.92
   0  -4   3  365.02   13.48
   0  -4   3  366.42   12.52
   0  -4   3  395.34   14.88
   0  -4   3  360.29   13.68
  -1   4  -3  875.03   27.75
  -1   4  -3  901.85   25.56
  -1   4  -3  880.25   26.01
  -1   4  -3  927.57   28.59
  -1   4  -3  835.30   28.42
   1  -4   3  890.05   26.98
   1  -4   3  938.69   26.01
   1  -4   3  954.13   27.63
   1  -4   3  897.03   28.17
  -2   4  -3 2092.70   58.71
  -2   4  -3 2178.62   56.64
  -2   4  -3 2032.15   56.39
  -2   4  -3 2168.69   60.03
   2  -4   3 2196.33   58.00
   2  -4   3 2102.63   58.24
   2  -4   3 2219.26   56.14
  -3   4  -3  135.00    6.29
  -3   4  -3  150.43    8.62
  -3   4  -3  142.08    6.49
  -3   4  -3  132.37    8.09
  -3   4  -3  145.82    8.01
   3  -4   3  150.35    7.34
   3  -4   3  133.21    5.32
   3  -4   3  145.50    7.51
   3  -4   3  136.02    5.23
  -4   4  -3   28.16    3.24
  -4   4  -3   39.36    4.83
  -4   4  -3   41.37    5.53
  -4   4  -3   36.09    4.85
   4  -4   3   31.94    4.06
   4  -4   3   37.17    4.77
   4  -4   3   34.95    4.03
  -5   4  -3  845.98   28.35
  -5   4  -3  794.97   27.75
  -5   4  -3  811.86   27.27
   5  -4   3  813.11   28.06
  -6   4  -3   28.88    4.91
  -6   4  -3   34.11    5.10
   6  -4   3   22.65    4.68
  -7   4  -3   36.26    5.77
  -7   4  -3   46.92    6.53
  -8   4  -3    0.31    1.91
  -8   4  -3   -1.41    1.86
  -7  -3   3   34.52    5.54
  -6  -3   3 1175.72   38.96
  -6  -3   3 1190.50   37.43
  -5  -3   3 3012.79   89.16
  -5  -3   3 3045.31   84.50
  -5  -3   3 3083.93   82.83
   4   3  -3  789.29   23.06
   4   3  -3  736.27   23.31
  -4  -3   3  811.61   27.43
  -4  -3   3  807.76   25.30
  -4  -3   3  785.26   26.80
  -4  -3   3  815.73   25.67
   3   3  -3  239.31    9.72
   3   3  -3  247.64   10.56
  -3  -3   3  255.29   11.50
  -3  -3   3  246.14   11.53
  -3  -3   3  228.10   10.09
  -3  -3   3  235.82   10.47
   2   3  -3   15.76    3.06
   2   3  -3   18.19    2.94
   2   3  -3   18.06    2.83
  -2  -3   3   24.75    3.45
  -2  -3   3   15.89    2.18
  -2  -3   3   20.12    3.21
  -2  -3   3   16.65    3.19
  -2  -3   3   23.23    3.22
   1   3  -3  348.60   12.21
   1   3  -3  351.02   13.57
   1   3  -3  322.52   12.49
  -1  -3   3  356.01   12.48
  -1  -3   3  337.94   11.39
  -1  -3   3  346.78   12.67
   0   3  -3  848.42   24.94
   0   3  -3  904.41   27.30
   0   3  -3  867.28   24.15
   0   3  -3  897.85   26.27
   0  -3   3  844.74   25.50
   0  -3   3  890.33   26.86
   0  -3   3  827.92   25.76
   0  -3   3  884.32   24.69
  -1   3  -3 1218.43   36.18
  -1   3  -3 1200.23   33.67
  -1   3  -3 1257.44   35.52
  -1   3  -3 1249.87   33.58
   1  -3   3 1259.46   35.06
   1  -3   3 1223.94   34.72
   1  -3   3 1241.05   33.56
   1  -3   3 1270.99   35.85
  -2   3  -3  212.75    8.00
  -2   3  -3  211.94    7.89
  -2   3  -3  226.78    9.48
  -2   3  -3  212.62    9.67
  -2   3  -3  215.57    9.78
   2  -3   3  221.21    7.50
   2  -3   3  218.22    9.02
   2  -3   3  219.99    8.84
  -3   3  -3   70.17    3.95
  -3   3  -3   73.16    5.34
  -3   3  -3   71.89    4.99
  -3   3  -3   67.36    5.09
   3  -3   3   67.10    4.55
   3  -3   3   66.01    2.72
   3  -3   3   67.27    4.49
   3  -3   3   61.88    4.20
   3  -3   3   68.79    2.69
  -4   3  -3  206.81    9.54
  -4   3  -3  214.52   10.07
  -4   3  -3  192.88    7.76
  -4   3  -3  198.86    9.81
   4  -3   3  187.35    8.37
   4  -3   3  207.63    8.39
   4  -3   3  209.46    9.88
  -5   3  -3  410.17   15.61
  -5   3  -3  389.09   15.94
  -5   3  -3  405.04   16.23
   5  -3   3  420.66   16.98
  -6   3  -3   20.11    3.95
  -6   3  -3   19.19    3.82
  -6   3  -3   12.82    3.08
   6  -3   3   15.67    3.86
  -7   3  -3   -0.56    1.80
  -7   3  -3   -0.28    1.34
  -7   3  -3    0.38    1.38
  -8   3  -3   66.58    7.72
  -8   3  -3   84.37    7.87
  -8  -2   3    6.97    2.94
  -7  -2   3  250.48   13.06
  -6  -2   3  142.24    9.56
  -6  -2   3  141.64    8.90
  -5  -2   3 1101.32   34.50
  -5  -2   3 1130.34   31.37
  -5  -2   3 1162.46   36.04
  -5  -2   3 1114.21   36.81
   4   2  -3  135.46    6.01
   4   2  -3  141.13    6.37
  -4  -2   3  128.41    7.42
  -4  -2   3  134.40    8.11
  -4  -2   3  145.06    8.71
   3   2  -3  502.54   16.93
  -3  -2   3  574.36   17.04
  -3  -2   3  559.09   18.20
  -3  -2   3  549.88   17.88
  -3  -2   3  526.39   18.96
  -3  -2   3  518.55   18.74
   2   2  -3  987.14   28.42
   2   2  -3  988.67   28.58
   2   2  -3  976.32   29.22
  -2  -2   3  973.47   28.83
  -2  -2   3  957.78   29.81
  -2  -2   3 1027.51   28.73
  -2  -2   3  997.03   29.11
  -2  -2   3  992.21   27.28
   1   2  -3  253.45   10.35
   1   2  -3  243.68    9.16
   1   2  -3  249.63    9.62
   1   2  -3  254.87    8.08
  -1  -2   3  247.22    8.66
  -1  -2   3  234.34    9.24
  -1  -2   3  244.78    9.57
   0   2  -3   18.72    3.00
   0   2  -3   21.81    1.88
   0   2  -3   19.09    2.26
   0   2  -3   22.59    3.02
   0  -2   3   17.78    2.86
   0  -2   3   16.06    2.35
   0  -2   3   19.53    2.45
  -1   2  -3  404.50   13.73
  -1   2  -3  443.36   14.53
  -1   2  -3  458.25   13.31
  -1   2  -3  431.70   15.00
  -1   2  -3  440.74   13.24
   1  -2   3  458.29   14.88
   1  -2   3  441.42   13.12
   1  -2   3  450.92   14.32
   1  -2   3  428.69   13.94
  -2   2  -3 3326.90   86.82
  -2   2  -3 3344.29   88.61
  -2   2  -3 3359.74   87.96
  -2   2  -3 3407.65   89.41
  -2   2  -3 3332.30   87.10
   2  -2   3 3413.21   86.77
   2  -2   3 3562.53   88.11
   2  -2   3 3339.49   88.22
   2  -2   3 3831.36   91.69
  -3   2  -3    3.74    1.00
  -3   2  -3   12.38    2.09
  -3   2  -3    3.91    1.47
  -3   2  -3    3.89    1.40
  -3   2  -3    5.75    1.84
   3  -2   3    4.10    1.35
   3  -2   3    6.50    1.70
   3  -2   3    4.22    1.28
  -4   2  -3  253.45    9.97
  -4   2  -3  232.13    8.77
  -4   2  -3  242.59    9.25
  -4   2  -3  228.78    9.42
  -4   2  -3  254.93   10.44
  -4   2  -3  250.29   10.45
   4  -2   3  240.53   10.73
  -5   2  -3  719.11   22.49
  -5   2  -3  710.86   23.08
  -5   2  -3  713.05   23.07
  -5   2  -3  663.77   21.21
   5  -2   3  695.32   19.31
   5  -2   3  693.18   24.25
  -6   2  -3  497.94   18.40
  -6   2  -3  499.68   18.48
  -6   2  -3  481.13   17.63
   6  -2   3  489.98   20.38
  -7   2  -3   26.92    4.12
  -7   2  -3   26.60    4.51
  -7   2  -3   31.39    4.80
  -8   2  -3   94.12    7.78
  -8   2  -3   93.15    7.16
  -8  -1   3  172.83   11.11
  -7  -1   3    0.52    2.57
  -7  -1   3    0.72    1.56
  -6  -1   3   23.53    4.18
  -6  -1   3   19.08    4.18
   5   1  -3   26.30    4.89
  -5  -1   3   23.37    2.73
  -5  -1   3   29.33    4.15
  -5  -1   3   19.78    4.07
  -5  -1   3   31.16    4.94
   4   1  -3 2179.58   57.35
   4   1  -3 2185.05   57.83
   4   1  -3 2182.18   61.88
  -4  -1   3 2224.07   57.15
  -4  -1   3 2241.57   61.25
  -4  -1   3 2173.82   61.52
  -4  -1   3 2178.63   59.97
   3   1  -3    4.49    1.68
   3   1  -3    4.56    1.32
   3   1  -3    4.95    1.83
   3   1  -3    6.59    1.60
  -3  -1   3    3.39    1.03
  -3  -1   3    4.91    1.68
  -3  -1   3    3.52    1.04
  -3  -1   3    4.94    1.59
  -3  -1   3    7.75    2.12
   2   1  -3  116.25    5.59
   2   1  -3  114.21    3.95
   2   1  -3  111.29    5.92
  -2  -1   3  116.44    5.94
  -2  -1   3  110.25    5.66
  -2  -1   3  113.88    4.98
  -2  -1   3  122.46    4.77
  -2  -1   3  110.88    6.29
  -2  -1   3  122.68    5.99
   1   1  -3  469.34   15.03
   1   1  -3  465.71   14.67
   1   1  -3  473.45   13.69
   1   1  -3  489.73   15.87
  -1  -1   3  496.72   14.29
  -1  -1   3  483.92   14.51
  -1  -1   3  467.28   13.71
  -1  -1   3  479.21   15.00
   0   1  -3  135.73    5.21
   0   1  -3  126.09    6.32
   0   1  -3  136.34    5.96
   0   1  -3  136.55    5.41
   0  -1   3  144.49    6.01
   0  -1   3  125.52    6.12
   0  -1   3  135.79    4.90
   0  -1   3  130.27    5.68
  -1   1  -3  269.76    9.16
  -1   1  -3  265.82    9.70
  -1   1  -3  271.20    8.43
  -1   1  -3  254.18    8.90
  -1   1  -3  265.53    8.28
  -1   1  -3  261.56    9.22
   1  -1   3  266.39    8.95
   1  -1   3  257.55    7.83
   1  -1   3  266.49    9.40
   1  -1   3  258.34    9.07
  -2   1  -3  160.15    6.76
  -2   1  -3  164.09    5.54
  -2   1  -3  162.53    6.46
  -2   1  -3  166.42    6.24
  -2   1  -3  160.44    6.34
  -2   1  -3  164.49    5.42
   2  -1   3  164.16    6.26
   2  -1   3  154.33    6.46
   2  -1   3  167.53    6.13
   2  -1   3  152.81    6.03
  -3   1  -3  552.46   16.27
  -3   1  -3  539.48   15.99
  -3   1  -3  548.63   16.46
  -3   1  -3  523.93   16.65
   3  -1   3  541.91   17.11
  -4   1  -3 4054.04  103.86
  -4   1  -3 4167.27  103.87
  -4   1  -3 4104.63  103.33
  -4   1  -3 3872.06  102.52
  -4   1  -3 4127.44  100.90
  -4   1  -3 3940.50  102.85
   4  -1   3 3970.99  100.70
   4  -1   3 4065.54  105.49
  -5   1  -3 2334.23   61.21
  -5   1  -3 2371.64   61.99
  -5   1  -3 2184.81   60.31
  -5   1  -3 2403.35   63.71
  -5   1  -3 2344.46   58.62
  -5   1  -3 2198.83   60.70
  -5   1  -3 2357.59   61.96
   5  -1   3 2261.00   64.43
  -6   1  -3   46.89    4.39
  -6   1  -3   52.65    6.38
  -6   1  -3   47.72    4.46
  -6   1  -3   45.77    4.75
  -6   1  -3   51.72    2.90
   6  -1   3   47.21    6.59
  -7   1  -3   36.91    4.72
  -7   1  -3   41.84    5.09
  -7   1  -3   44.08    5.13
  -8   1  -3   13.45    3.32
  -8   1  -3    6.03    2.24
  -8   1  -3    4.41    2.28
  -8   0   3    7.41    3.07
  -7   0   3   18.76    4.05
   6   0  -3  167.75   11.57
  -6   0   3  196.47   10.21
  -6   0   3  184.88   10.79
  -6   0   3  169.00    7.79
   5   0  -3  151.56    6.32
   5   0  -3  150.93    9.73
  -5   0   3  146.77    8.90
  -5   0   3  156.17    6.72
  -5   0   3  146.08    9.30
  -5   0   3  166.98    8.69
   4   0  -3    2.62    1.51
   4   0  -3    2.96    1.13
   4   0  -3    3.34    1.10
  -4   0   3    2.31    1.40
  -4   0   3    1.12    0.98
  -4   0   3    2.60    1.44
  -4   0   3    3.65    1.88
   3   0  -3  820.55   24.70
   3   0  -3  852.25   24.21
   3   0  -3  843.30   26.18
   3   0  -3  818.31   23.74
  -3   0   3  837.37   26.02
  -3   0   3  836.22   25.30
  -3   0   3  841.65   23.20
  -3   0   3  858.37   23.78
  -3   0   3  836.97   25.86
   2   0  -3  542.42   16.94
   2   0  -3  575.57   15.65
   2   0  -3  577.70   18.02
   2   0  -3  570.59   17.37
   2   0  -3  589.25   18.15
  -2   0   3  587.04   18.02
  -2   0   3  592.60   16.33
  -2   0   3  555.94   18.48
  -2   0   3  578.48   17.80
   1   0  -3 2035.99   57.15
   1   0  -3 2230.15   56.84
   1   0  -3 2274.15   58.39
   1   0  -3 2231.43   57.50
   1   0  -3 2221.13   59.93
  -1   0   3 2204.78   56.17
  -1   0   3 2218.15   57.70
  -1   0   3 2220.48   56.76
   0   0  -3 2690.54   72.29
   0   0  -3 2785.38   70.37
   0   0  -3 2710.02   70.96
   0   0  -3 2828.61   75.16
   0   0  -3 2847.90   73.16
   0   0  -3 2724.41   71.61
   0   0   3 2796.20   70.67
   0   0   3 2767.98   71.00
   0   0   3 2728.12   72.05
   0   0   3 2811.92   71.69
  -1   0  -3 2219.19   58.93
  -1   0  -3 2238.80   55.67
  -1   0  -3 2144.73   59.75
  -1   0  -3 2218.90   56.66
  -1   0  -3 2124.97   56.38
  -1   0  -3 2230.00   56.20
   1   0   3 2241.85   56.69
   1   0   3 2253.14   55.65
   1   0   3 2165.29   56.42
   1   0   3 2195.69   55.59
   1   0   3 2181.34   55.52
  -2   0  -3 3665.68   92.38
  -2   0  -3 3701.15   95.83
  -2   0  -3 3729.20   97.57
  -2   0  -3 3735.69   96.20
  -2   0  -3 3617.25   95.50
  -2   0  -3 3631.81   93.35
  -2   0  -3 3615.37   95.40
   2   0   3 3773.19   95.08
   2   0   3 3793.87   94.25
  -3   0  -3 1896.80   50.67
  -3   0  -3 1886.01   49.23
  -3   0  -3 1914.13   49.15
  -3   0  -3 1923.52   49.37
  -3   0  -3 1901.80   48.96
   3   0   3 1922.55   51.08
  -4   0  -3 6062.96  151.81
  -4   0  -3 5840.25  151.33
  -4   0  -3 6212.02  153.84
  -4   0  -3 5895.16  154.97
  -4   0  -3 5955.45  153.62
   4   0   3 6135.63  154.35
  -5   0  -3   14.38    1.91
  -5   0  -3   14.97    2.21
  -5   0  -3   19.40    2.60
  -5   0  -3   15.31    2.33
  -5   0  -3   15.43    3.16
  -5   0  -3   16.04    2.13
   5   0   3   11.99    3.03
  -6   0  -3 1616.27   47.74
  -6   0  -3 1540.35   40.53
  -6   0  -3 1614.50   44.14
  -6   0  -3 1617.39   44.61
  -6   0  -3 1609.41   43.60
   6   0   3 1608.71   48.85
  -7   0  -3   39.91    4.75
  -7   0  -3   33.58    3.99
  -7   0  -3   35.11    4.22
   7   0   3   33.40    6.99
  -8   0  -3   15.04    3.21
  -8   0  -3   14.48    2.91
  -8   0  -3   12.29    3.22
  -8   1   3   37.42    6.15
  -7   1   3    6.52    2.79
   6  -1  -3   39.74    6.51
  -6   1   3   49.27    5.93
  -6   1   3   37.62    3.95
  -6   1   3   37.36    5.38
   5  -1  -3   57.61    3.93
   5  -1  -3   55.19    3.63
   5  -1  -3   58.62    7.03
  -5   1   3   55.48    5.33
  -5   1   3   60.16    6.64
  -5   1   3   54.56    3.68
  -5   1   3   54.67    5.86
   4  -1  -3  167.36    9.29
   4  -1  -3  168.69    7.05
   4  -1  -3  175.27    7.36
  -4   1   3  180.75    8.61
  -4   1   3  171.37    6.85
  -4   1   3  163.54    8.92
  -4   1   3  174.50    9.06
   3  -1  -3 2336.44   62.60
   3  -1  -3 2491.78   62.42
   3  -1  -3 2361.66   63.32
   3  -1  -3 2337.74   64.72
  -3   1   3 2420.49   64.46
  -3   1   3 2391.94   61.68
  -3   1   3 2406.35   63.83
  -3   1   3 2401.30   64.73
   2  -1  -3  271.33    9.43
   2  -1  -3  263.20   10.13
   2  -1  -3  275.09    8.48
   2  -1  -3  277.65    8.64
   2  -1  -3  277.79    9.70
   2  -1  -3  295.27   10.49
  -2   1   3  273.23   10.01
  -2   1   3  278.57   10.27
  -2   1   3  285.01    8.89
  -2   1   3  280.02   10.81
   1  -1  -3 1816.15   45.08
   1  -1  -3 1788.72   46.26
   1  -1  -3 1774.63   47.01
   1  -1  -3 1700.20   45.87
   1  -1  -3 1765.24   45.73
  -1   1   3 1779.06   45.52
  -1   1   3 1725.31   46.48
  -1   1   3 1725.92   47.13
  -1   1   3 1733.68   45.02
   0  -1  -3 5346.14  139.23
   0  -1  -3 5453.06  136.83
   0  -1  -3 5450.25  145.97
   0  -1  -3 5335.46  138.82
   0   1   3 5364.81  142.75
   0   1   3 5299.56  136.63
   0   1   3 5182.01  137.66
  -1  -1  -3 1180.75   31.01
  -1  -1  -3 1146.95   30.93
  -1  -1  -3 1196.88   30.04
  -1  -1  -3 1182.33   31.30
   1   1   3 1156.76   30.16
   1   1   3 1198.59   30.74
  -2  -1  -3   40.89    1.95
  -2  -1  -3   43.52    1.87
  -2  -1  -3   44.37    2.67
  -2  -1  -3   43.36    2.03
  -3  -1  -3  260.22    7.50
  -3  -1  -3  267.77    7.64
  -3  -1  -3  261.98    9.90
  -3  -1  -3  262.59    7.55
   3   1   3  275.33   10.12
  -4  -1  -3   61.73    2.82
  -4  -1  -3   67.47    2.70
  -4  -1  -3   66.17    2.82
  -4  -1  -3   67.47    2.76
  -4  -1  -3   77.58    5.12
   4   1   3   69.17    5.02
  -5  -1  -3    9.99    1.53
  -5  -1  -3    9.00    1.28
  -5  -1  -3    9.82    1.47
  -5  -1  -3   11.30    1.51
  -5  -1  -3    7.25    2.48
   5   1   3    9.39    2.70
  -6  -1  -3   31.52    4.79
  -6  -1  -3   27.23    2.80
  -6  -1  -3   32.53    2.82
  -6  -1  -3   29.73    2.39
  -6  -1  -3   35.20    2.80
   6   1   3   36.90    5.70
  -7  -1  -3   94.71    5.54
  -7  -1  -3   91.88    5.32
   7   1   3  104.54   12.20
  -8  -1  -3   42.91    4.85
  -8  -1  -3   46.40    5.28
  -8  -1  -3   38.54    4.46
  -8   2   3   14.27    4.41
  -8   2   3    6.44    3.49
  -7   2   3   49.92    6.50
  -6   2   3   20.15    2.90
  -6   2   3   21.43    4.26
  -6   2   3   25.46    4.52
   5  -2  -3  314.53   11.90
   5  -2  -3  332.50   11.65
   5  -2  -3  333.71   15.55
  -5   2   3  327.13   11.61
  -5   2   3  326.23   14.61
  -5   2   3  334.11   13.95
  -5   2   3  331.61   14.68
   4  -2  -3  128.39    5.99
   4  -2  -3  124.82    7.90
   4  -2  -3  125.55    6.28
  -4   2   3  127.64    7.71
  -4   2   3  129.08    7.58
  -4   2   3  126.97    7.15
  -4   2   3  125.18    5.68
   3  -2  -3   66.93    3.09
   3  -2  -3   67.28    5.01
   3  -2  -3   65.89    4.46
   3  -2  -3   68.77    4.02
   3  -2  -3   67.00    2.89
   3  -2  -3   75.94    4.37
  -3   2   3   66.91    4.65
  -3   2   3   71.44    3.71
  -3   2   3   66.76    4.71
  -3   2   3   63.70    4.88
   2  -2  -3  149.89    6.33
   2  -2  -3  138.90    6.60
   2  -2  -3  142.21    6.00
   2  -2  -3  148.15    6.83
   2  -2  -3  142.58    5.31
  -2   2   3  147.29    5.50
  -2   2   3  145.38    6.69
   1  -2  -3  633.76   18.90
   1  -2  -3  672.64   18.78
   1  -2  -3  630.45   19.59
   1  -2  -3  675.56   18.81
  -1   2   3  656.63   17.85
  -1   2   3  662.30   19.95
  -1   2   3  643.84   18.87
  -1   2   3  664.30   19.29
   0  -2  -3  229.37    8.30
   0  -2  -3  233.74    8.00
   0  -2  -3  230.32    7.64
   0  -2  -3  236.51    7.86
   0  -2  -3  238.45    6.95
   0   2   3  230.70    8.30
   0   2   3  225.79    7.81
  -1  -2  -3    2.89    0.84
  -1  -2  -3    3.95    0.94
  -1  -2  -3    0.13    0.62
   1   2   3    0.35    0.55
   1   2   3    4.50    0.80
  -2  -2  -3  252.06    8.98
  -2  -2  -3  249.23    6.87
  -2  -2  -3  263.47    6.92
   2   2   3  258.49    6.78
  -3  -2  -3  110.70    5.86
  -4  -2  -3   21.95    1.30
  -4  -2  -3   21.62    3.23
  -5  -2  -3  408.80   16.54
  -5  -2  -3  423.16   11.60
  -5  -2  -3  420.54   11.84
  -5  -2  -3  423.38   11.44
  -6  -2  -3  203.77    7.24
  -6  -2  -3  214.36   11.85
  -6  -2  -3  212.28    7.07
  -6  -2  -3  228.33    7.65
  -6  -2  -3  219.38    7.72
  -7  -2  -3   30.74    2.83
  -7  -2  -3   32.87    3.41
  -8  -2  -3   49.84    3.91
  -8  -2  -3   44.82    4.11
  -8   3   3    1.18    2.44
  -8   3   3    2.02    2.44
  -7   3   3   27.67    5.23
  -7   3   3   33.61    5.59
  -6   3   3   31.08    4.97
  -6   3   3   39.10    7.30
  -6   3   3   31.92    5.08
  -6   3   3   29.93    3.62
   5  -3  -3    3.15    1.30
   5  -3  -3    2.66    1.35
   5  -3  -3   -1.21    1.14
  -5   3   3    2.85    1.80
  -5   3   3    3.90    2.17
  -5   3   3   -0.19    0.92
   4  -3  -3  157.16    7.11
   4  -3  -3  153.73    9.06
   4  -3  -3  155.94    5.30
   4  -3  -3  153.42    7.38
  -4   3   3  160.21    6.65
  -4   3   3  149.04    8.19
  -4   3   3  144.96    8.59
   3  -3  -3  480.50   13.77
   3  -3  -3  474.33   15.46
   3  -3  -3  482.31   16.89
   3  -3  -3  440.67   15.89
   3  -3  -3  458.04   14.94
  -3   3   3  451.02   16.74
  -3   3   3  475.16   16.37
  -3   3   3  452.68   14.11
   2  -3  -3 1006.53   29.22
   2  -3  -3 1029.22   27.32
   2  -3  -3  994.58   28.64
   2  -3  -3  998.76   29.45
   2  -3  -3 1027.61   28.38
  -2   3   3 1016.99   27.31
  -2   3   3 1018.09   29.32
   1  -3  -3  760.74   20.82
   1  -3  -3  811.38   21.85
   1  -3  -3  748.08   22.73
   1  -3  -3  766.67   21.94
  -1   3   3  759.38   23.04
  -1   3   3  723.70   22.82
  -1   3   3  785.80   22.47
  -1   3   3  774.05   22.34
   0  -3  -3  348.29   10.92
   0  -3  -3  350.70   11.53
   0  -3  -3  330.94   10.65
   0  -3  -3  335.30   11.12
   0   3   3  341.05   10.75
   0   3   3  343.96   11.53
   0   3   3  360.81   11.44
   0   3   3  349.10   11.00
  -1  -3  -3  135.94    5.24
  -1  -3  -3  137.81    4.90
  -1  -3  -3  135.39    5.06
  -1  -3  -3  136.23    5.00
  -1  -3  -3  136.02    5.36
   1   3   3  138.52    4.90
   1   3   3  136.95    4.72
  -2  -3  -3  359.14   10.12
  -2  -3  -3  371.91   10.15
   2   3   3  372.38   10.20
  -3  -3  -3    7.59    1.97
   3   3   3    7.49    1.06
  -4  -3  -3   13.64    2.73
  -5  -3  -3    3.46    1.53
  -6  -3  -3  755.57   27.60
  -6  -3  -3  748.11   20.64
  -6  -3  -3  785.64   20.93
  -6  -3  -3  803.85   21.28
  -7  -3  -3  291.80   10.19
  -7  -3  -3  291.75   10.19
  -8  -3  -3   17.72    2.90
  -8  -3  -3   17.89    2.72
  -7   4   3   11.04    4.04
  -7   4   3   10.57    3.49
  -6   4   3   40.25    5.96
  -6   4   3   48.48    6.17
   5  -4  -3  246.64   10.15
   5  -4  -3  248.05   10.63
   5  -4  -3  230.95   12.83
  -5   4   3  250.07   12.14
  -5   4   3  242.01    9.55
  -5   4   3  230.88   11.63
  -5   4   3  236.18   12.62
  -5   4   3  227.02   12.62
   4  -4  -3  839.88   25.80
   4  -4  -3  853.80   23.12
   4  -4  -3  829.91   22.00
   4  -4  -3  794.36   28.32
   4  -4  -3  845.60   25.37
   4  -4  -3  837.98   22.18
   4  -4  -3  840.91   28.13
  -4   4   3  836.78   27.05
  -4   4   3  862.83   24.40
  -4   4   3  856.17   28.29
  -4   4   3  811.73   28.16
  -4   4   3  861.19   27.42
   3  -4  -3  928.21   25.65
   3  -4  -3  909.72   27.00
   3  -4  -3  916.39   28.45
   3  -4  -3  936.74   28.95
   3  -4  -3  953.99   27.70
  -3   4   3  898.51   25.94
  -3   4   3  943.76   28.63
  -3   4   3  929.35   28.33
  -3   4   3  935.46   29.57
   2  -4  -3  317.10   10.05
   2  -4  -3  312.22   11.33
   2  -4  -3  318.24   12.09
   2  -4  -3  289.20   10.80
  -2   4   3  301.10   12.49
  -2   4   3  315.32   12.51
  -2   4   3  295.65   11.57
   1  -4  -3 1085.95   28.90
   1  -4  -3 1032.20   30.08
   1  -4  -3 1125.58   31.24
  -1   4   3 1031.42   31.11
  -1   4   3 1073.48   31.38
  -1   4   3 1136.46   30.77
   0  -4  -3 9800.43  251.08
   0  -4  -3 9896.73  257.65
   0  -4  -3 9999.00  251.56
   0  -4  -3 9859.87  259.19
   0   4   3 9643.55  256.66
   0   4   3 9467.46  253.85
   0   4   3 9686.63  252.96
  -1  -4  -3    6.34    1.32
  -1  -4  -3    6.02    1.24
  -1  -4  -3    6.00    1.42
  -1  -4  -3    6.03    1.41
  -1  -4  -3    5.87    1.19
   1   4   3    6.39    1.33
   1   4   3    5.57    1.16
  -2  -4  -3  215.87    7.14
  -2  -4  -3  213.70    7.16
  -2  -4  -3  198.82    6.94
  -2  -4  -3  213.63    6.86
  -2  -4  -3  213.06    6.72
   2   4   3  214.57    6.94
  -3  -4  -3  157.58    4.99
  -3  -4  -3  156.92    4.85
  -3  -4  -3  154.01    5.10
   3   4   3  156.59    5.71
  -4  -4  -3  134.94    8.01
  -4  -4  -3  136.83    4.27
   4   4   3  140.54    5.54
  -5  -4  -3   17.23    1.19
  -5  -4  -3   10.28    3.13
  -5  -4  -3   14.83    1.20
  -6  -4  -3  125.89    4.82
  -6  -4  -3  129.82    4.98
  -6  -4  -3  128.56    4.93
  -7  -4  -3   10.08    1.87
  -7  -4  -3   14.86    2.20
  -8  -4  -3  135.74    7.10
  -8  -4  -3  133.39    6.54
  -7   5   3  489.12   21.58
  -7   5   3  569.51   34.91
  -6   5   3   17.52    4.57
  -6   5   3   20.68    4.50
   5  -5  -3   41.58    5.03
   5  -5  -3   42.57    6.41
   5  -5  -3   37.86    4.48
  -5   5   3   41.85    5.49
  -5   5   3   40.57    5.93
   4  -5  -3  491.03   18.69
   4  -5  -3  489.59   17.72
   4  -5  -3  510.24   14.66
   4  -5  -3  502.86   19.83
   4  -5  -3  517.75   15.33
   4  -5  -3  511.47   17.25
  -4   5   3  495.10   18.83
  -4   5   3  494.79   19.69
  -4   5   3  485.67   19.77
   3  -5  -3 2270.90   61.66
   3  -5  -3 2180.84   61.42
   3  -5  -3 2214.64   57.87
   3  -5  -3 2256.22   59.65
   3  -5  -3 2263.62   60.19
  -3   5   3 2136.33   62.10
  -3   5   3 2253.66   61.10
  -3   5   3 2121.36   61.94
   2  -5  -3  518.06   16.28
   2  -5  -3  503.50   14.97
   2  -5  -3  477.19   16.45
   2  -5  -3  463.30   17.18
  -2   5   3  502.05   17.84
  -2   5   3  484.33   16.88
  -2   5   3  476.10   17.71
   1  -5  -3 7299.40  192.37
   1  -5  -3 7145.94  183.52
   1  -5  -3 7222.40  189.36
   1  -5  -3 7069.73  186.46
  -1   5   3 7232.99  186.28
  -1   5   3 7192.99  189.28
   0  -5  -3   58.02    4.13
   0  -5  -3   61.55    3.68
   0  -5  -3   54.77    3.73
   0  -5  -3   56.56    4.25
   0   5   3   52.43    4.00
   0   5   3   63.09    4.19
   0   5   3   59.71    3.94
  -1  -5  -3  284.16   10.36
  -1  -5  -3  308.90   10.32
  -1  -5  -3  310.96   10.87
  -1  -5  -3  303.27   10.00
  -1  -5  -3  293.29   10.89
   1   5   3  303.37   10.22
   1   5   3  296.54   10.30
  -2  -5  -3  390.29   12.57
  -2  -5  -3  406.98   12.81
  -2  -5  -3  391.19   11.91
  -2  -5  -3  377.47   12.39
  -2  -5  -3  389.95   12.16
   2   5   3  390.94   11.22
   2   5   3  410.81   12.19
  -3  -5  -3   17.39    2.10
  -3  -5  -3   16.75    1.82
  -3  -5  -3   16.02    1.69
  -3  -5  -3   12.06    1.70
  -3  -5  -3   16.36    1.87
   3   5   3   16.73    2.08
  -4  -5  -3   59.93    3.15
  -4  -5  -3   57.38    2.86
  -4  -5  -3   66.93    5.62
  -4  -5  -3   61.74    2.79
  -4  -5  -3   57.36    3.06
  -4  -5  -3   61.09    2.97
   4   5   3   60.60    3.66
  -5  -5  -3  300.96    9.36
  -5  -5  -3  300.89    9.74
  -5  -5  -3  303.47    9.48
  -5  -5  -3  328.94   15.06
  -5  -5  -3  315.89    9.32
   5   5   3  304.60   10.89
  -6  -5  -3   53.09    3.27
  -6  -5  -3   49.55    3.06
  -6  -5  -3   51.08    2.98
  -7  -5  -3  301.51   10.94
  -7  -5  -3  295.46   10.37
  -8  -5  -3   49.13    3.93
  -8  -5  -3   50.97    4.32
  -7   6   3    3.86    2.84
  -6   6   3  133.40    9.64
   5  -6  -3  138.06   14.52
   5  -6  -3  154.18    8.30
  -5   6   3  133.80    9.88
  -5   6   3  142.80    9.41
   4  -6  -3   51.50    6.41
   4  -6  -3   63.00    5.27
   4  -6  -3   57.20    5.71
   4  -6  -3   65.22    3.99
   4  -6  -3   59.58    3.62
  -4   6   3   61.61    6.71
  -4   6   3   75.42    6.52
   3  -6  -3  502.79   16.99
   3  -6  -3  471.32   17.37
   3  -6  -3  473.41   18.49
   3  -6  -3  499.23   15.40
  -3   6   3  477.92   18.94
  -3   6   3  483.98   19.02
  -3   6   3  460.46   17.89
   2  -6  -3  105.24    5.97
   2  -6  -3   91.97    6.58
   2  -6  -3  112.50    5.19
   2  -6  -3  105.30    6.26
  -2   6   3   91.94    6.65
  -2   6   3  107.56    6.59
  -2   6   3   90.32    6.58
   1  -6  -3   50.79    4.02
   1  -6  -3   41.84    4.83
   1  -6  -3   26.66    3.73
   1  -6  -3   43.91    3.56
  -1   6   3   43.62    4.78
  -1   6   3   47.73    5.46
  -1   6   3   42.56    4.07
   0  -6  -3 4214.69  108.13
   0  -6  -3 4278.29  109.31
   0  -6  -3 4181.88  109.61
   0  -6  -3 4256.80  107.71
   0   6   3 4224.02  108.46
   0   6   3 4039.75  108.85
  -1  -6  -3  229.69    8.90
  -1  -6  -3  220.80    9.35
  -1  -6  -3  222.28    8.51
  -1  -6  -3  221.64    9.59
   1   6   3  221.13    8.70
  -2  -6  -3   30.84    2.68
  -2  -6  -3   38.21    3.24
  -2  -6  -3   31.66    2.89
  -2  -6  -3   37.87    3.05
  -2  -6  -3   32.91    2.60
   2   6   3   30.64    2.37
   2   6   3   30.47    3.04
  -3  -6  -3  563.51   17.43
  -3  -6  -3  615.89   18.16
  -3  -6  -3  599.44   18.01
  -3  -6  -3  602.70   18.40
  -3  -6  -3  569.30   17.13
   3   6   3  585.25   17.97
  -4  -6  -3   87.74    4.69
  -4  -6  -3   96.37    4.65
  -4  -6  -3   95.99    4.91
  -4  -6  -3  103.33    5.25
  -4  -6  -3   98.40    4.49
   4   6   3  103.91    5.35
  -5  -6  -3  260.74   13.64
  -5  -6  -3  224.81    8.75
  -5  -6  -3  238.83    8.55
  -5  -6  -3  244.23    9.22
  -5  -6  -3  234.07    8.77
  -5  -6  -3  231.82    8.25
   5   6   3  234.80    9.57
  -6  -6  -3  279.56    9.87
  -6  -6  -3  269.98   10.53
  -6  -6  -3  277.44    9.62
  -7  -6  -3  248.85    9.71
  -7  -6  -3  240.82   10.30
  -7  -6  -3  267.20    9.63
  -8  -6  -3   25.24    3.41
  -8  -6  -3   19.01    3.38
  -7   7   3  165.55   12.03
  -6   7   3  285.31   15.37
   5  -7  -3  224.82   11.25
  -5   7   3  242.22   13.16
   4  -7  -3   11.99    3.51
   4  -7  -3    9.64    2.84
   4  -7  -3   13.16    3.08
   4  -7  -3    9.50    1.85
   4  -7  -3   11.24    2.17
  -4   7   3   12.46    3.24
  -4   7   3    6.30    2.56
   3  -7  -3   87.02    6.24
   3  -7  -3   76.89    6.60
   3  -7  -3   85.07    5.94
   3  -7  -3   81.10    4.82
  -3   7   3   74.97    9.35
  -3   7   3   74.68    6.85
  -3   7   3   89.92    6.72
   2  -7  -3    1.97    1.16
   2  -7  -3   -0.30    0.73
   2  -7  -3    0.46    0.99
   2  -7  -3    0.50    1.19
   2  -7  -3   -0.30    1.00
  -2   7   3    0.55    1.30
  -2   7   3    0.91    1.42
   1  -7  -3    7.29    1.96
   1  -7  -3    8.09    2.24
   1  -7  -3    8.84    2.55
   1  -7  -3    6.59    2.42
  -1   7   3    5.47    2.08
  -1   7   3    6.58    1.98
   0  -7  -3  112.54    7.24
   0  -7  -3  127.02    6.92
   0  -7  -3  129.09    6.59
   0  -7  -3  116.29    7.43
   0   7   3  127.04    7.04
   0   7   3  134.16    7.57
  -1  -7  -3 1153.32   32.47
  -1  -7  -3 1098.77   33.43
  -1  -7  -3 1141.90   31.82
  -1  -7  -3 1103.52   33.59
   1   7   3 1078.36   32.11
  -2  -7  -3  459.64   14.91
  -2  -7  -3  444.38   16.12
  -2  -7  -3  447.15   16.18
  -2  -7  -3  480.64   21.10
  -2  -7  -3  434.98   15.10
   2   7   3  473.81   15.13
  -3  -7  -3  506.27   17.12
  -3  -7  -3  499.89   16.08
  -3  -7  -3  512.17   16.96
  -3  -7  -3  497.94   15.75
  -3  -7  -3  445.68   16.11
   3   7   3  500.57   16.30
  -4  -7  -3  360.92   13.57
  -4  -7  -3  379.24   12.52
  -4  -7  -3  363.31   13.38
  -4  -7  -3  369.42   12.78
   4   7   3  376.66   13.48
  -5  -7  -3    2.43    1.15
  -5  -7  -3    1.69    1.21
  -5  -7  -3    1.84    1.14
  -5  -7  -3    0.96    0.98
   5   7   3   -0.12    1.09
  -6  -7  -3   50.14    3.77
  -6  -7  -3   54.61    4.05
  -6  -7  -3   48.98    4.21
   6   7   3   42.34    4.90
  -7  -7  -3  225.90   10.41
  -7  -7  -3  224.14    9.31
  -7  -7  -3  225.18    9.59
  -6   8   3    3.14    2.79
   5  -8  -3  322.69   20.27
   5  -8  -3  325.50   10.51
  -5   8   3  322.97   16.45
   4  -8  -3   55.86    4.13
   4  -8  -3   62.43    4.49
   4  -8  -3   51.47    6.00
   4  -8  -3   54.41    6.43
  -4   8   3   50.04    6.64
   3  -8  -3    0.88    1.46
   3  -8  -3    1.42    1.13
   3  -8  -3    1.50    1.14
   3  -8  -3   -0.09    1.31
  -3   8   3    2.68    2.23
   2  -8  -3   19.82    3.43
   2  -8  -3   17.18    2.65
   2  -8  -3   17.46    4.19
   2  -8  -3   22.95    3.98
  -2   8   3   18.85    4.11
  -2   8   3   20.09    4.13
   1  -8  -3    6.44    2.57
   1  -8  -3    9.75    2.57
   1  -8  -3    9.42    2.68
   1  -8  -3   13.45    2.94
  -1   8   3   12.28    2.87
  -1   8   3    9.25    2.61
   0  -8  -3  740.03   25.24
   0  -8  -3  751.54   23.39
   0  -8  -3  728.64   25.46
   0  -8  -3  699.75   23.67
   0   8   3  712.36   24.76
   0   8   3  712.43   23.99
  -1  -8  -3 1025.42   30.25
  -1  -8  -3 1039.30   32.45
  -1  -8  -3  956.12   31.69
  -1  -8  -3 1030.97   30.82
   1   8   3 1022.95   30.65
  -2  -8  -3 2688.24   74.50
  -2  -8  -3 2763.53   72.60
  -2  -8  -3 2773.82   74.51
  -2  -8  -3 2724.63   73.04
   2   8   3 2731.59   72.56
  -3  -8  -3  391.25   14.28
  -3  -8  -3  389.97   15.12
  -3  -8  -3  372.98   13.67
  -3  -8  -3  386.56   15.06
   3   8   3  377.91   14.06
  -4  -8  -3  852.47   26.83
  -4  -8  -3  854.26   25.85
  -4  -8  -3  843.99   25.25
  -4  -8  -3  832.25   26.87
   4   8   3  806.92   26.04
  -5  -8  -3    6.24    2.03
  -5  -8  -3    7.26    2.26
  -5  -8  -3    5.43    2.02
  -5  -8  -3    8.54    2.34
   5   8   3    5.91    2.12
  -6  -8  -3   19.93    3.61
  -6  -8  -3   30.38    3.81
  -6  -8  -3   23.38    3.26
   6   8   3   24.52    3.90
  -7  -8  -3   34.66    4.85
  -7  -8  -3   32.74    4.17
  -7  -8  -3   32.01    4.03
   5  -9  -3   -0.06    0.87
  -5   9   3    0.49    2.46
   4  -9  -3  165.25   10.41
   4  -9  -3  144.61    7.91
   4  -9  -3  145.28    7.51
   4  -9  -3  152.50    9.54
  -4   9   3  159.72   10.91
   3  -9  -3   82.74    7.01
   3  -9  -3   82.31    8.11
   3  -9  -3   80.63    5.39
  -3   9   3   67.30    7.78
   2  -9  -3    1.99    1.93
   2  -9  -3    6.18    2.44
  -2   9   3    8.19    3.05
   1  -9  -3  431.69   18.95
   1  -9  -3  438.39   17.10
   1  -9  -3  466.41   17.85
  -1   9   3  450.90   18.31
   0  -9  -3  350.09   16.89
   0  -9  -3  372.99   15.21
   0  -9  -3  383.30   16.75
   0  -9  -3  368.56   14.75
   0   9   3  373.24   15.37
  -1  -9  -3 1567.04   47.53
  -1  -9  -3 1611.37   45.22
  -1  -9  -3 1550.34   45.58
  -1  -9  -3 1543.98   47.30
   1   9   3 1614.08   44.72
   1   9   3 1545.87   45.40
  -2  -9  -3  366.07   14.58
  -2  -9  -3  346.07   13.86
  -2  -9  -3  369.53   15.78
  -2  -9  -3  352.98   15.41
   2   9   3  343.76   13.62
  -3  -9  -3  243.26   12.28
  -3  -9  -3  278.84   11.97
  -3  -9  -3  259.55   12.62
  -3  -9  -3  285.97   11.64
   3   9   3  282.04   11.88
  -4  -9  -3   38.75    4.77
  -4  -9  -3   40.20    5.51
  -4  -9  -3   37.09    5.10
  -4  -9  -3   39.99    4.64
   4   9   3   30.26    4.31
  -5  -9  -3  277.16   12.83
  -5  -9  -3  256.80   11.52
  -5  -9  -3  266.86   11.32
   5   9   3  236.66   11.74
  -6  -9  -3   12.15    2.95
  -6  -9  -3   13.37    2.85
  -6  -9  -3    8.68    2.74
   6   9   3   12.31    3.17
   5 -10  -3    0.38    1.04
  -5  10   3   -1.20    2.45
   4 -10  -3   26.34    5.19
   4 -10  -3   33.25    5.67
  -4  10   3   31.23    5.98
   3 -10  -3  190.95   11.06
   3 -10  -3  183.37   11.36
   3 -10  -3  177.32    8.95
  -3  10   3  183.90   11.98
   2 -10  -3  431.13   17.88
   2 -10  -3  414.33   18.41
  -2  10   3  447.44   19.41
   1 -10  -3  102.11    7.93
   1 -10  -3  111.81    7.77
  -1  10   3  101.17    8.03
   0 -10  -3  242.43   12.21
   0 -10  -3  203.61   12.42
   0 -10  -3  230.79   11.46
   0  10   3  220.39   11.73
  -1 -10  -3   55.11    7.43
  -1 -10  -3   51.36    5.84
  -1 -10  -3   49.53    6.00
   1  10   3   38.68    4.74
  -2 -10  -3    6.51    2.45
  -2 -10  -3    2.41    1.84
  -2 -10  -3    3.63    2.05
   2  10   3    5.99    2.18
  -3 -10  -3  111.19    8.39
  -3 -10  -3  130.82    8.31
  -3 -10  -3  127.36    9.06
  -3 -10  -3  140.37    8.21
   3  10   3  137.15    8.23
  -4 -10  -3  113.30    8.46
  -4 -10  -3  107.19    8.10
  -4 -10  -3  102.23    7.12
  -4 -10  -3  112.80    7.71
   4  10   3  126.43    8.04
  -5 -10  -3    1.67    1.54
  -5 -10  -3    3.23    1.85
  -5 -10  -3   -1.64    1.80
   5  10   3    3.51    2.02
  -6 -10  -3   13.40    3.24
  -6 -10  -3   18.97    3.85
  -6 -10  -3   10.86    3.20
   6  10   3   12.33    3.57
   4 -11  -3   59.86    7.57
  -4  11   3   61.56    8.75
   3 -11  -3   24.79    5.40
   3 -11  -3   15.84    3.15
   3 -11  -3   15.78    3.96
  -3  11   3   16.20    4.64
   2 -11  -3   30.93    5.54
   2 -11  -3   26.28    4.83
  -2  11   3   22.70    4.76
   1 -11  -3    9.12    2.89
   1 -11  -3    9.91    3.32
  -1  11   3   15.27    4.05
   0 -11  -3   33.57    5.53
   0 -11  -3   36.91    5.56
   0  11   3   23.54    4.01
  -1 -11  -3  416.74   17.83
  -1 -11  -3  442.91   18.78
  -1 -11  -3  419.48   19.94
   1  11   3  473.64   17.88
  -2 -11  -3  104.37    8.04
  -2 -11  -3  104.82    7.98
  -2 -11  -3  105.40    8.91
   2  11   3  104.25    7.56
  -3 -11  -3    9.22    3.05
  -3 -11  -3   14.62    4.18
  -3 -11  -3   15.87    3.68
   3  11   3   10.24    3.02
  -4 -11  -3   50.39    6.06
  -4 -11  -3   48.40    6.34
   4  11   3   44.85    6.03
  -5 -11  -3    1.65    1.90
   5  11   3    1.67    1.89
   3 -12  -3  292.11   15.79
   3 -12  -3  272.12   16.13
  -3  12   3  303.40   17.27
   2 -12  -3   10.41    3.91
   2 -12  -3    5.74    3.42
   1 -12  -3  322.52   16.84
   1 -12  -3  320.46   16.01
   0 -12  -3  268.62   14.33
   0 -12  -3  301.25   15.63
   0  12   3  276.34   13.74
  -1 -12  -3   17.86    4.60
  -1 -12  -3   13.26    3.61
   1  12   3   16.18    3.76
  -2 -12  -3   36.87    6.07
  -2 -12  -3   42.32    6.13
   2  12   3   44.96    6.26
  -3 -12  -3   73.88    9.15
  -3 -12  -3   85.98    9.05
  -3 -12  -3   76.89    8.52
   3  12   3   95.99    9.26
  -4 -12  -3   29.53    5.35
  -4 -12  -3   25.55    5.06
   4  12   3   18.94    4.49
   0 -13  -3   56.76    7.77
   0 -13  -3   57.08    8.07
   0  13   3   48.50    6.71
  -1 -13  -3   41.46    6.51
  -1 -13  -3   39.31    6.75
   1  13   3   38.99    6.17
   2  10  -4  145.14   12.88
  -2 -10   4  129.26   10.76
  -2 -10   4  144.73   11.64
   1  10  -4   34.74    5.93
  -1 -10   4   33.00    6.25
  -1 -10   4   39.31    7.22
   0  10  -4   60.06    7.78
   0 -10   4   90.91   10.81
   0 -10   4   74.70    9.09
  -1  10  -4   18.24    5.30
  -1  10  -4   28.77    5.45
   1 -10   4   36.82    6.95
   1 -10   4   24.14    5.57
  -2  10  -4   31.90    6.97
  -2  10  -4   27.70    5.31
   2 -10   4   25.56    5.74
   2 -10   4   29.49    6.41
   3   9  -4   80.07    9.46
  -3  -9   4   78.02    9.53
  -3  -9   4   82.95    9.34
   2   9  -4  109.86   10.33
  -2  -9   4  114.05    9.34
  -2  -9   4  119.94    9.99
   1   9  -4  116.42   10.52
  -1  -9   4  114.65    9.69
  -1  -9   4  118.50    9.41
   0   9  -4  420.86   18.45
   0   9  -4  415.75   20.09
   0  -9   4  412.35   19.70
   0  -9   4  446.12   19.73
  -1   9  -4  147.07    9.61
  -1   9  -4  121.42   10.05
   1  -9   4  135.46   10.36
   1  -9   4  142.70   10.36
  -2   9  -4   48.85    6.34
  -2   9  -4   54.56    7.93
   2  -9   4   66.87    8.70
   2  -9   4   61.36    7.93
  -3   9  -4   17.78    5.14
  -3   9  -4   27.19    4.99
   3  -9   4   17.07    4.66
  -4   9  -4  124.47    8.99
  -4   9  -4  144.52   11.83
   5   8  -4   36.73    6.60
  -5  -8   4   28.67    6.00
  -5  -8   4   43.81    6.54
   4   8  -4    8.88    3.54
  -4  -8   4    4.25    2.89
  -4  -8   4    8.25    3.31
   3   8  -4    8.96    3.30
  -3  -8   4    7.40    2.94
  -3  -8   4    6.78    3.30
   2   8  -4  126.75    9.13
  -2  -8   4  132.58    9.54
  -2  -8   4  132.84    9.91
   1   8  -4   25.10    4.90
   1   8  -4   33.32    5.09
  -1  -8   4   34.78    5.62
  -1  -8   4   37.09    6.15
   0   8  -4    1.11    1.84
   0   8  -4    2.89    2.54
   0  -8   4    2.50    1.99
   0  -8   4    4.00    2.70
  -1   8  -4 1147.34   36.22
  -1   8  -4 1165.84   38.96
   1  -8   4 1133.98   37.66
   1  -8   4 1126.22   38.07
  -2   8  -4   19.04    3.85
  -2   8  -4   19.79    4.71
   2  -8   4   25.08    4.98
   2  -8   4   23.15    5.07
  -3   8  -4  382.40   15.91
  -3   8  -4  399.98   19.00
   3  -8   4  382.40   17.40
   3  -8   4  343.07   13.78
   3  -8   4  348.88   17.15
  -4   8  -4   88.67   10.00
  -4   8  -4   96.07    7.28
  -5   8  -4   -0.20    2.01
  -5   8  -4    3.86    2.86
   5   7  -4  236.06   13.92
  -5  -7   4  251.37   14.15
  -5  -7   4  247.31   14.28
   4   7  -4  180.94   11.30
  -4  -7   4  169.24   11.32
  -4  -7   4  164.97   10.76
   3   7  -4   75.88    8.14
  -3  -7   4   75.23    8.53
  -3  -7   4   70.64    7.68
   2   7  -4    9.60    3.10
   2   7  -4   10.48    3.44
  -2  -7   4    7.98    2.85
  -2  -7   4    6.17    2.78
   1   7  -4   95.18    7.69
  -1  -7   4   93.83    7.63
  -1  -7   4   97.19    7.49
   0   7  -4  182.42   11.04
   0   7  -4  166.18    9.61
   0  -7   4  178.73   10.38
   0  -7   4  185.36   10.93
  -1   7  -4  393.08   17.77
  -1   7  -4  385.67   15.76
   1  -7   4  392.80   16.96
   1  -7   4  407.07   17.49
  -2   7  -4  238.01   11.33
  -2   7  -4  232.06   13.16
   2  -7   4  250.85   13.01
   2  -7   4  240.24   10.66
   2  -7   4  258.77   12.85
  -3   7  -4    7.61    3.10
  -3   7  -4   10.33    2.98
   3  -7   4   10.74    3.22
   3  -7   4   11.32    3.38
   3  -7   4   15.28    2.72
  -4   7  -4  252.52   11.84
  -4   7  -4  261.90   14.57
   4  -7   4  273.91   13.65
  -5   7  -4   37.13    6.29
  -5   7  -4   33.04    4.63
  -6   7  -4   99.07   10.67
  -6   7  -4  106.57    7.38
  -6  -6   4   68.51    8.77
   5   6  -4    9.20    3.32
  -5  -6   4    2.96    2.50
  -5  -6   4    3.39    2.74
   4   6  -4    5.83    2.50
  -4  -6   4    1.64    1.97
  -4  -6   4    1.27    2.06
   3   6  -4   66.46    7.10
  -3  -6   4   61.26    7.36
  -3  -6   4   58.30    6.92
  -3  -6   4   65.03    7.12
   2   6  -4   -0.31    1.41
   2   6  -4    0.14    1.26
  -2  -6   4    1.14    1.63
  -2  -6   4   -0.93    1.16
   1   6  -4  205.01   10.45
   1   6  -4  225.33   11.66
  -1  -6   4  207.36    9.76
  -1  -6   4  219.33   11.45
  -1  -6   4  221.48   11.21
   0   6  -4  309.18   15.29
   0   6  -4  311.16   14.24
   0   6  -4  318.11   13.02
   0  -6   4  308.34   13.96
   0  -6   4  268.32   15.97
   0  -6   4  279.23   11.90
   0  -6   4  285.03   13.21
  -1   6  -4   86.47    5.92
  -1   6  -4   83.14    6.90
  -1   6  -4  107.60    8.25
   1  -6   4   82.71    6.55
   1  -6   4   83.05    6.76
   1  -6   4   84.23    5.66
  -2   6  -4  326.35   15.34
  -2   6  -4  302.97   15.96
  -2   6  -4  349.24   13.49
   2  -6   4  336.23   12.61
   2  -6   4  327.52   14.41
   2  -6   4  348.42   14.97
  -3   6  -4   73.06    8.96
  -3   6  -4   74.89    5.42
  -3   6  -4   75.01    8.02
   3  -6   4   68.15    7.30
   3  -6   4   75.78    6.25
  -4   6  -4    2.43    2.18
  -4   6  -4    2.04    2.16
  -4   6  -4    3.10    1.73
   4  -6   4    1.89    0.95
   4  -6   4    2.31    1.85
   4  -6   4    1.75    1.74
  -5   6  -4   94.88    9.05
  -5   6  -4   80.38    8.65
  -5   6  -4   96.31    6.30
   5  -6   4   94.24    7.88
  -6   6  -4  173.73   11.81
  -6   6  -4  186.54    9.31
  -6  -5   4   -0.28    2.03
  -5  -5   4    2.89    2.14
  -5  -5   4    6.41    2.76
   4   5  -4  171.84   10.33
  -4  -5   4  194.24   10.69
  -4  -5   4  202.12   11.15
   3   5  -4    0.87    1.70
   3   5  -4    0.85    1.48
  -3  -5   4    3.66    2.02
  -3  -5   4   -0.60    1.12
  -3  -5   4    1.35    1.85
  -3  -5   4    0.80    1.51
   2   5  -4  349.20   14.48
   2   5  -4  361.16   14.87
  -2  -5   4  379.20   16.43
  -2  -5   4  337.18   14.84
  -2  -5   4  342.92   14.56
  -2  -5   4  350.71   13.32
   1   5  -4   24.84    3.67
   1   5  -4   20.28    3.92
   1   5  -4   29.50    4.59
  -1  -5   4   23.59    4.06
  -1  -5   4   26.53    4.02
  -1  -5   4   21.14    3.01
  -1  -5   4   30.51    4.58
   0   5  -4 1030.54   33.31
   0   5  -4 1091.90   34.63
   0   5  -4 1102.25   33.19
   0   5  -4 1049.65   31.23
   0  -5   4  995.96   32.27
   0  -5   4  964.42   30.26
   0  -5   4 1008.90   33.30
   0  -5   4 1045.40   31.99
  -1   5  -4  424.37   16.56
  -1   5  -4  401.25   14.61
  -1   5  -4  395.08   17.22
  -1   5  -4  372.34   16.44
   1  -5   4  405.53   16.70
   1  -5   4  393.47   14.12
   1  -5   4  411.12   15.67
   1  -5   4  407.83   16.03
  -2   5  -4  149.98    7.12
  -2   5  -4  139.69    8.74
  -2   5  -4  138.49    7.25
  -2   5  -4  133.03    8.87
  -2   5  -4  157.49    9.79
   2  -5   4  145.77    8.22
   2  -5   4  154.04    8.67
   2  -5   4  156.71    7.07
  -3   5  -4  121.95    6.59
  -3   5  -4  112.59    6.33
  -3   5  -4  125.38    8.63
  -3   5  -4  130.80    9.12
  -3   5  -4  130.96    8.45
   3  -5   4  130.75    5.68
   3  -5   4  109.43    7.40
   3  -5   4  135.20    7.77
  -4   5  -4  311.56   14.44
  -4   5  -4  320.91   15.49
  -4   5  -4  310.92   11.90
   4  -5   4  310.21   13.06
   4  -5   4  311.19   13.51
   4  -5   4  292.95    9.10
   4  -5   4  304.65   13.48
  -5   5  -4   21.49    4.87
  -5   5  -4   14.43    2.74
  -5   5  -4   18.77    3.96
   5  -5   4   19.07    4.10
  -6   5  -4   12.16    3.65
  -6   5  -4    2.36    2.00
  -6   5  -4    7.04    3.01
  -7   5  -4  242.74   13.81
  -7   5  -4  203.90   13.71
  -7  -4   4    5.35    2.77
  -6  -4   4  343.73   16.35
  -5  -4   4  603.63   27.11
  -5  -4   4  636.93   23.49
   4   4  -4    0.25    1.56
  -4  -4   4   -0.45    1.36
  -4  -4   4   -1.14    1.15
  -4  -4   4    0.61    1.54
  -4  -4   4   -0.36    1.29
   3   4  -4  768.63   25.32
   3   4  -4  713.29   24.32
  -3  -4   4  734.03   26.87
  -3  -4   4  776.87   26.26
  -3  -4   4  763.68   25.27
  -3  -4   4  802.04   25.97
   2   4  -4   42.56    5.12
   2   4  -4   42.70    5.50
   2   4  -4   27.40    4.01
  -2  -4   4   31.61    4.39
  -2  -4   4   36.05    3.86
  -2  -4   4   35.89    4.85
  -2  -4   4   27.72    4.31
   1   4  -4    3.63    1.60
   1   4  -4    0.96    1.20
   1   4  -4    1.66    1.39
  -1  -4   4    1.89    1.35
  -1  -4   4    1.14    1.26
  -1  -4   4    0.38    1.04
  -1  -4   4    1.60    1.01
   0   4  -4    2.72    1.05
   0   4  -4    3.11    1.79
   0   4  -4    3.03    1.44
   0   4  -4    3.90    1.53
   0  -4   4    3.04    1.51
   0  -4   4    3.33    1.62
   0  -4   4    2.78    1.49
   0  -4   4    0.95    0.73
  -1   4  -4 1771.64   49.24
  -1   4  -4 1836.64   48.70
  -1   4  -4 1789.28   52.57
  -1   4  -4 1814.50   51.35
   1  -4   4 1898.36   50.72
   1  -4   4 1787.28   50.93
   1  -4   4 1750.38   51.67
   1  -4   4 1865.17   49.03
  -2   4  -4   26.52    4.38
  -2   4  -4   24.25    3.07
  -2   4  -4   28.11    3.34
  -2   4  -4   25.58    3.95
   2  -4   4   37.09    4.64
   2  -4   4   31.40    4.06
   2  -4   4   30.23    2.65
  -3   4  -4  337.45   14.57
  -3   4  -4  320.66   13.73
  -3   4  -4  323.19   11.72
  -3   4  -4  325.06   12.01
  -3   4  -4  335.20   14.72
   3  -4   4  353.79   13.19
   3  -4   4  326.35   10.33
   3  -4   4  323.38   13.24
  -4   4  -4  462.02   15.53
  -4   4  -4  476.99   16.05
  -4   4  -4  477.34   18.93
  -4   4  -4  492.15   18.35
  -4   4  -4  459.88   19.01
   4  -4   4  467.75   17.64
   4  -4   4  483.64   16.84
   4  -4   4  483.94   17.22
  -5   4  -4   90.55    7.03
  -5   4  -4   82.25    5.07
  -5   4  -4   91.50    7.46
  -5   4  -4   96.02    7.53
   5  -4   4   93.06    7.19
  -6   4  -4  237.67   12.44
  -6   4  -4  219.01   12.65
   6  -4   4  225.59   12.83
  -7   4  -4   33.97    5.77
  -7   4  -4   32.83    5.60
  -6  -3   4  924.27   31.81
  -5  -3   4    2.71    1.82
  -5  -3   4   -0.74    1.12
   4   3  -4 1131.91   32.83
   4   3  -4 1131.94   33.44
  -4  -3   4 1101.22   36.33
  -4  -3   4 1244.18   37.74
  -4  -3   4 1091.52   34.81
  -4  -3   4 1158.77   35.55
   3   3  -4 1261.92   37.58
   3   3  -4 1286.22   36.87
  -3  -3   4 1250.72   37.39
  -3  -3   4 1235.99   38.19
  -3  -3   4 1277.24   37.89
  -3  -3   4 1237.57   36.68
  -3  -3   4 1304.41   39.69
   2   3  -4  304.15   13.09
   2   3  -4  312.97   12.42
   2   3  -4  296.58   12.14
  -2  -3   4  312.56   12.67
  -2  -3   4  300.83   11.20
  -2  -3   4  293.05   13.42
  -2  -3   4  302.53   12.26
  -2  -3   4  300.45   12.27
   1   3  -4   19.49    2.20
   1   3  -4   16.61    3.05
   1   3  -4   14.59    3.09
   1   3  -4   10.93    2.23
  -1  -3   4   13.11    2.58
  -1  -3   4   18.70    2.54
  -1  -3   4   16.23    3.32
  -1  -3   4   17.62    3.19
   0   3  -4   36.46    3.72
   0   3  -4   31.47    4.01
   0   3  -4   31.07    2.59
   0   3  -4   26.84    3.74
   0  -3   4   29.52    3.60
   0  -3   4   32.50    4.28
   0  -3   4   35.56    4.17
  -1   3  -4   28.29    3.23
  -1   3  -4   28.89    3.17
  -1   3  -4   24.62    3.56
   1  -3   4   21.51    3.04
   1  -3   4   32.17    2.65
   1  -3   4   21.31    3.18
   1  -3   4   24.34    3.41
  -2   3  -4  484.08   17.54
  -2   3  -4  462.58   16.56
  -2   3  -4  457.77   14.78
  -2   3  -4  471.95   14.79
   2  -3   4  449.92   16.05
   2  -3   4  460.53   13.79
   2  -3   4  467.74   15.85
  -3   3  -4   32.64    4.17
  -3   3  -4   26.31    2.84
  -3   3  -4   25.91    3.67
  -3   3  -4   35.10    4.69
  -3   3  -4   30.01    2.98
   3  -3   4   28.01    1.69
   3  -3   4   32.72    3.61
   3  -3   4   37.72    4.02
   3  -3   4   27.43    1.58
   3  -3   4   30.05    3.71
  -4   3  -4   12.73    2.05
  -4   3  -4    5.57    2.18
  -4   3  -4    7.93    2.41
  -4   3  -4   12.15    2.87
  -4   3  -4    7.51    1.56
   4  -3   4    8.88    2.08
   4  -3   4    6.29    1.97
   4  -3   4    7.91    1.92
  -5   3  -4   43.25    5.56
  -5   3  -4   51.76    5.65
  -5   3  -4   47.73    5.64
   5  -3   4   49.03    5.87
  -6   3  -4   16.38    3.54
  -6   3  -4   16.23    3.60
  -6   3  -4   26.03    4.56
   6  -3   4   27.37    5.02
  -7   3  -4   -0.22    1.49
  -8   3  -4    0.33    1.77
  -7  -2   4    6.40    2.87
  -6  -2   4   59.84    7.08
  -6  -2   4   45.60    8.48
  -5  -2   4  331.58   15.58
  -5  -2   4  310.89   17.05
  -5  -2   4  310.02   14.25
  -5  -2   4  320.69   11.67
   4   2  -4  112.07    5.91
   4   2  -4  106.16    6.08
  -4  -2   4  109.26    7.29
  -4  -2   4  118.60    8.14
  -4  -2   4  112.06    5.69
  -4  -2   4  116.65    7.91
   3   2  -4  415.48   15.28
  -3  -2   4  440.71   14.74
  -3  -2   4  450.85   14.15
  -3  -2   4  431.10   15.99
  -3  -2   4  441.96   17.44
  -3  -2   4  438.97   16.60
  -3  -2   4  478.81   16.74
   2   2  -4  740.82   23.14
   2   2  -4  730.79   24.13
   2   2  -4  719.32   23.03
   2   2  -4  755.94   20.27
  -2  -2   4  723.12   24.70
  -2  -2   4  753.79   23.28
  -2  -2   4  742.30   22.06
  -2  -2   4  766.50   23.76
  -2  -2   4  745.78   23.34
   1   2  -4  804.01   24.62
   1   2  -4  791.31   25.16
   1   2  -4  882.59   23.35
   1   2  -4  826.37   26.49
  -1  -2   4  843.07   24.09
  -1  -2   4  819.56   25.07
  -1  -2   4  844.82   24.29
  -1  -2   4  833.22   26.55
  -1  -2   4  837.38   25.48
   0   2  -4  438.05   15.71
   0   2  -4  451.63   16.72
   0   2  -4  486.21   14.38
   0   2  -4  475.35   14.97
   0  -2   4  476.74   15.86
   0  -2   4  455.71   13.94
   0  -2   4  467.78   15.47
   0  -2   4  440.27   16.27
  -1   2  -4 2708.57   68.94
  -1   2  -4 2578.05   70.52
  -1   2  -4 2694.64   71.61
  -1   2  -4 2744.79   69.04
   1  -2   4 2638.21   70.29
   1  -2   4 2694.89   70.94
   1  -2   4 2621.12   68.07
   1  -2   4 2656.76   69.99
  -2   2  -4   53.43    4.31
  -2   2  -4   57.69    3.30
  -2   2  -4   61.04    4.30
  -2   2  -4   58.94    3.48
   2  -2   4   57.11    3.82
   2  -2   4   53.09    2.64
   2  -2   4   49.96    3.78
  -3   2  -4    0.37    0.99
  -3   2  -4    0.77    1.15
  -3   2  -4    1.21    0.77
  -3   2  -4    1.80    0.87
  -3   2  -4    1.86    1.01
   3  -2   4    1.34    1.02
   3  -2   4   -0.22    0.71
   3  -2   4    2.10    1.16
  -4   2  -4  380.42   13.80
  -4   2  -4  433.28   15.51
  -4   2  -4  421.21   14.93
  -4   2  -4  398.24   12.51
  -4   2  -4  401.02   13.68
  -4   2  -4  437.04   15.59
   4  -2   4  402.31   13.15
   4  -2   4  413.91   15.21
  -5   2  -4  773.32   24.73
  -5   2  -4  743.98   25.18
  -5   2  -4  823.59   25.80
   5  -2   4  780.84   26.21
  -6   2  -4   13.98    3.15
  -6   2  -4   14.31    3.11
   6  -2   4   15.21    3.84
  -7   2  -4   71.31    6.04
  -7   2  -4   83.99    6.78
  -7   2  -4   73.57    6.46
  -8   2  -4   -1.79    1.62
  -8   2  -4    1.76    2.07
  -7  -1   4    5.70    3.06
  -6  -1   4  140.19    9.28
  -6  -1   4  136.08    9.85
   5   1  -4  982.05   33.59
  -5  -1   4  952.60   32.84
  -5  -1   4  967.76   28.39
  -5  -1   4 1031.82   31.92
  -5  -1   4  984.32   33.08
   4   1  -4    2.01    1.18
   4   1  -4    5.83    2.32
   4   1  -4    2.72    1.36
  -4  -1   4    1.10    1.64
  -4  -1   4    0.00    1.31
  -4  -1   4    1.46    1.08
  -4  -1   4    0.56    1.32
   3   1  -4   19.79    2.81
   3   1  -4   20.93    2.95
   3   1  -4   17.06    3.21
  -3  -1   4   17.63    2.30
  -3  -1   4   18.81    3.14
  -3  -1   4   21.57    2.86
  -3  -1   4   15.76    3.18
  -3  -1   4   22.21    3.56
   2   1  -4  534.85   14.76
   2   1  -4  506.55   17.76
   2   1  -4  518.18   16.94
  -2  -1   4  535.00   17.48
  -2  -1   4  489.35   15.97
  -2  -1   4  502.76   18.28
  -2  -1   4  525.91   15.46
  -2  -1   4  490.23   16.73
   1   1  -4  731.67   22.03
   1   1  -4  765.80   20.99
   1   1  -4  733.29   23.46
   1   1  -4  729.94   22.53
  -1  -1   4  766.18   21.65
  -1  -1   4  764.49   22.59
  -1  -1   4  725.26   22.64
  -1  -1   4  741.71   21.38
  -1  -1   4  749.68   20.85
  -1  -1   4  721.65   23.59
   0   1  -4   18.96    2.26
   0   1  -4   17.46    2.25
   0   1  -4   18.60    2.64
   0   1  -4   17.01    2.71
   0  -1   4   20.70    2.06
   0  -1   4   12.63    2.17
   0  -1   4   21.54    3.19
   0  -1   4   17.60    2.61
  -1   1  -4  106.01    5.20
  -1   1  -4  106.67    4.68
  -1   1  -4  105.09    4.72
  -1   1  -4  115.51    5.67
  -1   1  -4  105.74    5.88
   1  -1   4  100.60    5.14
   1  -1   4  114.37    5.79
   1  -1   4  115.49    5.53
   1  -1   4  105.23    4.16
  -2   1  -4 2285.81   63.38
  -2   1  -4 2392.18   63.77
  -2   1  -4 2543.86   64.84
  -2   1  -4 2435.01   62.29
  -2   1  -4 2450.10   62.59
  -2   1  -4 2411.33   64.02
   2  -1   4 2515.83   63.70
   2  -1   4 2461.60   60.75
   2  -1   4 2509.43   62.58
   2  -1   4 2393.62   63.32
  -3   1  -4  352.94   10.74
  -3   1  -4  354.39   10.60
  -3   1  -4  353.57   12.10
  -3   1  -4  360.96   12.80
  -3   1  -4  373.04   12.40
  -3   1  -4  337.96   11.76
   3  -1   4  369.93   12.38
   3  -1   4  357.00   11.31
  -4   1  -4 2485.52   64.13
  -4   1  -4 2363.25   62.83
  -4   1  -4 2377.97   63.15
  -4   1  -4 2347.31   63.49
  -4   1  -4 2441.76   61.16
   4  -1   4 2310.05   61.23
   4  -1   4 2505.84   65.12
  -5   1  -4  486.23   16.40
  -5   1  -4  494.75   16.59
  -5   1  -4  447.98   15.21
  -5   1  -4  433.23   14.80
  -5   1  -4  450.43   15.59
   5  -1   4  460.01   17.71
  -6   1  -4 2992.93   77.34
  -6   1  -4 2925.80   78.01
  -6   1  -4 2920.38   77.92
   6  -1   4 2755.14   80.69
  -7   1  -4  330.02   13.95
  -7   1  -4  334.17   14.07
  -7   1  -4  310.09   13.16
   7  -1   4  298.96   16.29
  -8   1  -4  212.16   10.89
  -8   1  -4  206.95   11.42
  -8   1  -4  216.92   11.29
  -8   0   4   32.36    5.84
  -7   0   4   96.13    8.09
  -6   0   4    4.29    2.21
  -6   0   4   -0.89    0.82
  -6   0   4    0.44    1.50
   5   0  -4   70.48    7.89
   5   0  -4   77.97    4.65
  -5   0   4   72.33    7.65
  -5   0   4   77.35    4.74
  -5   0   4   69.17    6.97
  -5   0   4   73.44    6.60
   4   0  -4 2542.54   67.18
   4   0  -4 2567.22   70.58
   4   0  -4 2502.71   66.58
  -4   0   4 2476.54   66.11
  -4   0   4 2562.56   69.22
  -4   0   4 2524.64   69.87
  -4   0   4 2558.80   70.62
   3   0  -4  943.19   27.77
   3   0  -4  980.26   24.73
   3   0  -4  981.10   29.21
   3   0  -4  968.82   29.69
   3   0  -4  977.10   28.28
  -3   0   4  977.44   27.05
  -3   0   4  931.96   29.20
  -3   0   4  979.21   30.51
  -3   0   4  972.25   29.47
   2   0  -4   85.60    3.86
   2   0  -4   93.92    5.62
   2   0  -4   78.52    4.82
   2   0  -4   83.68    4.90
  -2   0   4   87.44    4.17
  -2   0   4   80.88    5.58
  -2   0   4   78.36    5.11
  -2   0   4   80.13    4.79
   1   0  -4 1099.70   28.97
   1   0  -4 1036.10   30.97
   1   0  -4 1070.31   28.85
   1   0  -4 1055.85   30.08
  -1   0   4 1084.21   28.78
  -1   0   4 1048.50   30.28
  -1   0   4 1025.25   28.46
   0   0  -4  485.78   15.59
   0   0  -4  512.44   14.99
   0   0  -4  500.27   15.87
   0   0  -4  509.48   14.45
   0   0  -4  488.55   15.04
   0   0   4  531.25   16.68
   0   0   4  521.37   14.40
   0   0   4  496.08   15.86
   0   0   4  505.83   13.50
  -1   0  -4  453.86   13.79
  -1   0  -4  433.18   12.56
  -1   0  -4  456.89   14.08
  -1   0  -4  434.35   13.92
  -1   0  -4  434.00   12.88
  -1   0  -4  430.58   14.50
   1   0   4  437.47   14.01
   1   0   4  445.68   12.08
   1   0   4  454.70   13.87
  -2   0  -4  770.26   22.49
  -2   0  -4  782.03   22.77
  -2   0  -4  818.43   22.81
  -2   0  -4  814.01   21.40
  -2   0  -4  808.36   21.24
  -2   0  -4  841.16   23.33
   2   0   4  812.96   21.97
  -3   0  -4 1569.07   42.47
  -3   0  -4 1639.38   40.98
  -3   0  -4 1603.00   42.68
  -3   0  -4 1645.36   40.71
  -3   0  -4 1637.38   42.82
  -3   0  -4 1588.71   43.03
  -3   0  -4 1647.73   43.15
   3   0   4 1569.91   41.17
   3   0   4 1646.28   43.66
  -4   0  -4 1671.24   44.62
  -4   0  -4 1693.26   45.14
  -4   0  -4 1699.29   44.85
  -4   0  -4 1651.77   44.39
  -4   0  -4 1740.87   46.56
  -4   0  -4 1666.51   42.76
   4   0   4 1713.90   47.24
  -5   0  -4 2649.87   69.57
  -5   0  -4 2722.24   70.38
  -5   0  -4 2671.89   69.24
  -5   0  -4 2652.55   69.91
  -5   0  -4 2706.23   72.69
   5   0   4 2713.62   73.78
  -6   0  -4 1390.84   36.66
  -6   0  -4 1474.34   40.46
  -6   0  -4 1405.54   43.07
  -6   0  -4 1477.83   39.89
  -6   0  -4 1447.54   40.38
   6   0   4 1417.58   44.27
  -7   0  -4   36.27    4.45
  -7   0  -4   43.62    4.16
  -7   0  -4   29.73    3.76
   7   0   4   27.57    5.29
  -8   0  -4  238.89   10.78
  -8   0  -4  233.94   11.45
  -8   0  -4  230.61   11.12
  -8   1   4   10.15    3.74
  -7   1   4   19.89    4.51
  -6   1   4   34.58    5.23
  -6   1   4   25.48    3.55
  -6   1   4   27.63    5.05
   5  -1  -4  178.27   11.00
   5  -1  -4  189.75    8.08
  -5   1   4  205.61   11.04
  -5   1   4  183.06    9.95
  -5   1   4  192.65    8.17
  -5   1   4  187.87   10.87
   4  -1  -4   15.03    2.48
   4  -1  -4   22.21    3.92
   4  -1  -4   14.85    2.51
  -4   1   4   19.26    2.50
  -4   1   4   13.69    3.02
  -4   1   4   15.19    3.31
  -4   1   4   11.55    3.06
   3  -1  -4  491.03   16.34
   3  -1  -4  496.38   13.86
   3  -1  -4  514.98   16.12
   3  -1  -4  495.51   17.16
   3  -1  -4  485.80   17.50
  -3   1   4  508.47   17.34
  -3   1   4  498.86   15.26
  -3   1   4  498.91   17.39
  -3   1   4  498.77   18.20
   2  -1  -4  585.86   17.60
   2  -1  -4  558.31   16.19
   2  -1  -4  567.54   18.07
   2  -1  -4  569.62   16.53
   2  -1  -4  537.98   17.74
   2  -1  -4  578.42   18.82
  -2   1   4  562.01   16.57
  -2   1   4  577.26   17.73
  -2   1   4  577.54   18.51
   1  -1  -4  122.01    4.77
   1  -1  -4  121.61    5.74
   1  -1  -4  114.98    5.00
   1  -1  -4  121.07    6.27
  -1   1   4  119.74    5.90
  -1   1   4  130.39    4.88
  -1   1   4  109.62    6.16
  -1   1   4  115.25    4.82
   0  -1  -4  773.20   22.06
   0  -1  -4  757.59   22.76
   0  -1  -4  768.22   19.99
   0  -1  -4  773.95   20.69
   0   1   4  750.16   22.64
   0   1   4  792.38   20.50
   0   1   4  732.45   21.88
  -1  -1  -4 3412.18   89.96
  -1  -1  -4 3620.97   91.66
  -1  -1  -4 3580.65   89.86
  -1  -1  -4 3330.10   87.65
  -1  -1  -4 3465.58   86.93
   1   1   4 3461.81   91.30
   1   1   4 3344.78   87.63
   1   1   4 3359.89   87.39
  -2  -1  -4   46.36    2.74
  -2  -1  -4   54.44    2.98
  -2  -1  -4   48.49    2.76
  -2  -1  -4   46.90    2.65
   2   1   4   50.59    1.86
   2   1   4   48.33    2.23
  -3  -1  -4  196.13    6.59
  -3  -1  -4  192.32    6.71
  -3  -1  -4  197.36    6.67
  -3  -1  -4  208.60    6.71
  -3  -1  -4  198.69    7.87
   3   1   4  201.57    8.08
  -4  -1  -4  207.12    9.04
  -4  -1  -4  197.96    6.79
  -4  -1  -4  192.26    6.65
  -4  -1  -4  207.25    6.84
  -4  -1  -4  210.57    6.93
   4   1   4  199.76    9.19
  -5  -1  -4    5.62    1.23
  -5  -1  -4    5.80    2.20
  -5  -1  -4    7.70    1.47
  -5  -1  -4    5.98    1.16
  -5  -1  -4    6.28    1.27
  -5  -1  -4    8.32    0.94
   5   1   4    3.46    1.87
  -6  -1  -4  637.84   19.21
  -6  -1  -4  609.14   22.79
  -6  -1  -4  622.86   18.99
  -6  -1  -4  633.00   18.65
   6   1   4  628.41   23.67
  -7  -1  -4    3.50    1.18
  -7  -1  -4   -0.57    0.80
  -7  -1  -4    2.75    1.39
   7   1   4    0.23    1.65
  -8  -1  -4   25.08    3.42
  -8  -1  -4   24.39    3.70
  -8  -1  -4   18.62    3.39
  -8   2   4  150.45   10.94
  -7   2   4   59.42    7.51
  -6   2   4    5.19    2.09
   5  -2  -4   25.33    4.78
   5  -2  -4   16.36    2.67
   5  -2  -4   20.62    3.17
  -5   2   4   23.57    4.09
  -5   2   4   18.82    4.03
  -5   2   4   15.39    2.61
  -5   2   4   20.30    3.93
   4  -2  -4  229.04    9.14
   4  -2  -4  223.77   11.19
   4  -2  -4  221.54    9.38
  -4   2   4  226.93   11.33
  -4   2   4  206.09   10.25
  -4   2   4  200.81    8.35
  -4   2   4  218.75   10.58
   3  -2  -4  231.52    9.34
   3  -2  -4  231.97    7.73
   3  -2  -4  220.85    8.89
   3  -2  -4  221.37    9.84
   3  -2  -4  220.93    7.63
   3  -2  -4  228.87   10.31
  -3   2   4  228.32    8.36
  -3   2   4  228.75    9.89
  -3   2   4  227.72   10.14
  -3   2   4  228.51   10.76
   2  -2  -4   11.91    1.64
   2  -2  -4   16.31    2.59
   2  -2  -4   11.22    2.16
   2  -2  -4   11.65    2.14
   2  -2  -4   12.17    1.97
  -2   2   4   12.17    1.73
  -2   2   4    4.16    1.43
  -2   2   4    6.19    1.83
   1  -2  -4 1610.88   43.27
   1  -2  -4 1564.17   40.75
   1  -2  -4 1521.27   42.13
   1  -2  -4 1569.59   41.86
   1  -2  -4 1557.92   41.36
  -1   2   4 1533.16   42.45
  -1   2   4 1546.52   43.32
  -1   2   4 1591.99   40.63
   0  -2  -4  146.53    6.09
   0  -2  -4  152.35    5.18
   0  -2  -4  151.73    6.70
   0   2   4  149.58    6.60
   0   2   4  139.03    4.82
   0   2   4  136.90    5.94
  -1  -2  -4 2944.91   73.47
  -1  -2  -4 2877.09   73.07
  -1  -2  -4 2772.42   72.73
  -1  -2  -4 2799.12   72.74
   1   2   4 2902.92   72.53
   1   2   4 2844.17   74.19
   1   2   4 2802.34   72.30
  -2  -2  -4  131.72    5.52
  -2  -2  -4  135.42    4.85
  -2  -2  -4  131.88    4.89
  -2  -2  -4  136.05    4.89
  -3  -2  -4   75.28    2.86
  -3  -2  -4   77.20    4.60
  -3  -2  -4   76.84    2.81
  -4  -2  -4   60.75    4.57
  -4  -2  -4   51.63    2.10
  -4  -2  -4   54.78    2.09
  -5  -2  -4    9.41    2.90
  -5  -2  -4   16.98    1.29
  -5  -2  -4   17.33    1.36
  -5  -2  -4   19.21    1.30
  -6  -2  -4    9.06    1.29
  -6  -2  -4    5.66    2.38
  -6  -2  -4    5.98    1.26
  -6  -2  -4    7.19    1.22
  -7  -2  -4  148.37    6.31
  -7  -2  -4  146.82    6.53
  -8  -2  -4  227.14    9.70
  -8  -2  -4  230.92   10.14
  -8  -2  -4  249.84    9.48
  -7   3   4    4.09    2.70
  -7   3   4    0.16    2.15
  -6   3   4   42.18    5.94
   5  -3  -4  189.84    8.56
   5  -3  -4  189.58    8.95
   5  -3  -4  181.53   11.18
  -5   3   4  176.96   10.88
  -5   3   4  190.83   10.45
  -5   3   4  184.93    8.12
   4  -3  -4  458.25   13.43
   4  -3  -4  473.01   15.64
   4  -3  -4  480.05   18.31
   4  -3  -4  447.37   15.97
  -4   3   4  444.25   18.17
  -4   3   4  448.01   17.32
  -4   3   4  457.85   14.86
   3  -3  -4  287.42   12.21
   3  -3  -4  272.62   10.69
   3  -3  -4  306.50    9.80
   3  -3  -4  284.90   11.91
  -3   3   4  299.30   12.25
  -3   3   4  299.27   10.11
   2  -3  -4  158.46    8.03
   2  -3  -4  179.14    6.56
   2  -3  -4  171.13    7.77
   2  -3  -4  169.26    7.51
   2  -3  -4  171.85    7.30
  -2   3   4  161.10    6.37
  -2   3   4  173.90    8.09
  -2   3   4  167.97    8.58
   1  -3  -4  250.46    9.44
   1  -3  -4  263.07    9.29
   1  -3  -4  252.16    8.37
  -1   3   4  243.95    9.63
  -1   3   4  260.26    8.23
  -1   3   4  249.74   10.38
   0  -3  -4  478.87   15.35
   0  -3  -4  529.95   16.62
   0  -3  -4  522.95   15.80
   0  -3  -4  529.81   14.51
   0   3   4  510.04   16.22
   0   3   4  529.07   15.84
   0   3   4  493.80   16.40
   0   3   4  550.46   15.87
  -1  -3  -4  284.89    9.20
  -1  -3  -4  256.45    9.10
  -1  -3  -4  272.88    9.60
   1   3   4  294.46    9.19
   1   3   4  267.64    8.68
   1   3   4  285.49    8.82
  -2  -3  -4  327.52    9.98
  -2  -3  -4  351.80   10.05
  -2  -3  -4  327.20    9.90
  -2  -3  -4  345.08   10.26
  -2  -3  -4  339.61   10.00
  -3  -3  -4   35.82    1.44
  -3  -3  -4   36.46    1.50
  -3  -3  -4   35.29    3.85
   3   3   4   37.56    1.55
  -4  -3  -4  167.04    8.59
  -5  -3  -4  421.83   16.91
  -6  -3  -4  528.86   14.35
  -6  -3  -4  534.53   14.21
  -6  -3  -4  529.57   14.60
  -6  -3  -4  543.87   21.26
  -7  -3  -4   84.75    4.11
  -7  -3  -4   90.62    4.15
  -8  -3  -4  106.67    5.25
  -8  -3  -4  103.57    5.61
  -7   4   4   10.34    3.49
  -7   4   4    7.98    3.41
  -7   4   4   10.09    3.61
  -6   4   4    0.30    1.77
  -6   4   4    2.45    2.11
  -6   4   4   -0.81    1.48
   5  -4  -4    6.27    2.11
   5  -4  -4    7.35    2.09
   5  -4  -4    8.96    3.16
  -5   4   4    5.08    2.42
  -5   4   4    8.92    2.83
  -5   4   4    7.58    3.31
   4  -4  -4   90.53    4.43
   4  -4  -4   87.23    6.28
   4  -4  -4   96.61    4.22
   4  -4  -4   87.99    5.90
   4  -4  -4   98.12    4.00
   4  -4  -4   92.72    5.73
   4  -4  -4   99.23    7.27
  -4   4   4   92.43    6.75
  -4   4   4   93.05    7.26
  -4   4   4   98.06    5.25
  -4   4   4  101.30    6.89
   3  -4  -4  400.51   14.67
   3  -4  -4  407.05   15.84
   3  -4  -4  390.71   15.43
   3  -4  -4  408.38   13.07
   3  -4  -4  405.14   14.26
  -3   4   4  423.38   13.36
  -3   4   4  442.10   15.83
  -3   4   4  423.67   15.76
   2  -4  -4  148.17    7.13
   2  -4  -4  139.98    5.98
   2  -4  -4  150.10    7.73
   2  -4  -4  136.16    6.66
  -2   4   4  151.47    7.62
  -2   4   4  146.60    7.46
  -2   4   4  143.20    8.07
  -2   4   4  148.84    8.12
   1  -4  -4 3841.93  105.06
   1  -4  -4 4048.42  101.68
   1  -4  -4 3933.68  100.02
   1  -4  -4 3875.45  102.75
  -1   4   4 3999.37  101.95
  -1   4   4 4027.57  103.30
   0  -4  -4 1819.71   47.21
   0  -4  -4 1811.25   47.54
   0  -4  -4 1772.84   48.49
   0   4   4 1823.96   47.57
   0   4   4 1763.35   47.99
   0   4   4 1720.01   48.38
  -1  -4  -4 1692.85   45.36
  -1  -4  -4 1700.47   44.78
  -1  -4  -4 1676.87   45.25
  -1  -4  -4 1707.87   45.89
  -1  -4  -4 1730.54   45.09
  -1  -4  -4 1679.30   45.83
   1   4   4 1765.80   44.81
   1   4   4 1751.49   44.75
  -2  -4  -4  936.60   25.00
  -2  -4  -4  957.40   24.83
  -2  -4  -4  852.37   24.88
  -2  -4  -4  944.55   25.48
  -2  -4  -4  943.02   25.22
  -3  -4  -4    4.47    0.80
  -3  -4  -4    3.16    0.72
   3   4   4    3.92    0.86
  -4  -4  -4   94.98    6.53
   4   4   4   96.67    3.84
  -5  -4  -4   -1.82    0.75
  -6  -4  -4    5.42    2.17
  -7  -4  -4    1.09    0.71
  -8  -4  -4  106.63    5.51
  -8  -4  -4  116.20    5.28
  -7   5   4  137.45   10.47
  -6   5   4  374.70   17.34
  -6   5   4  371.33   18.64
   5  -5  -4  556.92   19.53
   5  -5  -4  570.97   20.23
   5  -5  -4  563.91   23.18
  -5   5   4  575.38   23.27
  -5   5   4  575.89   21.86
   4  -5  -4  142.63    7.79
   4  -5  -4  132.51    5.48
   4  -5  -4  115.87    6.89
   4  -5  -4  118.40    7.86
   4  -5  -4  121.54    8.46
   4  -5  -4  134.67    5.96
  -4   5   4  164.02    9.74
  -4   5   4  128.65    8.25
   3  -5  -4   25.36    3.71
   3  -5  -4   23.97    2.80
   3  -5  -4   23.04    3.78
   3  -5  -4   21.09    3.05
   3  -5  -4   21.53    3.71
  -3   5   4   17.17    3.86
  -3   5   4   23.50    3.91
  -3   5   4   15.62    3.24
   2  -5  -4  296.59   11.19
   2  -5  -4  297.49   10.20
   2  -5  -4  304.92   11.75
   2  -5  -4  294.17   12.46
  -2   5   4  275.18   12.55
  -2   5   4  309.18   12.25
  -2   5   4  282.77   12.73
   1  -5  -4  369.96   14.01
   1  -5  -4  379.65   12.96
   1  -5  -4  372.79   11.80
   1  -5  -4  365.41   13.08
  -1   5   4  371.85   14.05
  -1   5   4  367.35   13.41
  -1   5   4  366.23   14.31
   0  -5  -4 3741.39   96.31
   0  -5  -4 3644.89   95.63
   0  -5  -4 3723.20   94.26
   0  -5  -4 3668.61   94.68
   0   5   4 3677.53   94.74
   0   5   4 3648.26   95.98
   0   5   4 3645.29   95.39
  -1  -5  -4 1547.81   41.65
  -1  -5  -4 1545.93   41.80
  -1  -5  -4 1560.44   40.47
  -1  -5  -4 1506.35   40.69
  -1  -5  -4 1500.71   41.09
   1   5   4 1500.86   40.46
   1   5   4 1459.64   40.91
  -2  -5  -4   93.80    4.68
  -2  -5  -4   90.35    4.12
  -2  -5  -4   93.01    4.70
  -2  -5  -4   94.79    4.49
  -2  -5  -4   94.26    4.34
   2   5   4   88.96    3.38
  -3  -5  -4  428.15   12.12
  -3  -5  -4  433.53   12.68
  -3  -5  -4  395.66   12.20
  -3  -5  -4  414.91   12.55
  -3  -5  -4  416.44   12.50
   3   5   4  415.33   12.55
  -4  -5  -4   22.27    1.54
  -4  -5  -4   24.93    1.52
  -4  -5  -4   23.47    1.65
  -4  -5  -4   23.53    3.87
   4   5   4   21.36    2.23
  -5  -5  -4  115.79    4.12
  -5  -5  -4  115.12    3.78
  -5  -5  -4  114.47    8.12
  -5  -5  -4  113.58    3.95
  -6  -5  -4  513.11   13.61
  -6  -5  -4  488.50   13.71
  -6  -5  -4  490.60   13.89
  -7  -5  -4  198.73    6.95
  -8  -5  -4    4.30    1.56
  -7   6   4   11.00    4.13
  -6   6   4  256.05   14.22
   5  -6  -4  113.16    7.14
  -5   6   4  116.48    8.59
  -5   6   4  102.20    8.97
   4  -6  -4  841.68   27.00
   4  -6  -4  817.87   28.87
   4  -6  -4  837.83   26.34
   4  -6  -4  824.82   23.64
   4  -6  -4  801.38   24.05
  -4   6   4  844.12   28.32
  -4   6   4  798.82   29.28
   3  -6  -4    4.63    1.72
   3  -6  -4    7.20    2.55
   3  -6  -4    6.60    1.67
   3  -6  -4    6.58    2.18
  -3   6   4    6.51    2.30
  -3   6   4   -0.35    1.67
  -3   6   4    7.51    2.88
   2  -6  -4   25.37    2.88
   2  -6  -4   23.86    3.51
   2  -6  -4   34.11    4.58
   2  -6  -4   24.43    3.41
  -2   6   4   25.25    4.34
  -2   6   4   30.20    4.91
  -2   6   4   22.74    3.51
   1  -6  -4  737.12   22.31
   1  -6  -4  731.73   21.04
   1  -6  -4  718.29   23.72
   1  -6  -4  738.58   22.83
  -1   6   4  730.78   23.86
  -1   6   4  722.26   23.01
  -1   6   4  676.96   23.79
   0  -6  -4 1188.48   35.64
   0  -6  -4 1224.36   34.10
   0  -6  -4 1217.64   33.59
   0  -6  -4 1147.55   34.76
   0   6   4 1206.90   34.20
   0   6   4 1180.76   34.63
  -1  -6  -4   85.41    4.90
  -1  -6  -4   91.05    4.77
  -1  -6  -4   96.10    5.56
  -1  -6  -4   88.34    5.54
   1   6   4   91.83    4.95
  -2  -6  -4  165.45    6.73
  -2  -6  -4  168.67    7.59
  -2  -6  -4  183.93    7.23
  -2  -6  -4  164.81    7.21
  -2  -6  -4  181.48    7.66
   2   6   4  174.94    6.36
  -3  -6  -4   93.12    4.79
  -3  -6  -4  102.13    4.66
  -3  -6  -4   94.90    4.35
  -3  -6  -4   93.94    4.91
  -3  -6  -4   90.50    4.69
   3   6   4   93.42    4.65
  -4  -6  -4   93.32    4.66
  -4  -6  -4  101.41    4.25
  -4  -6  -4   97.17    4.36
  -4  -6  -4   92.97    4.48
  -4  -6  -4   94.48    4.53
   4   6   4   97.48    4.89
  -5  -6  -4  460.52   19.20
  -5  -6  -4  434.03   12.81
  -5  -6  -4  452.41   13.59
  -5  -6  -4  434.24   13.16
  -5  -6  -4  423.20   13.27
  -5  -6  -4  437.88   13.08
   5   6   4  452.57   14.43
  -6  -6  -4  127.16    5.21
  -6  -6  -4  120.27    4.89
  -6  -6  -4  121.95    5.06
  -7  -6  -4  192.92    7.24
  -7  -6  -4  186.72    7.64
  -7  -6  -4  184.48    6.96
  -8  -6  -4   26.17    3.38
  -8  -6  -4   27.73    3.02
  -6   7   4   60.98    7.98
   5  -7  -4    1.50    1.64
   5  -7  -4    1.31    0.82
   5  -7  -4    1.98    0.82
  -5   7   4    3.02    2.41
   4  -7  -4  152.10   10.38
   4  -7  -4  169.91    9.51
   4  -7  -4  156.78    7.09
   4  -7  -4  160.13    8.87
   4  -7  -4  162.69    7.45
  -4   7   4  151.50    9.86
   3  -7  -4  942.62   29.34
   3  -7  -4  950.69   29.95
   3  -7  -4  933.09   27.33
  -3   7   4  932.10   31.87
  -3   7   4  924.05   30.65
   2  -7  -4   71.06    4.42
   2  -7  -4   75.46    5.39
   2  -7  -4   64.69    5.79
   2  -7  -4   68.20    5.40
  -2   7   4   68.00    6.03
  -2   7   4   64.96    6.04
  -2   7   4   72.25    5.73
   1  -7  -4  192.99    8.90
   1  -7  -4  177.38   10.23
   1  -7  -4  201.12    9.32
   1  -7  -4  197.18   10.10
  -1   7   4  190.88    9.51
  -1   7   4  197.77   10.09
   0  -7  -4  246.52   10.35
   0  -7  -4  241.00    9.89
   0  -7  -4  246.98   11.16
   0  -7  -4  237.02   11.42
   0   7   4  232.97   10.67
   0   7   4  248.26   10.50
  -1  -7  -4   93.64    5.23
  -1  -7  -4   95.48    6.05
  -1  -7  -4   93.73    6.15
  -1  -7  -4   87.92    5.42
   1   7   4   83.02    5.19
  -2  -7  -4  131.45    6.94
  -2  -7  -4  123.80    6.51
  -2  -7  -4  127.83    7.00
  -2  -7  -4  136.63    6.49
  -2  -7  -4  135.48    6.22
   2   7   4  124.91    5.74
  -3  -7  -4  325.37   12.16
  -3  -7  -4  329.64   12.37
  -3  -7  -4  340.46   12.09
  -3  -7  -4  330.95   11.34
  -3  -7  -4  332.66   11.64
   3   7   4  332.49   11.72
  -4  -7  -4    3.25    1.18
  -4  -7  -4    3.45    1.23
  -4  -7  -4    2.78    1.13
  -4  -7  -4    2.05    1.16
  -4  -7  -4    1.29    1.14
   4   7   4    1.97    1.16
  -5  -7  -4  160.90    6.67
  -5  -7  -4  168.31    7.01
  -5  -7  -4  171.70    7.60
  -5  -7  -4  173.61    7.43
   5   7   4  176.01    7.93
  -6  -7  -4  385.44   13.21
  -6  -7  -4  383.23   12.93
  -6  -7  -4  381.62   12.42
  -6  -7  -4  351.27   11.99
   6   7   4  343.45   14.11
  -7  -7  -4   39.80    4.28
  -7  -7  -4   36.61    3.14
  -7  -7  -4   35.46    3.53
  -8  -7  -4   31.54    4.06
  -6   8   4  123.05   10.07
   5  -8  -4  111.24    8.99
   5  -8  -4  128.84    5.67
  -5   8   4  132.82    9.96
   4  -8  -4   -0.04    1.48
   4  -8  -4   -0.13    0.87
   4  -8  -4    1.38    1.56
   4  -8  -4   -0.53    0.69
  -4   8   4    0.06    1.59
   3  -8  -4   89.68    6.58
   3  -8  -4   92.28    5.60
   3  -8  -4   94.69    7.07
  -3   8   4   91.49    7.42
   2  -8  -4   29.56    4.88
   2  -8  -4   42.43    4.23
   2  -8  -4   42.17    5.29
   2  -8  -4   42.53    4.88
  -2   8   4   35.79    5.21
  -2   8   4   53.97    9.18
   1  -8  -4  292.55   12.19
   1  -8  -4  273.62   13.50
   1  -8  -4  290.16   12.57
  -1   8   4  296.40   13.02
  -1   8   4  288.35   13.40
   0  -8  -4  345.56   14.77
   0  -8  -4  340.97   13.20
   0  -8  -4  348.99   15.29
   0  -8  -4  343.33   13.68
   0   8   4  330.03   13.76
   0   8   4  348.33   14.48
  -1  -8  -4 2121.98   60.47
  -1  -8  -4 2095.59   60.09
  -1  -8  -4 2231.87   58.98
  -1  -8  -4 2231.42   58.37
   1   8   4 2067.82   58.39
  -2  -8  -4 3013.85   77.31
  -2  -8  -4 2934.80   78.63
  -2  -8  -4 2866.42   78.23
  -2  -8  -4 2888.77   76.44
   2   8   4 2819.26   76.21
  -3  -8  -4  654.40   19.61
  -3  -8  -4  617.64   19.86
  -3  -8  -4  601.18   20.81
  -3  -8  -4  584.02   20.64
   3   8   4  637.42   19.94
  -4  -8  -4 1072.54   31.01
  -4  -8  -4 1075.25   31.41
  -4  -8  -4 1092.26   32.66
  -4  -8  -4 1091.33   32.45
   4   8   4 1116.82   32.07
  -5  -8  -4    1.67    1.27
  -5  -8  -4    4.24    1.68
  -5  -8  -4    7.28    1.68
  -5  -8  -4    4.59    1.73
   5   8   4    2.72    1.49
  -6  -8  -4  116.15    6.07
  -6  -8  -4  128.64    6.44
  -6  -8  -4  112.07    6.74
  -6  -8  -4  106.39    6.57
   6   8   4  125.01   11.88
  -7  -8  -4  114.20    6.88
  -7  -8  -4  114.09    6.10
  -7  -8  -4  112.45    6.30
   5  -9  -4   18.36    2.57
  -5   9   4   15.88    4.75
   4  -9  -4   48.83    4.22
   4  -9  -4   37.10    5.49
   4  -9  -4   48.84    6.69
   4  -9  -4   38.78    4.55
  -4   9   4   44.96    6.93
   3  -9  -4  172.74   10.04
   3  -9  -4  177.66   10.45
   3  -9  -4  171.31    8.40
  -3   9   4  182.10   11.31
   2  -9  -4   24.21    4.38
   2  -9  -4   32.90    4.78
   2  -9  -4   28.86    3.66
  -2   9   4   32.68    5.26
   1  -9  -4   10.96    2.86
   1  -9  -4    3.55    1.94
   1  -9  -4    7.12    2.38
  -1   9   4   12.72    3.39
   0  -9  -4  453.21   17.47
   0  -9  -4  436.41   19.02
   0  -9  -4  436.92   18.63
   0  -9  -4  468.81   17.05
   0   9   4  497.71   18.15
  -1  -9  -4   46.87    5.90
  -1  -9  -4   47.22    5.34
  -1  -9  -4   52.99    6.53
  -1  -9  -4   50.16    5.20
   1   9   4   50.89    5.56
  -2  -9  -4   38.11    5.52
  -2  -9  -4   30.06    4.63
  -2  -9  -4   42.63    4.76
  -2  -9  -4   34.39    4.39
   2   9   4   31.57    4.06
  -3  -9  -4  914.87   29.83
  -3  -9  -4  947.82   28.75
  -3  -9  -4  890.32   29.81
  -3  -9  -4  949.12   28.30
   3   9   4  939.56   28.53
  -4  -9  -4    3.04    1.65
  -4  -9  -4    1.20    1.35
  -4  -9  -4    1.24    1.38
  -4  -9  -4    2.46    1.38
   4   9   4    0.31    1.22
  -5  -9  -4  113.10    6.77
  -5  -9  -4  123.86    6.70
  -5  -9  -4  114.96    7.36
  -5  -9  -4  113.13    7.38
   5   9   4   96.57    6.73
  -6  -9  -4   23.87    3.54
  -6  -9  -4   26.30    4.27
  -6  -9  -4   27.69    3.80
  -7  -9  -4   30.65    4.17
  -7  -9  -4   18.49    3.63
  -7  -9  -4   37.20    5.00
   5 -10  -4  237.51    9.80
  -5  10   4  248.98   15.48
   4 -10  -4   22.10    4.76
   4 -10  -4   20.83    4.52
  -4  10   4   24.55    5.47
   3 -10  -4   52.71    5.39
   3 -10  -4   57.15    7.04
   3 -10  -4   65.54    7.51
  -3  10   4   78.29    8.97
   2 -10  -4  351.35   16.11
   2 -10  -4  360.22   15.62
   2 -10  -4  344.11   13.55
  -2  10   4  339.03   16.48
   1 -10  -4   65.85    7.45
   1 -10  -4   69.14    7.13
  -1  10   4   63.34    7.42
   0 -10  -4  631.11   22.87
   0 -10  -4  672.49   23.79
   0 -10  -4  639.99   25.10
   0  10   4  682.51   23.87
  -1 -10  -4   55.72    5.89
  -1 -10  -4   56.69    6.36
  -1 -10  -4   50.48    6.55
  -2 -10  -4  250.27   13.34
  -2 -10  -4  252.01   11.97
  -2 -10  -4  245.80   11.47
  -2 -10  -4  265.06   13.34
   2  10   4  251.82   11.36
  -3 -10  -4  241.43   11.20
  -3 -10  -4  232.85   12.44
  -3 -10  -4  252.96   11.81
  -3 -10  -4  246.48   12.77
   3  10   4  253.68   11.50
  -4 -10  -4    0.97    1.45
  -4 -10  -4   -2.22    1.16
  -4 -10  -4    3.29    1.87
  -4 -10  -4   -0.14    1.19
   4  10   4    0.35    1.36
  -5 -10  -4   87.93    7.02
  -5 -10  -4   96.58    7.46
  -5 -10  -4   95.14    6.75
  -5 -10  -4   89.37    6.41
   5  10   4   86.58    7.84
  -6 -10  -4  136.32    8.91
  -6 -10  -4  141.82    8.37
  -6 -10  -4  139.64    8.09
   4 -11  -4   11.42    4.16
   4 -11  -4    8.04    3.30
  -4  11   4    8.41    3.89
   3 -11  -4    1.35    1.97
   3 -11  -4   -1.41    1.17
   3 -11  -4    6.94    3.18
  -3  11   4    0.91    2.39
   2 -11  -4   43.75    6.39
   2 -11  -4   45.13    6.88
   2 -11  -4   39.67    4.96
  -2  11   4   47.53    7.20
   1 -11  -4   27.98    5.14
   1 -11  -4   16.25    3.77
  -1  11   4   18.49    4.21
   0 -11  -4  222.93   11.88
   0 -11  -4  231.24   12.49
  -1 -11  -4   87.76    7.35
  -1 -11  -4   92.79    8.36
  -1 -11  -4   84.29    6.85
   1  11   4   89.07    6.57
  -2 -11  -4   50.02    7.33
  -2 -11  -4   38.62    5.48
  -2 -11  -4   42.97    5.66
   2  11   4   37.53    4.90
  -3 -11  -4   27.70    4.58
  -3 -11  -4   27.79    5.32
  -3 -11  -4   25.81    4.54
   3  11   4   28.69    4.52
  -4 -11  -4   42.80    6.37
  -4 -11  -4   59.60    6.72
  -4 -11  -4   56.80    6.51
   4  11   4   47.56    5.92
  -5 -11  -4    1.16    1.66
  -5 -11  -4   -2.19    0.99
  -5 -11  -4    3.21    1.90
   5  11   4    2.47    1.81
   3 -12  -4    0.93    2.38
   3 -12  -4    3.37    2.84
  -3  12   4    0.11    2.83
   2 -12  -4  101.58   10.74
   2 -12  -4  100.54   10.00
   1 -12  -4  127.20    9.56
   1 -12  -4  151.93   10.70
   0 -12  -4   60.99    7.63
   0 -12  -4   54.32    7.15
   0  12   4   59.42    6.78
  -1 -12  -4  304.87   15.44
  -1 -12  -4  304.19   14.82
   1  12   4  306.27   14.31
  -2 -12  -4  114.10    9.72
  -2 -12  -4  121.37    8.75
  -2 -12  -4  104.40    8.58
   2  12   4  118.28    8.28
  -3 -12  -4   41.20    6.35
  -3 -12  -4   49.97    7.89
  -3 -12  -4   39.54    6.10
   3  12   4   48.29    6.51
  -4 -12  -4   12.79    4.08
  -4 -12  -4    5.21    2.90
  -4 -12  -4    7.47    3.21
   4  12   4    9.72    3.06
   0 -13  -4   35.78    6.44
   0 -13  -4   50.06    7.30
   0  13   4   40.87    5.89
  -1 -13  -4   39.04    6.22
  -1 -13  -4   48.70    7.45
   1  13   4   44.84    6.21
  -2 -13  -4   77.23    8.68
  -2 -13  -4   81.48    9.40
   2  13   4   99.61    9.41
   2   9  -5   75.45    9.26
  -2  -9   5   49.59    8.19
  -2  -9   5   51.86    7.69
   1   9  -5   62.10    8.23
  -1  -9   5   62.71    8.47
  -1  -9   5   53.94    8.25
   0   9  -5  118.52   10.17
   0   9  -5  102.57    9.87
   0  -9   5   96.46   10.24
   0  -9   5  110.09   11.66
  -1   9  -5    0.88    1.85
  -1   9  -5    2.11    2.86
   1  -9   5    2.00    2.72
   1  -9   5    0.66    2.28
  -2   9  -5  231.15   13.10
  -2   9  -5  240.97   15.18
   2  -9   5  248.93   14.54
   2  -9   5  235.21   14.64
  -3   9  -5    5.31    3.54
  -3   9  -5    2.00    2.09
   4   8  -5    0.89    2.65
  -4  -8   5    3.65    3.18
  -4  -8   5    6.25    3.35
   3   8  -5   55.04    7.89
  -3  -8   5   67.47    8.82
  -3  -8   5   52.63    7.86
   2   8  -5   70.57    8.59
  -2  -8   5   64.92    8.68
  -2  -8   5   72.95    8.76
   1   8  -5   56.98   11.27
   1   8  -5   79.68    8.71
  -1  -8   5   63.52    8.10
  -1  -8   5   48.25    7.25
   0   8  -5  318.79   16.63
   0   8  -5  300.78   14.87
   0  -8   5  286.56   15.79
   0  -8   5  323.44   16.03
  -1   8  -5   10.23    3.58
  -1   8  -5   11.71    3.38
   1  -8   5   10.41    3.66
   1  -8   5    8.08    3.29
  -2   8  -5   83.46    9.66
  -2   8  -5   78.67    7.84
   2  -8   5   62.36    7.84
   2  -8   5   80.24    9.41
  -3   8  -5  261.79   15.53
  -3   8  -5  267.33   13.18
   3  -8   5  249.21   14.03
  -4   8  -5   -3.22    1.72
  -4   8  -5    0.73    2.64
   5   7  -5    2.39    2.59
  -5  -7   5   -0.36    2.32
  -5  -7   5    1.68    2.19
   4   7  -5   14.63    4.16
  -4  -7   5   14.54    4.28
  -4  -7   5   15.51    4.37
   3   7  -5   51.02    6.82
  -3  -7   5   57.16    7.49
  -3  -7   5   50.06    7.32
   2   7  -5  300.39   14.84
  -2  -7   5  314.69   15.40
  -2  -7   5  295.95   15.49
   1   7  -5    9.57    3.40
   1   7  -5   12.06    3.49
  -1  -7   5    4.62    2.43
  -1  -7   5   12.07    3.42
   0   7  -5  371.95   17.74
   0   7  -5  396.46   16.61
   0  -7   5  376.02   17.08
   0  -7   5  380.28   17.68
  -1   7  -5   73.89    7.58
  -1   7  -5   71.76    8.27
   1  -7   5   83.50    8.86
   1  -7   5   76.62    8.54
  -2   7  -5   26.43    5.26
  -2   7  -5   22.67    4.13
   2  -7   5   16.22    4.01
   2  -7   5   19.62    4.16
   2  -7   5   20.44    3.29
  -3   7  -5  219.73   11.15
  -3   7  -5  216.11   13.29
   3  -7   5  225.84   12.74
   3  -7   5  206.14   12.00
  -4   7  -5    6.03    3.15
  -4   7  -5    8.49    2.58
   4  -7   5    8.59    2.90
  -5   7  -5   -1.22    2.23
  -5   7  -5   -0.39    1.78
  -5  -6   5  129.81   10.02
  -5  -6   5  146.11   10.88
   4   6  -5   52.67    7.13
  -4  -6   5   35.73    6.16
  -4  -6   5   41.11    6.32
   3   6  -5   84.37    8.66
  -3  -6   5   75.67    7.98
  -3  -6   5   74.83    8.43
   2   6  -5   39.93    5.39
   2   6  -5   31.53    5.07
  -2  -6   5   39.57    5.76
  -2  -6   5   42.46    6.09
   1   6  -5   11.83    3.07
   1   6  -5    6.58    2.85
  -1  -6   5    6.18    2.43
  -1  -6   5   11.61    3.33
   0   6  -5   16.12    3.35
   0   6  -5   12.89    3.80
   0  -6   5   15.75    3.76
   0  -6   5   15.22    3.63
  -1   6  -5 1378.84   40.76
  -1   6  -5 1367.66   43.21
   1  -6   5 1371.07   42.77
   1  -6   5 1325.99   39.66
   1  -6   5 1412.66   42.32
  -2   6  -5   55.44    7.05
  -2   6  -5   59.40    5.98
   2  -6   5   55.60    6.43
   2  -6   5   64.71    4.80
   2  -6   5   69.39    7.81
  -3   6  -5    7.86    3.07
  -3   6  -5   10.47    2.67
   3  -6   5   14.36    3.58
   3  -6   5   15.24    3.77
  -4   6  -5  173.61   11.27
  -4   6  -5  161.90    8.82
   4  -6   5  162.90    9.68
  -5   6  -5   18.86    3.33
  -5   6  -5   12.62    3.83
   5  -6   5   13.04    3.57
  -6   6  -5   72.16    6.65
  -6   6  -5   65.43    8.61
  -6  -5   5  194.35   12.83
  -5  -5   5    9.91    3.65
  -5  -5   5    5.88    3.14
   4   5  -5    4.10    2.48
  -4  -5   5    4.26    2.49
  -4  -5   5    2.63    1.86
   3   5  -5    7.44    2.80
  -3  -5   5    9.08    3.09
  -3  -5   5    7.26    2.76
  -3  -5   5    7.50    2.70
   2   5  -5  140.47    8.89
   2   5  -5  142.83    8.74
  -2  -5   5  138.64    8.82
  -2  -5   5  139.55    9.21
   1   5  -5   70.19    6.90
   1   5  -5   64.23    8.80
   1   5  -5   67.02    7.05
  -1  -5   5   69.23    5.27
  -1  -5   5   78.67    8.00
  -1  -5   5   74.59    7.03
  -1  -5   5   78.43    6.26
   0   5  -5  669.97   21.78
   0   5  -5  644.80   23.73
   0   5  -5  604.65   24.35
   0   5  -5  630.99   23.19
   0  -5   5  644.24   22.98
   0  -5   5  633.93   23.78
   0  -5   5  705.66   23.13
   0  -5   5  532.48   20.13
  -1   5  -5  162.81   10.15
  -1   5  -5  164.78   10.60
  -1   5  -5  158.83    9.63
  -1   5  -5  154.11    7.47
  -1   5  -5  165.88    8.42
   1  -5   5  162.24    9.50
   1  -5   5  158.51    7.89
   1  -5   5  152.27    9.00
  -2   5  -5  580.42   28.00
  -2   5  -5  543.85   20.93
  -2   5  -5  552.90   18.31
  -2   5  -5  509.28   21.82
  -2   5  -5  545.26   18.69
   2  -5   5  541.52   17.73
   2  -5   5  555.01   20.09
   2  -5   5  545.42   20.51
  -3   5  -5   -2.45    0.86
  -3   5  -5    0.15    1.43
  -3   5  -5    0.26    1.55
   3  -5   5   -0.01    1.22
   3  -5   5    1.04    1.53
  -4   5  -5  587.17   22.80
  -4   5  -5  587.46   19.70
  -4   5  -5  598.04   24.18
   4  -5   5  602.30   21.27
   4  -5   5  577.57   21.02
  -5   5  -5    1.42    2.03
  -5   5  -5    2.03    1.62
  -5   5  -5    0.57    1.69
   5  -5   5    2.22    2.02
  -6   5  -5    0.09    1.26
  -6   5  -5    5.34    3.02
  -6   5  -5    5.99    2.87
  -7   5  -5   54.19    7.75
  -7   5  -5   50.24    7.70
  -6  -4   5   40.35    6.60
  -5  -4   5   75.69    8.69
  -4  -4   5  262.76   13.11
  -4  -4   5  256.26   13.33
  -4  -4   5  265.70   13.79
   3   4  -5 1621.79   47.13
   3   4  -5 1617.11   47.65
  -3  -4   5 1622.06   48.35
  -3  -4   5 1552.02   49.78
  -3  -4   5 1621.74   48.15
  -3  -4   5 1658.56   47.98
  -3  -4   5 1590.72   45.71
   2   4  -5   26.07    4.17
   2   4  -5   19.36    4.25
   2   4  -5   16.34    3.57
  -2  -4   5   15.23    2.83
  -2  -4   5   17.88    3.48
  -2  -4   5   25.37    4.29
  -2  -4   5   16.10    3.35
   1   4  -5  803.06   26.85
   1   4  -5  829.18   26.09
   1   4  -5  800.42   28.26
  -1  -4   5  789.70   24.98
  -1  -4   5  842.71   26.72
  -1  -4   5  833.25   27.20
  -1  -4   5  759.69   27.78
   0   4  -5  165.48    7.34
   0   4  -5  171.35   10.23
   0   4  -5  160.67    9.22
   0   4  -5  160.65    8.22
   0  -4   5  153.68    7.69
   0  -4   5  159.88    9.07
   0  -4   5  173.15    9.93
   0  -4   5  179.59    9.14
  -1   4  -5  402.82   17.63
  -1   4  -5  418.75   14.50
  -1   4  -5  446.42   17.10
  -1   4  -5  436.45   15.23
   1  -4   5  421.95   13.96
   1  -4   5  422.43   16.12
   1  -4   5  427.95   17.24
   1  -4   5  431.31   16.52
   1  -4   5  405.57   14.52
  -2   4  -5   30.45    3.55
  -2   4  -5   21.34    4.03
  -2   4  -5   24.58    4.06
  -2   4  -5   29.22    3.66
   2  -4   5   31.85    4.61
   2  -4   5   26.76    3.91
   2  -4   5   33.78    3.31
  -3   4  -5  478.60   19.48
  -3   4  -5  498.28   16.42
  -3   4  -5  492.69   18.90
  -3   4  -5  469.40   19.61
  -3   4  -5  491.09   16.57
   3  -4   5  492.69   17.73
   3  -4   5  485.95   14.44
   3  -4   5  492.34   18.06
  -4   4  -5  268.14   13.88
  -4   4  -5  294.67   14.17
  -4   4  -5  276.75   10.90
  -4   4  -5  281.41   13.29
   4  -4   5  288.14   12.50
   4  -4   5  285.67   12.00
  -5   4  -5  102.66    8.33
  -5   4  -5   99.99    5.71
  -5   4  -5  104.15    7.76
   5  -4   5   93.95    7.20
  -6   4  -5  198.34   11.52
  -6   4  -5  198.01    8.75
  -6   4  -5  192.17   12.22
   6  -4   5  215.91   12.29
  -7   4  -5  292.91   16.03
  -7   4  -5  289.57   15.08
  -7  -3   5    2.35    2.69
  -6  -3   5   16.75    4.31
  -5  -3   5    0.67    1.90
   4   3  -5 2155.22   57.29
  -4  -3   5 2029.24   60.40
  -4  -3   5 2049.42   62.01
  -4  -3   5 2006.91   56.11
  -4  -3   5 2149.57   60.23
   3   3  -5 1166.77   33.68
   3   3  -5 1117.98   34.02
  -3  -3   5 1070.19   31.16
  -3  -3   5 1105.45   36.19
  -3  -3   5 1086.03   33.99
  -3  -3   5 1070.73   34.31
  -3  -3   5 1028.69   33.75
  -3  -3   5 1049.55   32.05
   2   3  -5  628.67   21.63
   2   3  -5  593.82   22.78
   2   3  -5  679.46   22.41
  -2  -3   5  622.33   22.30
  -2  -3   5  661.63   22.26
  -2  -3   5  666.46   21.71
  -2  -3   5  652.00   20.76
   1   3  -5  259.02    9.58
   1   3  -5  272.85   11.33
   1   3  -5  280.49   12.14
   1   3  -5  267.49   12.98
  -1  -3   5  265.29   10.62
  -1  -3   5  278.28   12.10
  -1  -3   5  268.73   12.75
  -1  -3   5  267.39   11.67
   0   3  -5  243.51    8.95
   0   3  -5  207.85    9.36
   0   3  -5  213.25   11.33
   0   3  -5  207.75   10.29
   0  -3   5  230.45   10.55
   0  -3   5  235.14    9.33
   0  -3   5  214.10    8.48
   0  -3   5  230.99   10.23
   0  -3   5  214.67   10.87
  -1   3  -5   66.58    5.28
  -1   3  -5   63.16    5.58
  -1   3  -5   61.89    4.32
  -1   3  -5   64.13    4.13
   1  -3   5   59.73    4.75
   1  -3   5   64.69    3.82
   1  -3   5   65.37    5.12
   1  -3   5   70.29    5.56
  -2   3  -5  232.37   10.74
  -2   3  -5  215.51    9.00
  -2   3  -5  233.26    9.21
  -2   3  -5  236.83   11.65
   2  -3   5  241.52   10.55
   2  -3   5  246.91    8.27
   2  -3   5  217.96    9.92
  -3   3  -5   88.67    4.91
  -3   3  -5   93.64    6.89
  -3   3  -5   89.64    5.09
  -3   3  -5   83.22    6.11
   3  -3   5   89.62    5.23
   3  -3   5   90.18    3.40
   3  -3   5   82.32    5.50
   3  -3   5   86.87    3.45
   3  -3   5   96.19    6.01
  -4   3  -5   65.44    5.39
  -4   3  -5   68.92    5.94
  -4   3  -5   66.39    4.41
  -4   3  -5   62.32    4.06
  -4   3  -5   65.05    5.83
   4  -3   5   68.65    4.98
   4  -3   5   63.57    4.99
   4  -3   5   56.79    4.39
  -5   3  -5  160.03    9.81
  -5   3  -5  149.86    9.45
  -5   3  -5  164.75    7.00
  -5   3  -5  160.71    9.15
   5  -3   5  154.82    9.11
  -6   3  -5   58.94    6.84
  -6   3  -5   60.10    7.01
  -6   3  -5   54.03    6.37
  -6   3  -5   57.79    4.01
   6  -3   5   53.97    6.88
  -7   3  -5   57.29    6.86
  -7   3  -5   60.47    7.33
  -7  -2   5   34.13    6.23
  -5  -2   5    5.68    1.87
  -5  -2   5    6.36    2.55
   4   2  -5    0.97    1.27
   4   2  -5    3.69    1.44
  -4  -2   5    0.50    1.49
  -4  -2   5    3.55    1.26
  -4  -2   5    0.56    1.31
  -4  -2   5    1.20    1.55
   3   2  -5  596.61   20.20
  -3  -2   5  612.86   21.06
  -3  -2   5  583.65   21.03
  -3  -2   5  558.87   22.13
  -3  -2   5  585.48   19.35
  -3  -2   5  601.26   18.53
   2   2  -5   41.80    5.31
   2   2  -5   36.90    4.54
   2   2  -5   44.91    5.11
   2   2  -5   42.44    2.75
  -2  -2   5   33.85    4.02
  -2  -2   5   30.09    4.03
  -2  -2   5   40.83    3.75
  -2  -2   5   46.29    5.45
  -2  -2   5   43.88    3.60
   1   2  -5  553.12   17.50
   1   2  -5  605.71   19.37
   1   2  -5  607.63   20.17
  -1  -2   5  611.60   17.90
  -1  -2   5  575.71   20.95
  -1  -2   5  577.98   18.58
  -1  -2   5  576.52   18.21
  -1  -2   5  605.59   20.17
  -1  -2   5  574.45   19.64
   0   2  -5   11.59    2.49
   0   2  -5   18.17    3.53
   0   2  -5    8.87    1.59
   0   2  -5   15.79    2.65
   0  -2   5   14.63    2.98
   0  -2   5   13.25    2.73
   0  -2   5   15.27    2.78
   0  -2   5   12.83    1.94
  -1   2  -5  128.06    6.06
  -1   2  -5  130.37    7.80
  -1   2  -5  128.46    6.20
  -1   2  -5  127.32    7.18
   1  -2   5  133.63    6.90
   1  -2   5  135.90    5.56
   1  -2   5  133.53    7.44
   1  -2   5  132.23    7.06
  -2   2  -5   22.87    3.41
  -2   2  -5   32.28    4.11
  -2   2  -5   38.15    2.99
  -2   2  -5   32.79    3.28
   2  -2   5   32.45    3.77
   2  -2   5   28.19    2.04
   2  -2   5   36.29    4.18
  -3   2  -5  321.15   11.69
  -3   2  -5  355.85   13.53
  -3   2  -5  347.79   11.39
  -3   2  -5  363.51   14.26
   3  -2   5  348.01   12.71
   3  -2   5  350.98   12.13
   3  -2   5  347.74   12.44
  -4   2  -5    8.94    2.53
  -4   2  -5    1.81    0.95
  -4   2  -5    1.27    1.37
   4  -2   5    2.95    1.49
   4  -2   5   -0.13    0.53
   4  -2   5    1.17    0.99
  -5   2  -5   20.89    3.57
  -5   2  -5   26.56    3.92
  -5   2  -5   29.40    4.38
  -5   2  -5   28.15    2.76
   5  -2   5   30.33    4.58
  -6   2  -5  222.91   10.61
  -6   2  -5  190.20   10.47
  -6   2  -5  189.49    8.62
  -6   2  -5  187.66   10.47
   6  -2   5  199.92   11.41
  -7   2  -5    0.70    1.55
  -7   2  -5   -1.30    1.48
  -7   2  -5    0.57    1.68
  -8   2  -5    4.85    2.63
  -8   2  -5    2.43    2.68
  -7  -1   5   -0.84    2.23
  -6  -1   5   71.08    7.85
  -5  -1   5  105.24    6.52
  -5  -1   5  118.72    8.34
  -5  -1   5  117.94    9.06
   4   1  -5    7.38    2.03
   4   1  -5    5.95    1.81
  -4  -1   5    3.43    1.84
  -4  -1   5    3.95    1.47
  -4  -1   5    3.48    1.99
  -4  -1   5    4.73    2.22
   3   1  -5  230.13   10.04
   3   1  -5  204.89   10.37
  -3  -1   5  218.10    8.68
  -3  -1   5  204.75   11.29
  -3  -1   5  224.04   10.75
  -3  -1   5  228.86   10.41
   2   1  -5   38.64    2.62
   2   1  -5   30.85    3.98
   2   1  -5   26.58    3.92
  -2  -1   5   35.32    3.30
  -2  -1   5   29.96    3.55
  -2  -1   5   44.24    5.12
   1   1  -5  172.48    6.96
   1   1  -5  166.68    7.76
   1   1  -5  172.42    8.98
   1   1  -5  166.12    8.19
  -1  -1   5  172.64    6.85
  -1  -1   5  170.86    8.37
  -1  -1   5  166.92    6.89
  -1  -1   5  176.75    9.19
   0   1  -5  152.91    6.48
   0   1  -5  151.79    7.49
   0   1  -5  141.37    6.59
   0   1  -5  151.14    8.16
   0  -1   5  153.84    7.27
   0  -1   5  146.91    7.35
   0  -1   5  147.49    5.39
   0  -1   5  153.31    7.96
   0  -1   5  140.96    5.85
  -1   1  -5  744.41   23.82
  -1   1  -5  763.28   22.96
  -1   1  -5  718.44   21.20
  -1   1  -5  739.55   21.33
   1  -1   5  716.60   22.38
   1  -1   5  741.63   22.99
   1  -1   5  734.31   20.26
   1  -1   5  707.64   22.11
  -2   1  -5  130.08    6.55
  -2   1  -5  124.47    5.52
  -2   1  -5  120.83    5.23
  -2   1  -5  111.90    5.96
  -2   1  -5  137.33    7.14
   2  -1   5  128.09    6.23
   2  -1   5  125.84    4.10
   2  -1   5  123.44    4.84
   2  -1   5  131.12    6.13
  -3   1  -5  193.85    7.25
  -3   1  -5  196.77    8.59
  -3   1  -5  195.07    9.02
  -3   1  -5  202.00    6.97
  -3   1  -5  197.51    8.16
  -3   1  -5  189.50    8.28
   3  -1   5  190.11    7.77
   3  -1   5  193.38    7.81
  -4   1  -5   89.84    3.90
  -4   1  -5   85.31    5.31
  -4   1  -5   77.59    4.77
  -4   1  -5   85.85    5.09
  -4   1  -5   83.93    5.58
   4  -1   5   86.79    5.58
   4  -1   5   87.83    4.20
  -5   1  -5  749.44   23.88
  -5   1  -5  733.39   23.22
  -5   1  -5  722.45   20.25
   5  -1   5  746.79   24.82
  -6   1  -5 1232.47   37.33
  -6   1  -5 1264.46   36.89
  -6   1  -5 1290.35   37.78
   6  -1   5 1225.34   39.55
  -7   1  -5  360.58   14.96
  -7   1  -5  358.05   14.36
  -7   1  -5  347.09   14.76
   7  -1   5  308.47   16.36
  -8   1  -5  488.14   19.74
  -8   1  -5  492.94   19.86
  -8   1  -5  511.97   19.20
  -7   0   5    1.56    2.78
  -6   0   5   15.86    3.82
   5   0  -5 1344.76   42.52
  -5   0   5 1415.28   41.68
  -5   0   5 1288.78   41.46
  -5   0   5 1260.51   42.31
  -5   0   5 1295.38   37.44
   4   0  -5    7.36    2.20
   4   0  -5    5.56    1.80
   4   0  -5    2.18    1.70
  -4   0   5    6.41    2.42
  -4   0   5    5.10    2.43
  -4   0   5    7.16    1.63
  -4   0   5    4.94    2.26
   3   0  -5   47.09    4.86
   3   0  -5   52.89    4.79
   3   0  -5   46.70    2.58
   3   0  -5   60.83    4.90
   3   0  -5   49.02    3.94
  -3   0   5   55.41    3.75
  -3   0   5   45.28    4.95
  -3   0   5   60.04    6.89
  -3   0   5   54.75    5.67
   2   0  -5  335.71   10.83
   2   0  -5  314.23   11.93
   2   0  -5  331.93   12.56
   2   0  -5  319.90   13.33
  -2   0   5  332.25   13.05
  -2   0   5  321.37   11.00
  -2   0   5  322.88   11.83
   1   0  -5  102.98    5.87
   1   0  -5  109.84    5.13
   1   0  -5   94.98    6.28
  -1   0   5   98.99    6.45
  -1   0   5  107.78    4.79
  -1   0   5   99.60    5.92
   0   0  -5   67.67    3.57
   0   0  -5   63.44    4.87
   0   0  -5   74.91    4.07
   0   0  -5   60.64    4.39
   0   0   5   76.09    2.80
   0   0   5   74.16    4.70
   0   0   5   72.80    3.56
   0   0   5   62.04    4.73
  -1   0  -5 2880.49   73.43
  -1   0  -5 2893.79   76.53
  -1   0  -5 2935.36   75.57
  -1   0  -5 2782.13   73.85
  -1   0  -5 2866.66   75.07
   1   0   5 2962.92   75.27
   1   0   5 2861.63   72.74
   1   0   5 2903.66   75.70
  -2   0  -5 1738.52   44.29
  -2   0  -5 1728.46   46.18
  -2   0  -5 1685.27   45.83
  -2   0  -5 1732.03   46.20
  -2   0  -5 1719.03   44.43
  -2   0  -5 1755.48   47.02
   2   0   5 1710.84   43.99
   2   0   5 1639.85   45.47
  -3   0  -5  281.59    8.35
  -3   0  -5  272.23   10.02
  -3   0  -5  257.69    9.61
  -3   0  -5  272.04    9.97
  -3   0  -5  271.82    8.30
  -3   0  -5  290.47   10.64
   3   0   5  281.72    9.86
   3   0   5  262.56    8.87
  -4   0  -5  303.92   10.55
  -4   0  -5  292.63    8.74
  -4   0  -5  304.73   11.28
  -4   0  -5  315.38   11.36
  -4   0  -5  303.88    8.90
  -4   0  -5  299.38   10.72
  -4   0  -5  308.59   10.95
   4   0   5  318.33   12.08
  -5   0  -5  164.92    8.56
  -5   0  -5  185.05    8.08
  -5   0  -5  168.86    7.18
  -5   0  -5  179.97    5.70
  -5   0  -5  176.87    5.51
  -5   0  -5  191.99    7.98
  -5   0  -5  166.98    7.39
   5   0   5  177.75    9.40
  -6   0  -5  767.67   23.67
  -6   0  -5  779.59   24.18
  -6   0  -5  767.79   24.33
  -6   0  -5  757.02   25.92
   6   0   5  795.56   27.40
  -7   0  -5   91.66    6.33
  -7   0  -5  103.93    6.66
  -7   0  -5  101.05    6.20
   7   0   5  102.24   10.22
  -8   0  -5  170.64    9.64
  -8   0  -5  178.24    9.20
  -8   0  -5  185.72    9.94
  -7   1   5  270.45   14.64
  -6   1   5   17.28    4.17
   5  -1  -5  410.57   18.30
   5  -1  -5  402.10   14.48
  -5   1   5  383.29   17.09
  -5   1   5  416.70   18.46
  -5   1   5  437.14   17.49
  -5   1   5  394.00   14.32
   4  -1  -5  706.81   22.08
   4  -1  -5  715.13   22.70
   4  -1  -5  697.92   24.82
  -4   1   5  689.82   23.98
  -4   1   5  744.32   24.51
  -4   1   5  681.63   25.39
  -4   1   5  709.55   21.52
   3  -1  -5    0.92    1.03
   3  -1  -5   -0.06    0.84
   3  -1  -5    2.27    1.39
   3  -1  -5    1.70    0.74
  -3   1   5    0.45    0.84
  -3   1   5    0.86    1.21
  -3   1   5    2.06    1.38
  -3   1   5    0.08    0.90
   2  -1  -5  138.82    6.81
   2  -1  -5  133.80    7.59
   2  -1  -5  143.03    6.87
   2  -1  -5  138.52    5.68
   2  -1  -5  142.46    6.05
   2  -1  -5  142.72    7.14
  -2   1   5  137.94    5.96
  -2   1   5  136.87    7.39
  -2   1   5  140.59    6.55
  -2   1   5  140.99    8.12
   1  -1  -5 3285.20   84.88
   1  -1  -5 3196.34   83.44
   1  -1  -5 3182.76   81.71
   1  -1  -5 3233.39   81.45
  -1   1   5 3068.33   84.73
  -1   1   5 3192.69   81.42
  -1   1   5 3186.75   83.67
  -1   1   5 3202.29   81.33
   0  -1  -5   20.91    3.07
   0  -1  -5   23.75    3.06
   0  -1  -5   30.04    1.66
   0  -1  -5   27.12    2.13
   0   1   5   33.04    3.54
   0   1   5   30.39    2.06
   0   1   5   27.34    3.67
  -1  -1  -5 1036.92   29.85
  -1  -1  -5 1067.12   29.95
  -1  -1  -5 1064.30   28.19
  -1  -1  -5 1083.85   30.86
   1   1   5 1036.07   29.90
   1   1   5 1061.16   29.56
   1   1   5 1095.44   27.25
  -2  -1  -5 4899.45  129.25
  -2  -1  -5 4869.45  122.61
  -2  -1  -5 4652.47  122.48
  -2  -1  -5 4805.80  125.24
  -2  -1  -5 4892.96  124.99
  -2  -1  -5 4995.71  123.25
   2   1   5 4819.10  121.81
  -3  -1  -5  278.98    9.62
  -3  -1  -5  287.68    9.66
  -3  -1  -5  282.26    9.79
  -3  -1  -5  285.05    9.80
  -3  -1  -5  269.47    9.34
  -4  -1  -5   28.78    3.58
  -4  -1  -5   27.72    2.33
  -4  -1  -5   29.24    2.38
  -4  -1  -5   27.84    2.32
  -4  -1  -5   27.61    2.24
   4   1   5   31.38    3.82
  -5  -1  -5  898.13   25.75
  -5  -1  -5  921.56   28.75
  -5  -1  -5  916.23   25.59
  -5  -1  -5  929.51   26.00
  -5  -1  -5  920.00   25.38
   5   1   5  931.31   29.40
  -6  -1  -5  273.96    9.98
  -6  -1  -5  269.39   12.93
  -6  -1  -5  265.81   10.18
   6   1   5  293.23   13.85
  -7  -1  -5    1.52    1.21
  -7  -1  -5    0.88    1.20
  -7  -1  -5    3.03    1.38
   7   1   5    4.84    2.67
  -8  -1  -5   74.17    5.52
  -8  -1  -5   69.19    5.10
  -8  -1  -5   70.14    5.43
  -7   2   5   30.70    5.59
  -6   2   5    0.62    1.76
   5  -2  -5  611.75   19.61
   5  -2  -5  567.44   23.15
  -5   2   5  603.62   22.32
  -5   2   5  617.13   23.84
  -5   2   5  549.19   21.04
  -5   2   5  589.49   24.63
   4  -2  -5  314.31   12.69
   4  -2  -5  347.58   12.60
   4  -2  -5  329.31   14.65
  -4   2   5  325.63   14.20
  -4   2   5  340.61   11.96
  -4   2   5  317.75   13.76
  -4   2   5  310.75   14.89
   3  -2  -5   68.42    5.32
   3  -2  -5   70.91    3.83
   3  -2  -5   76.51    5.70
   3  -2  -5   78.05    4.04
   3  -2  -5   77.04    4.91
   3  -2  -5   71.10    4.97
  -3   2   5   73.33    4.29
  -3   2   5   82.40    5.78
   2  -2  -5   89.67    5.26
   2  -2  -5   98.05    5.52
   2  -2  -5   92.68    5.51
   2  -2  -5  102.93    6.41
   2  -2  -5   97.63    4.58
  -2   2   5   91.94    4.63
  -2   2   5   91.97    6.42
  -2   2   5   96.75    5.99
   1  -2  -5 1274.79   33.97
   1  -2  -5 1237.06   35.55
   1  -2  -5 1297.73   36.88
   1  -2  -5 1274.79   34.33
   1  -2  -5 1272.82   35.27
  -1   2   5 1252.57   36.98
  -1   2   5 1278.73   33.71
  -1   2   5 1238.61   35.77
   0  -2  -5  776.92   23.01
   0  -2  -5  790.76   21.46
   0  -2  -5  740.13   23.77
   0   2   5  806.40   23.03
   0   2   5  751.73   23.76
   0   2   5  793.81   20.97
  -1  -2  -5 1735.68   46.08
  -1  -2  -5 1671.26   46.04
  -1  -2  -5 1775.44   44.25
  -1  -2  -5 1728.87   46.87
   1   2   5 1723.57   45.52
  -2  -2  -5  610.57   17.78
  -2  -2  -5  633.32   17.50
  -2  -2  -5  604.41   17.84
  -2  -2  -5  624.61   18.34
   2   2   5  594.44   16.31
   2   2   5  603.01   16.53
  -3  -2  -5  732.88   21.33
  -3  -2  -5  718.91   19.93
  -3  -2  -5  700.03   19.90
  -3  -2  -5  712.41   19.85
  -4  -2  -5  114.42    4.36
  -4  -2  -5  117.92    4.52
  -4  -2  -5  120.72    4.67
  -4  -2  -5  129.93    6.71
  -4  -2  -5  120.10    4.58
  -5  -2  -5  209.72    7.07
  -5  -2  -5  212.08    6.95
  -5  -2  -5  210.71   10.27
  -5  -2  -5  213.34    7.12
  -6  -2  -5  355.48   11.06
  -6  -2  -5  340.20   12.09
  -6  -2  -5  388.62   16.03
  -6  -2  -5  353.24   11.21
  -6  -2  -5  359.18   11.33
  -7  -2  -5   69.00    4.10
  -7  -2  -5   79.49    4.52
  -7  -2  -5   77.63    4.53
  -8  -2  -5    8.46    1.97
  -8  -2  -5   11.72    2.39
  -8  -2  -5   13.67    2.48
  -7   3   5   71.35    8.64
  -6   3   5   13.72    3.81
   5  -3  -5   31.25    5.64
   5  -3  -5   32.98    4.80
   5  -3  -5   35.24    4.19
  -5   3   5   30.29    4.92
   4  -3  -5  321.30   10.41
   4  -3  -5  327.27   12.48
   4  -3  -5  304.53   14.26
   4  -3  -5  320.68   12.85
   4  -3  -5  329.88   18.17
   4  -3  -5  318.82    9.85
  -4   3   5  306.40   11.51
  -4   3   5  329.93   14.24
  -4   3   5  317.18   15.02
   3  -3  -5   86.08    5.27
   3  -3  -5   87.54    5.56
   3  -3  -5   85.53    6.04
   3  -3  -5   82.45    4.34
   3  -3  -5   85.36    6.01
   3  -3  -5   87.12    4.64
  -3   3   5   80.30    5.95
  -3   3   5   78.65    4.55
   2  -3  -5  589.38   18.84
   2  -3  -5  548.55   19.68
   2  -3  -5  561.95   18.34
   2  -3  -5  572.30   18.79
   2  -3  -5  584.24   17.21
  -2   3   5  560.55   17.02
  -2   3   5  588.61   20.56
  -2   3   5  603.54   19.58
   1  -3  -5  145.42    6.37
   1  -3  -5  154.04    6.00
   1  -3  -5  147.59    7.73
   1  -3  -5  148.27    6.99
  -1   3   5  158.24    7.41
  -1   3   5  141.69    5.62
  -1   3   5  149.21    7.88
   0  -3  -5  219.58    7.36
   0  -3  -5  202.41    9.10
   0  -3  -5  211.54    8.54
   0  -3  -5  229.25    8.46
   0   3   5  212.06    9.16
   0   3   5  224.20    8.66
  -1  -3  -5  339.67    9.76
  -1  -3  -5  318.48   11.23
  -1  -3  -5  342.01   11.30
  -1  -3  -5  340.01   11.96
   1   3   5  333.26   11.02
   1   3   5  339.66   10.87
   1   3   5  333.74   10.77
  -2  -3  -5  263.11    9.04
  -2  -3  -5  271.71    9.50
  -2  -3  -5  278.93    9.13
   2   3   5  269.07    7.51
  -3  -3  -5   36.67    2.14
  -3  -3  -5   30.96    2.01
  -3  -3  -5   29.24    1.91
  -3  -3  -5   30.81    3.44
  -4  -3  -5   21.32    3.25
  -4  -3  -5   21.53    1.37
  -4  -3  -5   24.25    1.42
  -5  -3  -5  401.92   16.10
  -6  -3  -5  178.80    5.61
  -6  -3  -5  139.16    9.55
  -6  -3  -5  174.47    5.53
  -7  -3  -5  136.76    5.33
  -8  -3  -5  448.12   14.03
  -8  -3  -5  447.89   14.85
  -8  -3  -5  454.48   14.50
  -7   4   5    0.80    2.28
  -7   4   5    0.21    2.14
  -6   4   5  166.75   10.98
  -6   4   5  171.15   10.97
   5  -4  -5   18.03    3.50
   5  -4  -5   24.51    3.76
   5  -4  -5   17.78    4.20
  -5   4   5   21.49    4.48
   4  -4  -5  394.72   14.93
   4  -4  -5  387.31   12.26
   4  -4  -5  401.27   14.45
   4  -4  -5  398.75   16.75
   4  -4  -5  394.32   12.46
   4  -4  -5  371.56   15.49
  -4   4   5  373.76   15.96
  -4   4   5  322.52   16.22
   3  -4  -5  572.49   17.19
   3  -4  -5  546.09   19.92
   3  -4  -5  573.90   19.16
   3  -4  -5  574.98   20.19
   3  -4  -5  551.30   18.50
  -3   4   5  558.83   17.27
  -3   4   5  547.65   19.92
  -3   4   5  553.46   21.15
   2  -4  -5  517.82   16.96
   2  -4  -5  541.59   17.52
   2  -4  -5  512.22   15.79
   2  -4  -5  508.51   18.41
   2  -4  -5  493.07   17.26
  -2   4   5  487.67   18.81
  -2   4   5  519.75   18.02
  -2   4   5  517.95   15.64
   1  -4  -5 1064.66   30.15
   1  -4  -5 1027.16   31.63
   1  -4  -5 1017.36   30.38
   1  -4  -5 1076.14   28.88
  -1   4   5 1080.12   30.86
  -1   4   5 1054.59   30.87
  -1   4   5 1073.55   31.87
  -1   4   5 1030.78   31.98
   0  -4  -5  175.48    7.29
   0  -4  -5  180.93    7.58
   0  -4  -5  185.45    8.43
   0   4   5  173.90    8.23
   0   4   5  177.44    7.57
   0   4   5  176.85    7.47
   0   4   5  160.80    7.77
  -1  -4  -5 4319.89  113.01
  -1  -4  -5 4346.08  110.50
  -1  -4  -5 4190.81  115.17
  -1  -4  -5 4452.60  110.86
   1   4   5 4441.18  111.61
   1   4   5 4279.37  109.97
  -2  -4  -5 1451.20   39.38
  -2  -4  -5 1555.82   40.11
  -2  -4  -5 1561.39   39.92
  -2  -4  -5 1525.92   39.43
   2   4   5 1330.96   38.32
  -3  -4  -5   77.50    3.50
  -3  -4  -5   75.91    3.44
  -3  -4  -5   83.99    3.66
  -3  -4  -5   73.43    3.32
  -3  -4  -5   78.82    3.45
   3   4   5   80.65    3.00
  -4  -4  -5   77.34    2.88
  -4  -4  -5   74.93    2.78
  -4  -4  -5   80.21    5.75
  -5  -4  -5   10.31    2.63
  -6  -4  -5  296.86   14.64
  -8  -4  -5   13.09    1.53
  -7   5   5    4.94    3.29
  -6   5   5  770.73   28.73
  -6   5   5  787.65   29.24
   5  -5  -5  362.17   16.04
   5  -5  -5  350.94   14.10
  -5   5   5  336.80   16.10
  -5   5   5  340.97   15.97
  -5   5   5  352.32   17.43
   4  -5  -5  349.48   14.32
   4  -5  -5  347.28   12.07
   4  -5  -5  344.63   13.81
   4  -5  -5  360.75   16.04
  -4   5   5  351.29   16.50
  -4   5   5  370.41   15.90
  -4   5   5  351.82   15.48
   3  -5  -5  706.42   23.77
   3  -5  -5  714.02   22.82
   3  -5  -5  677.81   22.03
   3  -5  -5  677.09   23.73
   3  -5  -5  714.54   20.70
  -3   5   5  654.60   23.49
  -3   5   5  643.13   23.21
  -3   5   5  681.07   24.66
  -3   5   5  688.11   24.99
   2  -5  -5  116.11    7.25
   2  -5  -5  112.50    6.57
   2  -5  -5  114.84    5.59
   2  -5  -5  116.04    6.40
  -2   5   5  116.97    7.72
  -2   5   5  123.01    7.67
  -2   5   5  122.38    7.07
   1  -5  -5  170.77    6.84
   1  -5  -5  182.36    7.91
   1  -5  -5  186.53    9.06
   1  -5  -5  181.04    8.22
  -1   5   5  170.83    8.83
  -1   5   5  159.85    8.02
  -1   5   5  167.76    9.00
   0  -5  -5  421.61   12.72
   0  -5  -5  425.83   14.23
   0  -5  -5  422.80   13.82
   0  -5  -5  399.16   14.95
   0   5   5  411.82   14.08
   0   5   5  405.86   14.54
  -1  -5  -5 1767.80   50.97
  -1  -5  -5 1923.61   51.91
  -1  -5  -5 1923.27   52.08
  -1  -5  -5 1975.29   50.62
  -1  -5  -5 1969.68   50.93
   1   5   5 1886.37   50.29
  -2  -5  -5    3.20    1.19
  -2  -5  -5    1.34    0.89
  -2  -5  -5    1.79    0.87
  -2  -5  -5    2.62    1.08
  -2  -5  -5    1.46    0.81
   2   5   5    1.83    0.64
  -3  -5  -5   50.53    3.09
  -3  -5  -5   48.68    2.92
  -3  -5  -5   43.14    2.58
  -3  -5  -5   42.73    2.71
  -3  -5  -5   46.11    2.76
   3   5   5   47.10    2.57
  -4  -5  -5   15.82    1.60
  -4  -5  -5   16.05    1.63
  -4  -5  -5   15.79    1.51
  -4  -5  -5   22.93    3.67
   4   5   5   16.41    1.74
  -5  -5  -5   15.41    3.33
  -7   6   5   28.58    5.95
  -6   6   5  486.07   21.43
   5  -6  -5   24.27    4.01
   5  -6  -5   31.61    1.99
   5  -6  -5   29.95    2.02
  -5   6   5   30.52    5.28
   4  -6  -5  190.67   10.04
   4  -6  -5  191.24    8.13
   4  -6  -5  183.94    9.51
   4  -6  -5  177.24   11.07
  -4   6   5  190.02   10.89
  -4   6   5  193.88   11.76
   3  -6  -5  661.80   21.75
   3  -6  -5  649.61   23.18
   3  -6  -5  658.56   22.23
   3  -6  -5  600.05   22.94
   3  -6  -5  649.08   20.06
  -3   6   5  621.91   24.27
  -3   6   5  694.06   23.45
  -3   6   5  657.15   24.27
   2  -6  -5  310.27   11.07
   2  -6  -5  306.15   13.58
   2  -6  -5  323.32   12.31
   2  -6  -5  301.40   12.58
  -2   6   5  284.37   13.85
  -2   6   5  318.03   13.21
  -2   6   5  315.31   14.05
   1  -6  -5  204.27    9.25
   1  -6  -5  212.79    8.03
   1  -6  -5  208.99    9.10
   1  -6  -5  204.39   10.10
  -1   6   5  215.50    9.63
  -1   6   5  199.08   10.40
  -1   6   5  196.12    9.95
   0  -6  -5   17.32    2.73
   0  -6  -5   18.94    3.35
   0  -6  -5   16.40    2.73
   0  -6  -5   15.34    2.79
   0   6   5   21.15    3.30
   0   6   5    9.35    2.10
  -1  -6  -5  264.58    9.86
  -1  -6  -5  257.83   10.89
  -1  -6  -5  274.00   11.35
  -1  -6  -5  263.36   10.14
   1   6   5  272.31    9.99
  -2  -6  -5  258.30    9.42
  -2  -6  -5  264.24   10.19
  -2  -6  -5  250.44   10.03
  -2  -6  -5  234.46    9.50
  -2  -6  -5  251.65    9.11
   2   6   5  263.47    8.39
  -3  -6  -5   15.84    2.33
  -3  -6  -5   13.90    2.03
  -3  -6  -5   12.19    2.03
  -3  -6  -5   11.23    1.83
  -3  -6  -5   11.03    1.68
   3   6   5   12.27    1.77
  -4  -6  -5   45.41    2.97
  -4  -6  -5   45.09    2.92
  -4  -6  -5   45.97    2.64
  -4  -6  -5   42.96    2.80
  -4  -6  -5   45.54    2.79
   4   6   5   44.14    2.94
  -5  -6  -5   18.91    1.57
  -5  -6  -5   13.97    1.72
  -5  -6  -5   16.07    1.79
  -5  -6  -5   11.43    3.46
  -5  -6  -5   17.43    1.83
   5   6   5   17.90    2.21
  -6  -6  -5  409.85   11.73
  -6  -6  -5  405.23   11.51
  -7  -6  -5  216.49    7.05
  -6   7   5    3.13    2.76
   5  -7  -5   18.53    2.34
   5  -7  -5   17.70    2.09
   5  -7  -5   15.34    3.35
  -5   7   5   14.89    4.09
   4  -7  -5 1083.01   34.40
   4  -7  -5 1100.12   31.32
   4  -7  -5 1026.34   33.31
  -4   7   5 1105.97   35.73
   3  -7  -5   24.92    3.35
   3  -7  -5   22.00    3.92
   3  -7  -5   30.07    4.28
  -3   7   5   24.99    4.46
   2  -7  -5   68.28    7.39
   2  -7  -5   62.16    4.23
   2  -7  -5   63.26    5.33
   2  -7  -5   61.03    4.94
  -2   7   5   57.91    7.19
  -2   7   5   60.97    5.75
  -2   7   5   55.46    6.07
   1  -7  -5  137.23    8.34
   1  -7  -5  139.31    7.32
   1  -7  -5  137.74    6.38
   1  -7  -5  142.21    7.77
  -1   7   5  126.96    8.08
  -1   7   5  129.15    7.60
   0  -7  -5  349.04   13.61
   0  -7  -5  358.41   14.59
   0  -7  -5  382.04   15.50
   0  -7  -5  381.48   13.48
   0   7   5  359.86   14.21
   0   7   5  364.74   13.84
  -1  -7  -5    3.11    1.26
  -1  -7  -5    4.05    1.92
  -1  -7  -5    1.38    1.10
  -1  -7  -5    3.43    1.52
   1   7   5    4.43    1.57
  -2  -7  -5  141.37    7.30
  -2  -7  -5  119.30    6.23
  -2  -7  -5  125.77    6.86
  -2  -7  -5  123.04    6.58
  -2  -7  -5  125.54    6.04
   2   7   5  135.07    5.73
  -3  -7  -5   17.98    2.76
  -3  -7  -5   14.93    2.27
  -3  -7  -5   21.07    2.57
  -3  -7  -5   16.65    2.56
  -3  -7  -5   14.88    2.52
   3   7   5   14.51    2.24
  -4  -7  -5   39.57    3.16
  -4  -7  -5   33.09    3.04
  -4  -7  -5   35.15    3.82
  -4  -7  -5   35.79    2.89
  -4  -7  -5   36.34    2.75
   4   7   5   35.46    3.49
  -5  -7  -5  523.87   15.57
  -5  -7  -5  510.61   15.21
  -5  -7  -5  513.22   16.18
  -5  -7  -5  503.59   15.85
   5   7   5  510.25   16.34
  -6  -7  -5   33.68    2.81
  -6  -7  -5   30.15    2.65
  -6  -7  -5   30.80    2.67
  -6  -7  -5   29.92    2.40
  -7  -7  -5  130.76    5.92
  -7  -7  -5  114.16    5.16
  -7  -7  -5  123.40    5.34
  -8  -7  -5   33.09    4.71
  -6   8   5    7.34    3.70
   5  -8  -5    4.39    2.48
   5  -8  -5    2.50    1.15
  -5   8   5   -0.31    2.31
   4  -8  -5  199.49   10.59
   4  -8  -5  201.57    9.06
   4  -8  -5  188.06   10.98
  -4   8   5  198.55   11.95
   3  -8  -5  735.79   24.90
   3  -8  -5  734.22   25.55
   3  -8  -5  743.79   22.98
  -3   8   5  715.59   26.21
   2  -8  -5    3.90    1.93
   2  -8  -5    1.95    1.50
   2  -8  -5    2.85    1.89
   2  -8  -5    0.59    1.10
  -2   8   5    2.72    1.67
   1  -8  -5  559.85   18.02
   1  -8  -5  563.48   19.53
   1  -8  -5  549.46   21.15
   1  -8  -5  588.39   20.32
  -1   8   5  573.16   20.57
  -1   8   5  550.25   21.03
   0  -8  -5  384.20   15.92
   0  -8  -5  384.61   14.93
   0  -8  -5  379.22   14.35
   0  -8  -5  377.00   16.48
   0   8   5  393.56   15.05
  -1  -8  -5    9.25    2.19
  -1  -8  -5    9.23    2.68
  -1  -8  -5    8.18    2.67
  -1  -8  -5    3.32    1.64
   1   8   5   12.96    2.67
  -2  -8  -5   73.92    5.56
  -2  -8  -5   59.07    4.70
  -2  -8  -5   65.97    4.61
  -2  -8  -5   55.42    5.12
   2   8   5   67.72    6.88
  -3  -8  -5 1173.19   34.97
  -3  -8  -5 1203.12   34.13
  -3  -8  -5 1189.51   33.60
  -3  -8  -5 1201.83   35.36
   3   8   5 1183.64   33.67
  -4  -8  -5 1509.31   42.24
  -4  -8  -5 1554.86   42.58
  -4  -8  -5 1499.67   41.44
  -4  -8  -5 1468.98   40.88
   4   8   5 1460.71   41.50
  -5  -8  -5   97.48    5.88
  -5  -8  -5   97.15    5.21
  -5  -8  -5  112.49    5.68
  -5  -8  -5  104.60    6.05
   5   8   5  107.97    6.05
  -6  -8  -5 1363.83   37.55
  -6  -8  -5 1392.31   38.48
  -6  -8  -5 1381.94   38.57
  -6  -8  -5 1295.68   36.99
  -7  -8  -5   16.65    2.63
  -7  -8  -5   23.88    2.71
  -7  -8  -5   19.24    2.99
   5  -9  -5    8.83    1.94
  -5   9   5    6.57    3.18
   4  -9  -5  108.62    8.49
   4  -9  -5  116.09    6.83
   4  -9  -5  104.54    7.93
  -4   9   5  108.69    9.03
   3  -9  -5    3.17    1.71
   3  -9  -5    6.25    2.70
   3  -9  -5    3.99    2.39
  -3   9   5    3.28    2.51
   2  -9  -5   65.31    7.13
   2  -9  -5   66.99    6.74
   2  -9  -5   67.56    4.93
  -2   9   5   74.80    7.98
   1  -9  -5  411.87   17.01
   1  -9  -5  447.76   16.89
   1  -9  -5  426.20   18.55
  -1   9   5  454.06   17.87
   0  -9  -5 1485.89   47.26
   0  -9  -5 1524.31   44.72
   0  -9  -5 1475.38   46.21
   0  -9  -5 1580.57   44.27
   0   9   5 1550.56   45.02
  -1  -9  -5   -1.24    0.90
  -1  -9  -5   -1.00    1.01
  -1  -9  -5    3.07    1.91
  -1  -9  -5   -0.24    0.87
   1   9   5    0.84    1.11
  -2  -9  -5    3.98    1.71
  -2  -9  -5    0.38    1.23
  -2  -9  -5    1.41    1.32
  -2  -9  -5    1.32    1.39
  -3  -9  -5  176.71    8.41
  -3  -9  -5  180.69    8.91
  -3  -9  -5  166.93    9.49
  -3  -9  -5  187.94    9.75
   3   9   5  202.88    8.89
  -4  -9  -5  385.77   13.63
  -4  -9  -5  360.95   14.74
  -4  -9  -5  363.25   13.76
  -4  -9  -5  361.71   14.74
   4   9   5  364.94   13.86
  -5  -9  -5   54.02    4.84
  -5  -9  -5   52.84    4.23
  -5  -9  -5   59.50    4.68
  -5  -9  -5   62.58    5.14
   5   9   5   56.29    5.50
  -6  -9  -5   21.11    3.57
  -6  -9  -5   21.88    3.30
  -6  -9  -5   23.93    3.46
  -6  -9  -5   19.35    3.42
  -7  -9  -5  366.10   14.47
  -7  -9  -5  348.66   13.35
  -7  -9  -5  370.66   13.22
   5 -10  -5  215.97    9.42
  -5  10   5  235.18   14.99
   4 -10  -5    6.17    2.64
   4 -10  -5    1.66    2.12
  -4  10   5    3.13    2.81
   3 -10  -5    5.09    2.75
   3 -10  -5    1.88    1.57
   3 -10  -5    3.15    2.37
  -3  10   5    2.17    2.25
   2 -10  -5   29.39    4.05
   2 -10  -5   23.39    4.47
   2 -10  -5   19.44    3.97
  -2  10   5   20.16    4.43
   1 -10  -5  160.46    9.86
   1 -10  -5  158.67    9.34
  -1  10   5  165.74   10.16
   0 -10  -5  410.51   18.91
   0 -10  -5  435.07   17.14
   0 -10  -5  454.48   18.01
   0  10   5  466.31   18.16
  -1 -10  -5  758.37   27.38
  -1 -10  -5  735.68   25.46
  -1 -10  -5  751.67   24.91
  -2 -10  -5  663.25   22.80
  -2 -10  -5  618.53   23.93
  -2 -10  -5  668.15   24.50
  -2 -10  -5  665.00   22.18
   2  10   5  639.55   21.62
  -3 -10  -5   69.72    6.25
  -3 -10  -5   68.92    6.28
  -3 -10  -5   74.36    5.87
  -3 -10  -5   81.48    5.88
   3  10   5   76.13    5.69
  -4 -10  -5  211.08   10.10
  -4 -10  -5  197.33    9.54
  -4 -10  -5  193.07   10.67
  -4 -10  -5  184.79   10.53
   4  10   5  202.10    9.88
  -5 -10  -5   65.02    5.98
  -5 -10  -5   67.60    5.94
  -5 -10  -5   72.39    5.80
  -5 -10  -5   73.21    5.32
   5  10   5   81.45    7.19
  -6 -10  -5   80.81    6.48
  -6 -10  -5   92.18    6.02
  -6 -10  -5   71.77    5.80
  -6 -10  -5   78.20    6.52
   4 -11  -5  153.39   11.13
   4 -11  -5  139.55   10.27
  -4  11   5  156.66   12.03
   3 -11  -5  139.75    8.17
   3 -11  -5  136.37   10.10
   3 -11  -5  125.86    9.44
  -3  11   5  140.13   10.82
   2 -11  -5   78.63    7.02
   2 -11  -5   74.72    8.60
   2 -11  -5   83.10    8.51
  -2  11   5   64.44    7.98
   1 -11  -5  102.42    8.24
   1 -11  -5  114.14    8.34
   0 -11  -5  221.13   12.12
   0 -11  -5  217.64   11.65
  -1 -11  -5   42.73    5.54
  -1 -11  -5   32.98    5.15
  -1 -11  -5   47.37    7.10
  -2 -11  -5  244.48   12.36
  -2 -11  -5  251.39   11.99
  -2 -11  -5  244.89   13.58
   2  11   5  250.89   11.69
  -3 -11  -5  259.01   12.77
  -3 -11  -5  257.29   13.88
  -3 -11  -5  289.58   12.81
   3  11   5  261.23   12.30
  -4 -11  -5   54.75    7.23
  -4 -11  -5   40.96    5.56
  -4 -11  -5   45.36    5.41
   4  11   5   39.17    5.34
  -5 -11  -5   18.05    4.17
  -5 -11  -5   14.46    3.22
  -5 -11  -5   19.36    3.92
   5  11   5   21.93    4.05
   3 -12  -5   29.58    5.80
   3 -12  -5   34.65    6.53
  -3  12   5   40.70    7.26
   2 -12  -5   56.37    7.44
   2 -12  -5   56.11    7.81
   1 -12  -5    4.64    2.72
   1 -12  -5    3.29    2.59
   0 -12  -5   33.85    5.86
   0 -12  -5   39.78    5.95
  -1 -12  -5  612.76   23.05
  -1 -12  -5  579.37   23.30
   1  12   5  598.01   22.10
  -2 -12  -5   19.70    4.45
  -2 -12  -5   17.91    3.95
  -2 -12  -5   32.21    6.21
   2  12   5   23.93    4.52
  -3 -12  -5    0.12    1.76
  -3 -12  -5    3.72    2.29
  -3 -12  -5    1.27    2.01
   3  12   5    1.63    1.84
  -4 -12  -5   19.78    4.24
  -4 -12  -5   12.68    3.91
  -4 -12  -5   21.07    3.93
   4  12   5   13.85    3.37
   1 -13  -5  400.14   18.88
   1 -13  -5  391.34   19.45
   0 -13  -5   18.83    5.00
   0 -13  -5   14.15    4.05
  -1 -13  -5  295.06   15.02
  -1 -13  -5  255.73   14.83
   1  13   5  274.11   13.86
  -2 -13  -5   53.71    7.52
  -2 -13  -5   51.87    7.08
   2  13   5   46.27    6.27
   1   9  -6    1.90    2.66
  -1  -9   6   -0.74    2.27
  -1  -9   6   -0.90    2.56
   0   9  -6  133.37   12.08
   0  -9   6   90.14   10.84
   0  -9   6  101.56   10.99
  -1   9  -6  133.02   11.64
  -1   9  -6  154.39   10.76
   1  -9   6  148.48   11.86
   1  -9   6  146.54   11.39
  -2   9  -6   67.60    9.41
  -2   9  -6   75.34    8.56
   2  -9   6   85.58   10.44
   3   8  -6  179.51   12.47
  -3  -8   6  187.88   13.04
  -3  -8   6  183.21   13.30
   2   8  -6   14.53    4.43
  -2  -8   6   18.11    5.18
  -2  -8   6   17.82    4.74
   1   8  -6    7.64    3.45
  -1  -8   6   15.96    4.63
  -1  -8   6   16.85    4.64
   0   8  -6   74.24    8.41
   0   8  -6   64.09    8.47
   0  -8   6   54.42    7.69
   0  -8   6   60.38    8.64
  -1   8  -6   36.85    5.76
  -1   8  -6   31.48    6.20
   1  -8   6   26.08    5.61
   1  -8   6   41.18    6.96
  -2   8  -6  105.97    9.73
  -2   8  -6   91.57   10.60
   2  -8   6  108.32   10.87
   2  -8   6   91.56    9.96
  -3   8  -6  257.53   15.87
  -3   8  -6  238.42   13.02
  -4   8  -6    1.23    3.01
  -4   8  -6    9.01    3.17
   4   7  -6  428.83   20.64
  -4  -7   6  441.91   21.44
  -4  -7   6  430.64   20.79
   3   7  -6  131.05   11.95
  -3  -7   6  140.55   10.94
  -3  -7   6  116.56    9.79
   2   7  -6   11.60    3.94
  -2  -7   6   11.86    3.70
  -2  -7   6   14.47    4.47
   1   7  -6    4.98    2.75
   1   7  -6    4.34    2.83
  -1  -7   6    5.17    2.88
  -1  -7   6    4.89    2.70
   0   7  -6   45.85    7.08
   0   7  -6   41.21    5.91
   0  -7   6   45.64    6.98
   0  -7   6   44.71    6.63
  -1   7  -6    5.21    2.46
  -1   7  -6    8.47    3.51
   1  -7   6    8.99    3.33
   1  -7   6    9.69    3.63
  -2   7  -6   21.62    4.23
  -2   7  -6   21.77    5.17
   2  -7   6   15.93    3.96
   2  -7   6   15.28    4.28
  -3   7  -6   34.81    6.18
  -3   7  -6   43.76    5.99
   3  -7   6   42.92    6.33
  -4   7  -6    9.56    3.94
  -4   7  -6   10.85    2.98
  -5   7  -6  179.84   13.06
  -5   7  -6  172.92   10.27
  -5  -6   6   71.94    9.52
   4   6  -6   -0.01    2.25
  -4  -6   6   -2.47    1.53
  -4  -6   6    2.76    2.51
   3   6  -6  111.64   10.44
  -3  -6   6  106.78    9.11
  -3  -6   6  108.42    8.91
   2   6  -6    9.20    3.20
   2   6  -6    8.10    3.19
  -2  -6   6    7.91    2.97
  -2  -6   6    5.74    2.51
  -2  -6   6    8.06    3.21
   1   6  -6    9.62    3.09
  -1  -6   6   12.00    3.61
  -1  -6   6   11.69    3.74
   0   6  -6  767.43   27.29
   0   6  -6  831.16   29.69
   0  -6   6  803.85   29.23
   0  -6   6  815.88   28.73
  -1   6  -6    4.01    2.41
  -1   6  -6    4.95    2.13
   1  -6   6    5.87    2.81
   1  -6   6    3.09    2.44
  -2   6  -6    7.30    2.50
  -2   6  -6   11.05    3.64
   2  -6   6   11.78    3.65
   2  -6   6    9.93    3.33
  -3   6  -6  191.51   12.13
  -3   6  -6  201.80   10.36
   3  -6   6  183.67   11.01
   3  -6   6  201.95   12.81
  -4   6  -6    5.49    2.37
  -4   6  -6    5.10    2.93
  -5   6  -6    8.17    3.55
  -5   6  -6    8.01    2.87
  -6   6  -6    3.61    2.99
  -5  -5   6   23.33    5.08
  -4  -5   6   70.65    8.54
  -4  -5   6   67.14    8.52
   3   5  -6  102.37    9.52
  -3  -5   6  110.06    8.77
  -3  -5   6  100.99    8.21
  -3  -5   6   91.97    7.78
   2   5  -6    6.74    2.84
   2   5  -6    5.50    2.71
  -2  -5   6    3.24    2.19
  -2  -5   6    5.51    2.40
  -2  -5   6    4.95    2.51
   1   5  -6   -0.64    1.45
   1   5  -6    2.09    1.65
  -1  -5   6   -0.62    1.54
  -1  -5   6   -0.04    1.57
   0   5  -6   56.09    7.13
   0   5  -6   57.77    6.26
   0  -5   6   53.08    6.62
   0  -5   6   52.95    6.87
   0  -5   6   42.95    4.75
  -1   5  -6  533.73   18.42
  -1   5  -6  543.28   21.83
  -1   5  -6  580.73   19.94
  -1   5  -6  538.15   31.56
   1  -5   6  559.72   21.52
   1  -5   6  545.98   18.89
   1  -5   6  541.56   20.83
  -2   5  -6  156.29    8.48
  -2   5  -6  154.11   10.87
  -2   5  -6  144.00    7.86
  -2   5  -6  174.93   10.54
   2  -5   6  159.70    9.45
   2  -5   6  157.37    9.75
  -3   5  -6    2.47    2.40
  -3   5  -6    4.22    2.25
  -3   5  -6    0.83    1.60
   3  -5   6    5.09    2.39
   3  -5   6    2.25    1.94
  -4   5  -6  216.19   13.35
  -4   5  -6  198.89    9.71
  -4   5  -6  231.51   12.81
   4  -5   6  190.57   10.22
  -5   5  -6   17.53    4.59
  -5   5  -6   14.94    3.12
  -5   5  -6   19.78    4.63
  -6   5  -6  134.85   10.09
  -6   5  -6   95.41   11.54
  -6  -4   6   -1.93    1.78
  -5  -4   6   30.63    5.68
  -4  -4   6  253.04   13.79
   3   4  -6  699.72   25.29
   3   4  -6  705.78   24.92
  -3  -4   6  678.66   24.95
  -3  -4   6  736.41   26.29
  -3  -4   6  670.23   25.27
   2   4  -6  207.89   11.08
   2   4  -6  197.98   10.61
  -2  -4   6  191.57   10.05
  -2  -4   6  182.85   10.86
  -2  -4   6  183.61   10.60
   1   4  -6 2921.31   76.64
   1   4  -6 3042.62   81.64
   1   4  -6 2798.70   83.40
   1   4  -6 2948.58   79.96
  -1  -4   6 2965.37   78.95
  -1  -4   6 2902.19   86.20
  -1  -4   6 3017.33   81.04
  -1  -4   6 2933.34   81.42
   0   4  -6  538.58   18.73
   0   4  -6  518.42   20.14
   0   4  -6  469.22   16.63
   0   4  -6  528.61   21.68
   0  -4   6  503.57   20.53
   0  -4   6  522.18   17.95
   0  -4   6  520.62   19.40
   0  -4   6  492.85   19.63
  -1   4  -6  853.89   30.63
  -1   4  -6  866.16   26.10
  -1   4  -6  835.56   29.03
  -1   4  -6  853.72   26.86
   1  -4   6  844.05   28.55
   1  -4   6  881.44   28.27
  -2   4  -6   59.58    7.70
  -2   4  -6   55.12    6.53
  -2   4  -6   56.49    4.44
  -2   4  -6   52.36    5.17
   2  -4   6   61.71    6.74
   2  -4   6   51.47    5.78
  -3   4  -6  223.74   11.74
  -3   4  -6  216.90    9.53
  -3   4  -6  194.97   11.95
   3  -4   6  213.94   10.45
   3  -4   6  204.46   10.65
   3  -4   6  207.71    9.17
   3  -4   6  198.60    7.39
  -4   4  -6  125.93    6.77
  -4   4  -6  116.72    8.44
  -4   4  -6  123.03    9.32
   4  -4   6  116.47    7.25
  -5   4  -6  404.92   19.14
  -5   4  -6  434.29   18.44
  -5   4  -6  418.44   14.90
   5  -4   6  411.08   17.13
  -6   4  -6  392.20   19.17
  -6   4  -6  428.71   18.60
  -7   4  -6   31.98    6.22
  -7   4  -6   46.66    6.90
  -6  -3   6  181.46   12.32
  -5  -3   6   -0.15    1.80
  -4  -3   6  253.37   13.41
  -4  -3   6  288.12   14.41
   3   3  -6    5.48    2.26
  -3  -3   6    6.65    2.82
  -3  -3   6    9.15    2.75
   2   3  -6 2441.21   68.28
   2   3  -6 2421.36   67.67
   2   3  -6 2478.62   70.15
  -2  -3   6 2402.11   66.77
  -2  -3   6 2504.37   68.50
  -2  -3   6 2473.31   66.63
  -2  -3   6 2329.30   70.08
  -2  -3   6 2505.06   68.97
   1   3  -6  161.08    9.34
   1   3  -6  169.88    8.95
   1   3  -6  165.04   10.25
   1   3  -6  161.77    7.27
  -1  -3   6  170.22    8.05
  -1  -3   6  149.60    7.98
  -1  -3   6  163.91   10.05
  -1  -3   6  177.90    9.76
  -1  -3   6  177.92    9.47
   0   3  -6  778.53   24.50
   0   3  -6  734.78   23.09
   0   3  -6  791.52   26.21
   0   3  -6  751.18   27.41
   0  -3   6  750.37   22.79
   0  -3   6  774.92   26.76
   0  -3   6  809.65   25.70
   0  -3   6  761.91   25.78
  -1   3  -6  561.57   22.17
  -1   3  -6  567.81   18.58
  -1   3  -6  612.82   21.41
  -1   3  -6  582.28   19.20
   1  -3   6  589.71   20.35
   1  -3   6  562.29   17.69
   1  -3   6  581.62   20.64
  -2   3  -6  100.31    5.84
  -2   3  -6  117.78    7.49
  -2   3  -6  102.00    5.83
  -2   3  -6  113.28    8.03
   2  -3   6  101.49    6.85
   2  -3   6  109.81    5.06
   2  -3   6  102.00    6.60
  -3   3  -6    4.38    2.12
  -3   3  -6    4.30    1.49
  -3   3  -6    7.97    1.77
  -3   3  -6   -0.95    1.35
   3  -3   6    6.15    2.04
   3  -3   6    5.49    2.05
   3  -3   6    3.80    0.83
   3  -3   6    4.05    1.39
  -4   3  -6  154.54    7.28
  -4   3  -6  161.88   10.04
  -4   3  -6  187.65   10.00
   4  -3   6  156.80    8.11
   4  -3   6  162.29    8.32
  -5   3  -6    0.40    1.48
  -5   3  -6   -0.51    0.89
  -5   3  -6    0.75    1.29
   5  -3   6   -1.10    0.93
  -6   3  -6  112.48    8.90
  -6   3  -6  111.07    8.16
   6  -3   6  116.11    8.56
  -7   3  -6  133.44    9.25
  -7   3  -6  110.84    9.30
  -6  -2   6    1.41    2.37
  -5  -2   6  172.84   11.19
   4   2  -6  194.27    9.64
  -4  -2   6  205.30   11.56
  -4  -2   6  189.18   10.86
   3   2  -6  230.24   11.05
  -3  -2   6  216.90   13.00
  -3  -2   6  220.93   12.72
  -3  -2   6  229.02   11.88
  -3  -2   6  220.91   10.94
   2   2  -6   12.45    3.19
   2   2  -6   15.42    2.12
   2   2  -6   13.24    3.08
  -2  -2   6   15.10    3.44
  -2  -2   6   16.77    2.91
  -2  -2   6   12.92    2.42
  -2  -2   6    9.59    2.82
   1   2  -6  176.67    7.52
   1   2  -6  173.42    8.72
   1   2  -6  163.82    9.93
   1   2  -6  182.25    9.48
  -1  -2   6  182.15   10.29
  -1  -2   6  178.03    7.59
  -1  -2   6  180.52    9.55
  -1  -2   6  171.89    7.70
  -1  -2   6  185.11    9.33
   0   2  -6  766.65   24.54
   0   2  -6  792.36   26.02
   0   2  -6  847.00   27.91
   0   2  -6  790.68   23.78
   0  -2   6  790.34   25.96
   0  -2   6  805.15   26.98
   0  -2   6  824.84   25.76
   0  -2   6  790.83   23.27
  -1   2  -6  907.17   27.51
  -1   2  -6  929.00   27.35
  -1   2  -6  965.42   31.05
  -1   2  -6  986.70   29.85
   1  -2   6  934.63   26.30
   1  -2   6  935.03   29.12
   1  -2   6  917.60   28.70
  -2   2  -6  306.51   14.01
  -2   2  -6  310.19   11.46
  -2   2  -6  338.00   11.90
  -2   2  -6  322.57   13.35
   2  -2   6  330.27   13.01
   2  -2   6  326.59   10.17
   2  -2   6  312.71   12.51
   2  -2   6  329.30   10.34
  -3   2  -6  279.26    9.95
  -3   2  -6  251.42   11.65
  -3   2  -6  274.38   12.80
  -3   2  -6  252.18   10.17
   3  -2   6  299.97   11.20
   3  -2   6  266.63   11.12
   3  -2   6  264.14    9.89
  -4   2  -6   31.49    4.46
  -4   2  -6   35.48    5.19
  -4   2  -6   35.00    3.42
  -4   2  -6   48.63    3.56
   4  -2   6   29.87    3.57
   4  -2   6   29.48    3.77
  -5   2  -6  209.90   10.41
  -5   2  -6  200.10    7.73
  -5   2  -6  212.45   11.03
   5  -2   6  180.07    9.84
  -6   2  -6   31.24    5.07
  -6   2  -6   29.05    4.51
  -6   2  -6   29.74    4.85
   6  -2   6   33.17    5.17
  -7   2  -6  114.43    8.17
  -7   2  -6  130.96   10.74
  -7   2  -6  128.98    9.19
   7  -2   6  117.76    9.37
  -8   2  -6   22.07    4.40
  -8   2  -6   19.61    4.52
  -7  -1   6   34.49    6.28
  -6  -1   6   56.01    7.68
  -5  -1   6   23.44    4.76
   4   1  -6    8.96    2.35
   4   1  -6    6.39    2.17
  -4  -1   6   11.34    3.36
  -4  -1   6    5.84    2.72
  -4  -1   6    5.85    2.40
   3   1  -6   10.67    2.68
   3   1  -6    8.86    1.39
   3   1  -6    9.31    2.48
  -3  -1   6    7.89    2.59
  -3  -1   6   15.47    2.57
  -3  -1   6    8.58    2.40
  -3  -1   6    9.45    2.89
   2   1  -6    1.77    1.38
   2   1  -6    1.04    1.33
   2   1  -6    0.77    0.67
  -2  -1   6    1.14    1.34
  -2  -1   6    2.45    1.33
  -2  -1   6    0.16    0.77
  -2  -1   6    1.24    1.53
   1   1  -6   89.03    6.75
   1   1  -6   93.48    6.38
   1   1  -6  104.04    5.31
  -1  -1   6  101.47    6.64
  -1  -1   6   97.86    7.04
  -1  -1   6  105.03    5.14
   0   1  -6   17.42    3.32
   0   1  -6   20.19    2.89
   0   1  -6   15.11    2.94
   0   1  -6   18.52    2.82
   0  -1   6   19.49    1.67
   0  -1   6   17.33    2.24
   0  -1   6   19.30    3.36
   0  -1   6   22.16    3.94
  -1   1  -6   32.56    4.57
  -1   1  -6   38.62    3.16
  -1   1  -6   40.54    3.83
  -1   1  -6   31.59    4.04
   1  -1   6   34.83    2.49
   1  -1   6   32.86    4.01
  -2   1  -6    6.39    1.99
  -2   1  -6    3.77    1.64
  -2   1  -6    1.76    0.90
  -2   1  -6    3.32    1.15
   2  -1   6    3.17    0.80
   2  -1   6    3.41    0.76
   2  -1   6    0.74    1.03
  -3   1  -6    0.31    0.65
  -3   1  -6   -1.12    0.52
  -3   1  -6   -0.70    0.94
  -3   1  -6    0.34    0.99
  -3   1  -6    0.10    0.97
   3  -1   6    1.17    0.86
   3  -1   6    0.52    0.90
  -4   1  -6    3.20    1.64
  -4   1  -6    4.15    1.20
  -4   1  -6    2.60    1.45
  -4   1  -6   -0.15    1.15
   4  -1   6    4.29    1.59
   4  -1   6    2.76    1.16
  -5   1  -6  138.53    5.41
  -5   1  -6  131.18    7.99
  -5   1  -6  141.05    7.67
   5  -1   6  138.58    8.03
  -6   1  -6  768.23   26.22
  -6   1  -6  812.12   25.60
  -6   1  -6  777.71   26.28
   6  -1   6  762.42   27.19
  -7   1  -6   -0.08    1.42
  -7   1  -6   -0.26    1.24
  -7   1  -6    0.89    1.47
   7  -1   6    1.27    1.98
  -8   1  -6  845.65   29.68
  -8   1  -6  851.48   29.48
  -8   1  -6  861.81   28.80
  -7   0   6   26.03    5.79
  -6   0   6   55.39    7.45
   5   0  -6  118.53    9.08
  -5   0   6  107.31    8.52
   4   0  -6  115.32    6.83
   4   0  -6  117.21    8.12
   4   0  -6  114.59    7.06
  -4   0   6  113.11    7.75
  -4   0   6  110.81    7.86
  -4   0   6  119.26    8.93
  -4   0   6  117.04    8.18
   3   0  -6  398.63   14.98
   3   0  -6  386.86   12.42
   3   0  -6  403.06   15.49
   3   0  -6  401.03   16.53
   3   0  -6  399.67   15.65
  -3   0   6  403.07   15.23
  -3   0   6  433.13   14.17
  -3   0   6  409.20   16.51
   2   0  -6  140.31    8.51
   2   0  -6  146.64    7.84
   2   0  -6  139.00    6.27
   2   0  -6  138.26    7.04
  -2   0   6  137.41    8.80
  -2   0   6  146.16    6.60
  -2   0   6  142.74    6.90
  -2   0   6  132.16    8.00
   1   0  -6  293.36   10.59
   1   0  -6  272.09   12.67
   1   0  -6  300.48   12.09
  -1   0   6  277.35   12.02
  -1   0   6  297.18   10.18
  -1   0   6  289.62    9.79
  -1   0   6  284.60   13.01
   0   0  -6   27.56    3.08
   0   0  -6   31.67    4.69
   0   0  -6   34.45    4.26
   0   0  -6   30.35    2.86
   0   0   6   28.97    3.75
   0   0   6   25.34    4.02
   0   0   6   28.69    1.61
   0   0   6   30.45    2.78
  -1   0  -6 2064.45   54.99
  -1   0  -6 2036.76   54.31
  -1   0  -6 2068.50   58.08
  -1   0  -6 2105.20   56.79
   1   0   6 2173.17   53.61
   1   0   6 2070.97   56.38
  -2   0  -6  205.80    7.52
  -2   0  -6  212.75    9.14
  -2   0  -6  204.13    7.34
  -2   0  -6  192.58    8.51
  -2   0  -6  223.95    9.90
   2   0   6  197.34    8.40
  -3   0  -6  695.51   21.31
  -3   0  -6  691.94   21.65
  -3   0  -6  695.03   21.63
  -3   0  -6  686.41   22.41
  -3   0  -6  691.28   19.40
  -3   0  -6  724.71   19.61
   3   0   6  701.22   20.18
  -4   0  -6   67.64    3.28
  -4   0  -6   61.45    4.39
  -4   0  -6   66.10    4.31
  -4   0  -6   59.91    4.28
  -4   0  -6   71.14    4.98
  -4   0  -6   65.21    2.93
   4   0   6   59.90    4.37
  -5   0  -6   35.05    1.81
  -5   0  -6   37.74    2.42
  -5   0  -6   42.77    3.67
  -5   0  -6   38.20    4.36
   5   0   6   36.55    4.68
  -6   0  -6   19.26    3.25
  -6   0  -6   19.76    3.12
   6   0   6   21.40    4.07
  -7   0  -6  524.96   18.93
  -7   0  -6  509.30   18.25
  -7   0  -6  526.49   19.07
   7   0   6  503.07   21.53
  -8   0  -6  619.69   22.33
  -8   0  -6  675.97   22.24
  -8   0  -6  587.61   22.24
  -7   1   6   -0.51    2.13
  -6   1   6  552.66   22.94
   5  -1  -6  633.99   24.96
  -5   1   6  655.23   24.41
   4  -1  -6    3.11    1.92
   4  -1  -6    2.85    1.58
   4  -1  -6    2.89    1.66
  -4   1   6    1.39    1.60
  -4   1   6    1.34    1.48
  -4   1   6    1.84    1.74
  -4   1   6    0.93    1.25
   3  -1  -6    4.68    2.52
   3  -1  -6    3.48    1.06
   3  -1  -6    4.49    1.63
   3  -1  -6    4.79    1.83
   3  -1  -6    4.09    1.81
  -3   1   6    5.09    1.85
  -3   1   6    4.70    1.99
  -3   1   6    3.10    1.26
   2  -1  -6   72.18    5.83
   2  -1  -6   75.48    4.17
   2  -1  -6   76.85    4.48
   2  -1  -6   82.88    5.61
   2  -1  -6   85.19    5.20
  -2   1   6   78.82    5.84
  -2   1   6   81.39    4.54
  -2   1   6   76.84    4.70
  -2   1   6   76.49    6.25
   1  -1  -6  733.28   24.26
   1  -1  -6  779.92   23.21
   1  -1  -6  760.76   25.58
   1  -1  -6  809.90   22.44
   1  -1  -6  786.93   22.45
  -1   1   6  823.63   24.97
  -1   1   6  801.39   22.41
  -1   1   6  756.43   25.78
   0  -1  -6    0.69    0.68
   0  -1  -6    0.71    0.48
   0  -1  -6    0.55    0.81
   0  -1  -6    1.73    1.22
   0   1   6    1.55    1.05
   0   1   6    1.46    1.20
   0   1   6    0.94    0.69
  -1  -1  -6   44.48    3.62
  -1  -1  -6   55.39    3.09
  -1  -1  -6   51.76    3.95
  -1  -1  -6   45.62    4.15
   1   1   6   51.92    3.74
   1   1   6   48.18    2.32
  -2  -1  -6  569.09   17.41
  -2  -1  -6  544.62   18.02
  -2  -1  -6  553.78   15.30
  -2  -1  -6  492.85   16.90
  -2  -1  -6  545.29   16.99
   2   1   6  501.07   16.24
  -3  -1  -6  283.41    9.43
  -3  -1  -6  268.27   10.31
  -3  -1  -6  285.27   10.25
  -3  -1  -6  293.85   11.02
  -3  -1  -6  275.12   10.36
  -3  -1  -6  292.77    8.56
   3   1   6  285.58    8.75
  -4  -1  -6 1107.90   31.66
  -4  -1  -6 1116.21   30.91
  -4  -1  -6 1126.79   31.31
  -4  -1  -6 1096.57   28.45
  -4  -1  -6 1146.37   31.82
  -4  -1  -6 1078.01   31.08
  -5  -1  -6  152.16    6.77
  -5  -1  -6  147.87    6.46
  -5  -1  -6  147.49    6.59
  -5  -1  -6  147.67    6.99
  -5  -1  -6  150.48    7.91
   5   1   6  144.68    8.21
  -6  -1  -6    2.58    1.72
  -6  -1  -6    1.54    1.08
  -6  -1  -6    1.46    1.00
   6   1   6    2.70    1.99
  -7  -1  -6   15.76    2.66
  -7  -1  -6    9.29    2.26
  -7  -1  -6   11.62    2.54
  -8  -1  -6    0.91    1.33
  -8  -1  -6    0.84    1.39
  -8  -1  -6   -0.38    1.72
  -7   2   6  447.12   20.89
  -6   2   6  306.68   15.68
   5  -2  -6  658.24   21.46
   5  -2  -6  628.14   24.97
  -5   2   6  627.30   24.18
   4  -2  -6   11.94    2.82
   4  -2  -6   14.11    2.88
   4  -2  -6   14.11    3.46
   4  -2  -6   13.06    1.55
  -4   2   6   10.85    3.13
  -4   2   6   12.25    3.61
   3  -2  -6  270.16   11.42
   3  -2  -6  263.15    9.58
   3  -2  -6  271.93   11.05
   3  -2  -6  262.26   11.78
   3  -2  -6  257.69   12.30
   3  -2  -6  260.66    9.34
  -3   2   6  247.89   11.91
  -3   2   6  246.97    9.86
   2  -2  -6  113.96    7.44
   2  -2  -6  124.17    6.56
   2  -2  -6  133.67    7.22
   2  -2  -6  125.34    6.10
   2  -2  -6  121.36    5.57
   2  -2  -6  111.11    6.35
  -2   2   6  110.19    7.64
  -2   2   6  130.01    7.45
  -2   2   6  119.50    5.69
   1  -2  -6    3.58    1.47
   1  -2  -6    0.99    0.76
   1  -2  -6    4.45    1.30
   1  -2  -6    2.43    1.45
  -1   2   6    4.21    1.79
  -1   2   6    0.47    0.71
  -1   2   6    1.16    1.38
   0  -2  -6    6.24    1.10
   0  -2  -6    4.11    1.12
   0  -2  -6    8.08    2.03
   0  -2  -6    5.76    1.81
   0   2   6    3.62    1.71
   0   2   6    6.25    1.14
   0   2   6    9.16    2.15
  -1  -2  -6   42.50    2.62
  -1  -2  -6   43.82    3.93
  -1  -2  -6   42.64    3.56
   1   2   6   42.62    3.28
  -2  -2  -6 3791.55   99.86
  -2  -2  -6 3926.20  100.90
  -2  -2  -6 3891.14   98.99
  -2  -2  -6 3904.36   99.94
  -2  -2  -6 3955.59   99.72
  -3  -2  -6  215.18    5.88
  -3  -2  -6  221.33    8.54
  -3  -2  -6  211.59    8.05
  -3  -2  -6  199.01    7.96
  -3  -2  -6  215.61    8.19
  -4  -2  -6  127.76    5.50
  -4  -2  -6  126.22    5.43
  -4  -2  -6  124.25    6.49
  -4  -2  -6  124.28    5.51
  -4  -2  -6  128.36    5.66
  -5  -2  -6  473.92   14.41
  -5  -2  -6  456.49   14.33
  -5  -2  -6  483.54   14.55
  -5  -2  -6  480.26   17.24
  -5  -2  -6  455.16   14.11
  -6  -2  -6  352.63   11.55
  -6  -2  -6  340.34   14.66
  -6  -2  -6  323.00   11.22
  -7  -2  -6   -0.20    1.15
  -7  -2  -6    1.10    0.97
  -8  -2  -6    4.68    1.77
  -8  -2  -6    5.44    1.86
  -8  -2  -6    7.75    1.92
  -7   3   6    1.68    2.64
  -6   3   6   48.28    7.20
   5  -3  -6  157.46    8.45
   5  -3  -6  151.23   10.58
  -5   3   6  173.21   10.66
   4  -3  -6  824.59   25.25
   4  -3  -6  786.98   22.31
   4  -3  -6  769.46   27.33
   4  -3  -6  775.57   25.56
  -4   3   6  783.20   27.14
   3  -3  -6  492.66   15.90
   3  -3  -6  491.17   17.04
   3  -3  -6  497.00   18.74
   3  -3  -6  477.87   17.95
   3  -3  -6  485.80   17.46
   3  -3  -6  483.92   15.30
  -3   3   6  464.71   18.18
  -3   3   6  479.81   15.71
  -3   3   6  491.81   19.78
   2  -3  -6  370.85   13.55
   2  -3  -6  352.44   13.30
   2  -3  -6  355.12   14.78
   2  -3  -6  373.07   13.87
   2  -3  -6  357.34   12.09
  -2   3   6  352.97   15.36
  -2   3   6  353.74   14.18
  -2   3   6  371.08   12.07
   1  -3  -6  320.12   12.34
   1  -3  -6  328.84   11.21
   1  -3  -6  322.35   10.78
   1  -3  -6  314.69   11.89
   1  -3  -6  302.44   13.02
  -1   3   6  310.63   13.36
  -1   3   6  313.56   10.32
  -1   3   6  314.69   12.40
   0  -3  -6  475.69   14.61
   0  -3  -6  501.31   16.42
   0  -3  -6  517.14   17.60
   0   3   6  483.83   17.23
   0   3   6  457.07   15.99
  -1  -3  -6  672.01   19.65
  -1  -3  -6  620.64   17.54
  -1  -3  -6  567.18   23.67
  -1  -3  -6  653.59   20.55
   1   3   6  611.34   18.82
  -2  -3  -6    1.11    0.85
  -2  -3  -6    2.21    1.11
  -2  -3  -6    1.26    1.03
  -2  -3  -6    3.25    0.69
   2   3   6    2.35    0.75
  -3  -3  -6  114.41    5.41
  -3  -3  -6  106.50    5.02
  -3  -3  -6  120.57    5.24
  -3  -3  -6  115.01    5.81
  -4  -3  -6    1.71    0.86
  -4  -3  -6    2.96    1.20
  -4  -3  -6    1.76    0.74
  -4  -3  -6    2.11    0.85
  -5  -3  -6 1054.23   28.35
  -5  -3  -6 1092.93   33.16
  -5  -3  -6 1083.89   28.53
  -5  -3  -6 1051.96   28.49
  -6  -3  -6  125.08    4.84
  -6  -3  -6  119.35    8.29
  -6  -3  -6  124.57    4.89
  -7  -3  -6  295.77    9.71
  -7  -3  -6  279.87    9.50
  -8  -3  -6    2.11    1.14
  -8  -3  -6    1.21    1.06
  -7   4   6   17.20    4.92
  -7   4   6   15.76    4.71
  -6   4   6   25.36    5.45
   5  -4  -6  239.22   14.01
   5  -4  -6  243.16   11.33
  -5   4   6  279.93   14.01
   4  -4  -6    0.89    0.86
   4  -4  -6    0.47    1.61
   4  -4  -6    2.95    1.70
   4  -4  -6    1.15    0.98
   4  -4  -6    2.31    1.80
  -4   4   6    1.59    1.97
   3  -4  -6  101.16    7.15
   3  -4  -6   99.27    5.31
   3  -4  -6  101.20    6.97
   3  -4  -6   98.26    6.20
   3  -4  -6  100.15    6.50
  -3   4   6  103.47    6.22
  -3   4   6  109.18    7.37
  -3   4   6   98.49    7.75
   2  -4  -6  868.84   26.12
   2  -4  -6  854.90   26.57
   2  -4  -6  845.58   26.31
   2  -4  -6  834.38   27.76
   2  -4  -6  838.46   24.59
  -2   4   6  855.63   24.35
  -2   4   6  820.65   28.46
  -2   4   6  882.56   27.49
   1  -4  -6    1.91    0.94
   1  -4  -6    1.14    1.51
   1  -4  -6    1.98    1.23
   1  -4  -6    2.01    1.26
  -1   4   6    0.55    1.14
  -1   4   6    0.26    0.94
   0  -4  -6   45.20    5.26
   0  -4  -6   40.44    3.34
   0  -4  -6   38.81    4.06
   0  -4  -6   34.18    2.54
   0   4   6   36.79    3.55
   0   4   6   30.42    3.52
   0   4   6   26.16    3.25
  -1  -4  -6 2440.39   59.75
  -1  -4  -6 2350.59   61.81
  -1  -4  -6 2253.91   62.76
   1   4   6 2288.56   60.95
  -2  -4  -6 1047.04   29.25
  -2  -4  -6 1032.55   29.01
  -2  -4  -6 1031.58   29.84
   2   4   6 1032.39   27.30
  -3  -4  -6 2285.77   58.58
  -3  -4  -6 2126.77   58.48
  -3  -4  -6 2361.85   59.25
  -4  -4  -6  395.65   15.00
  -4  -4  -6  371.10   11.64
  -4  -4  -6  400.78   11.78
  -4  -4  -6  396.08   11.70
  -5  -4  -6  150.60    5.12
  -5  -4  -6  144.11    8.67
  -5  -4  -6  149.50    5.11
  -6  -4  -6  353.10   16.03
  -7   5   6  156.85   11.86
  -7   5   6  154.89   11.66
  -6   5   6  453.24   20.61
  -6   5   6  464.19   20.98
   5  -5  -6  148.72    8.56
  -5   5   6  154.97   10.34
  -5   5   6  142.36   10.08
   4  -5  -6 3171.48   82.14
   4  -5  -6 3203.05   84.69
   4  -5  -6 3157.07   85.48
   4  -5  -6 3083.35   87.57
  -4   5   6 3250.68   87.55
  -4   5   6 3025.24   88.86
  -4   5   6 3231.53   87.24
   3  -5  -6 1114.74   32.97
   3  -5  -6 1061.57   31.06
   3  -5  -6 1065.63   34.36
   3  -5  -6 1097.28   33.53
   3  -5  -6 1036.35   34.48
  -3   5   6 1125.13   36.52
  -3   5   6 1084.89   35.96
  -3   5   6 1126.36   34.59
  -3   5   6 1130.87   34.81
   2  -5  -6   47.18    4.86
   2  -5  -6   37.86    3.67
   2  -5  -6   47.98    5.17
   2  -5  -6   37.98    5.07
   2  -5  -6   47.06    5.11
  -2   5   6   50.48    6.06
  -2   5   6   45.73    5.94
  -2   5   6   45.61    5.43
  -2   5   6   45.83    5.35
   1  -5  -6  455.15   16.35
   1  -5  -6  475.55   16.07
   1  -5  -6  461.38   14.72
   1  -5  -6  488.90   17.82
  -1   5   6  472.34   16.72
  -1   5   6  447.49   16.63
  -1   5   6  461.60   17.45
  -1   5   6  468.35   17.98
   0  -5  -6   15.36    2.58
   0  -5  -6   13.42    1.94
   0  -5  -6   19.96    3.53
   0  -5  -6   14.26    2.69
   0   5   6   19.53    3.26
   0   5   6   14.65    2.58
  -1  -5  -6    0.53    0.81
  -1  -5  -6   -1.98    0.75
  -1  -5  -6    0.46    0.86
   1   5   6    1.60    0.89
  -2  -5  -6  669.61   20.08
  -2  -5  -6  682.84   20.73
  -2  -5  -6  699.93   20.57
  -2  -5  -6  693.49   21.35
   2   5   6  677.43   18.83
  -3  -5  -6 1682.80   43.69
  -3  -5  -6 1553.52   43.61
  -3  -5  -6 1735.39   44.26
  -3  -5  -6 1607.25   44.22
  -4  -5  -6   50.89    2.97
  -4  -5  -6   44.11    5.19
  -4  -5  -6   40.24    2.61
  -4  -5  -6   50.10    2.75
  -4  -5  -6   48.29    2.79
   4   5   6   45.86    2.22
  -5  -5  -6   53.06    2.51
  -5  -5  -6   48.35    2.47
  -5  -5  -6   62.39    6.67
  -5  -5  -6   52.62    2.53
  -6  -5  -6   86.93    8.98
  -6   6   6  372.83   18.43
   5  -6  -6   17.33    3.59
   5  -6  -6   24.37    2.08
   5  -6  -6   23.28    2.42
  -5   6   6   14.84    3.96
   4  -6  -6  338.93   14.60
   4  -6  -6  333.10   12.21
   4  -6  -6  324.91   13.90
   4  -6  -6  320.38   15.83
  -4   6   6  324.53   15.36
   3  -6  -6  410.61   17.27
   3  -6  -6  420.56   16.05
   3  -6  -6  476.70   26.18
   3  -6  -6  431.36   14.74
   3  -6  -6  427.67   16.69
  -3   6   6  439.61   17.59
  -3   6   6  403.97   18.28
   2  -6  -6  221.22   10.64
   2  -6  -6  239.57   10.54
   2  -6  -6  235.45   11.77
   2  -6  -6  234.32    9.36
  -2   6   6  230.21   11.89
  -2   6   6  227.26   12.26
  -2   6   6  237.60   11.31
   1  -6  -6  783.45   24.81
   1  -6  -6  772.63   26.52
   1  -6  -6  820.74   23.58
   1  -6  -6  858.33   25.70
  -1   6   6  811.95   26.66
  -1   6   6  784.03   25.62
   0  -6  -6  427.42   15.08
   0  -6  -6  408.65   16.02
   0  -6  -6  416.09   14.61
   0  -6  -6  436.76   13.50
   0   6   6  434.44   15.06
   0   6   6  403.92   15.33
  -1  -6  -6   -0.60    0.62
  -1  -6  -6    1.53    1.09
  -1  -6  -6   -0.89    0.69
   1   6   6    0.19    0.71
  -2  -6  -6   40.74    3.70
  -2  -6  -6   39.56    3.33
  -2  -6  -6   43.34    3.23
  -2  -6  -6   37.66    3.17
  -2  -6  -6   44.90    3.79
  -2  -6  -6   31.57    3.68
   2   6   6   44.48    2.71
  -3  -6  -6   55.57    3.44
  -3  -6  -6   52.41    3.81
  -3  -6  -6   50.48    3.50
  -3  -6  -6   60.55    3.69
  -3  -6  -6   58.98    4.04
  -4  -6  -6   28.58    2.34
  -4  -6  -6   26.78    2.72
  -4  -6  -6   30.24    2.30
  -4  -6  -6   31.48    2.54
  -4  -6  -6   31.88    2.68
   4   6   6   32.17    2.28
  -5  -6  -6   13.07    3.10
  -5  -6  -6   12.88    1.69
  -5  -6  -6   11.01    1.48
  -5  -6  -6   14.71    1.70
  -6  -6  -6  749.27   19.89
  -6  -6  -6  760.36   20.08
  -6   7   6    9.15    3.74
   5  -7  -6   -0.46    0.72
   5  -7  -6    0.38    0.81
   5  -7  -6   -0.45    1.50
  -5   7   6    2.23    2.33
   4  -7  -6   69.53    7.47
   4  -7  -6   70.53    4.94
   4  -7  -6   59.59    6.28
  -4   7   6   61.18    7.41
   3  -7  -6   74.20    5.93
   3  -7  -6   73.27    7.88
   3  -7  -6   76.84    5.11
   3  -7  -6   80.08    6.40
  -3   7   6   68.38    7.43
   2  -7  -6  446.49   16.23
   2  -7  -6  385.87   17.28
   2  -7  -6  396.74   14.47
   2  -7  -6  441.06   16.80
  -2   7   6  443.69   18.07
  -2   7   6  456.27   17.36
   1  -7  -6    1.09    1.17
   1  -7  -6    0.14    0.80
   1  -7  -6    0.86    1.24
   1  -7  -6    0.72    1.23
  -1   7   6    7.61    2.25
  -1   7   6    0.27    1.20
   0  -7  -6  115.38    6.55
   0  -7  -6  117.85    6.86
   0  -7  -6  132.40    7.88
   0   7   6  113.85    7.08
   0   7   6  122.58    6.90
  -1  -7  -6   27.21    4.05
  -1  -7  -6   25.62    4.03
  -1  -7  -6   27.52    3.47
  -1  -7  -6   21.81    3.27
   1   7   6   19.77    2.97
  -2  -7  -6    8.10    2.22
  -2  -7  -6    9.69    2.17
  -2  -7  -6    6.93    1.91
  -2  -7  -6    8.11    2.15
  -2  -7  -6    8.71    2.02
  -2  -7  -6    6.82    1.76
   2   7   6    8.22    1.55
  -3  -7  -6   12.74    2.58
  -3  -7  -6    5.94    1.68
  -3  -7  -6    7.97    1.84
  -3  -7  -6    8.17    1.97
  -3  -7  -6    8.97    1.79
   3   7   6   10.02    1.75
  -4  -7  -6  142.00    6.76
  -4  -7  -6  142.65    6.05
  -4  -7  -6  144.98    6.79
  -4  -7  -6  141.16    6.24
   4   7   6  142.16    6.16
  -5  -7  -6   13.32    2.03
  -5  -7  -6   14.44    2.24
  -5  -7  -6   14.78    2.21
  -5  -7  -6   17.58    2.07
   5   7   6   15.21    2.22
  -6  -7  -6  180.24    6.59
  -6  -7  -6  194.46    7.23
  -6  -7  -6  188.25    6.83
  -6  -7  -6  195.65    7.13
  -7  -7  -6  286.20    8.96
  -6   8   6   62.39    8.78
   5  -8  -6  129.48    6.37
   5  -8  -6  172.97   17.67
  -5   8   6  146.94   10.73
   4  -8  -6  349.17   15.53
   4  -8  -6  363.08   16.29
   4  -8  -6  354.43   13.71
  -4   8   6  382.23   17.54
   3  -8  -6   49.17    5.68
   3  -8  -6   43.86    5.78
   3  -8  -6   54.46    5.24
  -3   8   6   53.31    6.80
   2  -8  -6   55.42    6.32
   2  -8  -6   60.72    6.22
   2  -8  -6   61.08    4.51
  -2   8   6   47.38    5.91
   1  -8  -6   42.27    5.30
   1  -8  -6   39.47    4.19
   1  -8  -6   41.55    4.79
   1  -8  -6   42.57    5.89
  -1   8   6   37.15    4.95
   0  -8  -6  423.07   15.93
   0  -8  -6  392.36   15.11
   0  -8  -6  435.53   17.04
   0  -8  -6  403.60   17.62
   0   8   6  398.82   15.65
  -1  -8  -6  142.77    7.37
  -1  -8  -6  145.38    8.89
  -1  -8  -6  138.76    8.30
  -1  -8  -6  141.43    7.70
   1   8   6  141.12    7.39
  -2  -8  -6  323.65   13.36
  -2  -8  -6  309.40   13.54
  -2  -8  -6  325.78   12.54
  -2  -8  -6  319.45   11.98
  -3  -8  -6  837.55   25.05
  -3  -8  -6  845.97   26.50
  -3  -8  -6  835.55   26.69
  -3  -8  -6  834.54   25.53
   3   8   6  873.32   24.89
  -4  -8  -6  259.45    9.66
  -4  -8  -6  242.32   10.53
  -4  -8  -6  255.41    9.95
  -4  -8  -6  233.44   10.25
   4   8   6  254.71    9.75
  -5  -8  -6  964.39   28.39
  -5  -8  -6  966.00   27.30
  -5  -8  -6  962.48   27.63
  -5  -8  -6  973.66   28.56
   5   8   6  964.18   27.96
  -6  -8  -6  776.50   22.71
  -6  -8  -6  748.05   23.26
  -6  -8  -6  804.22   22.48
  -6  -8  -6  797.01   23.56
  -7  -8  -6   91.76    4.64
  -7  -8  -6  106.09    4.93
  -7  -8  -6   94.52    5.29
  -7  -8  -6   91.45    5.17
   5  -9  -6    4.17    1.55
  -5   9   6    1.76    2.56
   4  -9  -6   65.43    7.95
   4  -9  -6   52.72    5.29
   4  -9  -6   64.01    7.03
  -4   9   6   45.51    6.72
   3  -9  -6   85.04    7.17
   3  -9  -6   74.96    5.53
   3  -9  -6   78.95    7.75
  -3   9   6   68.11    8.16
   2  -9  -6   76.93    6.66
   2  -9  -6   81.75    5.52
   2  -9  -6   82.99    6.51
  -2   9   6   88.98    7.28
   1  -9  -6   18.12    3.84
   1  -9  -6   17.19    3.34
   1  -9  -6   16.89    3.67
   1  -9  -6   20.23    3.05
  -1   9   6   21.37    4.23
   0  -9  -6    1.32    1.72
   0  -9  -6    5.90    2.18
   0  -9  -6    4.22    1.86
   0   9   6    4.63    1.97
  -1  -9  -6   45.52    4.94
  -1  -9  -6   39.49    4.92
  -1  -9  -6   29.16    4.59
  -1  -9  -6   43.03    5.45
  -2  -9  -6  208.73   11.02
  -2  -9  -6  189.12    9.47
  -2  -9  -6  195.48    9.25
  -2  -9  -6  209.76   10.68
  -3  -9  -6   67.89    5.11
  -3  -9  -6   80.90    6.13
  -3  -9  -6   83.77    6.35
  -3  -9  -6  101.18    6.17
   3   9   6   97.18    5.68
  -4  -9  -6  131.65    7.85
  -4  -9  -6  138.46    6.98
  -4  -9  -6  137.04    7.77
  -4  -9  -6  137.21    7.22
   4   9   6  130.50    6.96
  -5  -9  -6  138.67    6.80
  -5  -9  -6  129.37    7.57
  -5  -9  -6  136.82    7.64
  -5  -9  -6  137.12    7.15
   5   9   6  136.14    7.26
  -6  -9  -6    0.19    1.37
  -6  -9  -6    2.49    1.53
  -6  -9  -6   -0.44    1.06
  -6  -9  -6    1.51    1.31
  -7  -9  -6    1.21    1.39
  -7  -9  -6   -0.19    0.89
   4 -10  -6   17.69    4.33
   4 -10  -6   24.70    4.91
  -4  10   6   21.32    5.15
   3 -10  -6  717.25   26.85
   3 -10  -6  717.35   25.94
   3 -10  -6  709.13   23.65
  -3  10   6  709.81   27.71
   2 -10  -6   27.65    4.72
   2 -10  -6   15.43    2.99
   2 -10  -6   20.57    4.29
  -2  10   6   15.94    3.93
   1 -10  -6   84.68    7.00
   1 -10  -6   68.98    7.02
   1 -10  -6   73.60    5.35
  -1  10   6   84.45    7.07
   0 -10  -6   60.10    6.26
   0 -10  -6   58.43    6.78
   0 -10  -6   67.64    8.28
  -1 -10  -6  315.16   13.99
  -1 -10  -6  326.19   13.62
  -1 -10  -6  306.64   14.92
  -2 -10  -6  210.09   10.15
  -2 -10  -6  195.24   11.59
  -2 -10  -6  221.35   11.73
  -2 -10  -6  230.11   10.93
  -3 -10  -6  304.29   14.35
  -3 -10  -6  319.38   14.72
  -3 -10  -6  334.87   13.20
  -3 -10  -6  327.38   13.70
   3  10   6  315.68   12.79
  -4 -10  -6   55.76    6.63
  -4 -10  -6   52.75    6.30
  -4 -10  -6   49.93    5.62
  -4 -10  -6   43.03    4.78
   4  10   6   45.30    4.99
  -5 -10  -6    6.29    2.39
  -5 -10  -6   11.54    2.45
  -5 -10  -6    7.46    2.53
  -5 -10  -6    8.27    2.46
   5  10   6   10.02    2.83
  -6 -10  -6  126.03    7.43
  -6 -10  -6  130.54    8.19
  -6 -10  -6  122.95    7.03
  -6 -10  -6  129.60    7.99
   4 -11  -6  123.95   10.10
   4 -11  -6  133.21    9.91
  -4  11   6  137.26   11.45
   3 -11  -6   94.37   10.20
   3 -11  -6   87.27    9.06
   3 -11  -6   83.71    7.38
  -3  11   6   74.79    9.52
   2 -11  -6   19.77    4.64
   2 -11  -6   17.51    4.02
  -2  11   6   12.76    3.93
   1 -11  -6  315.93   14.90
   1 -11  -6  334.08   15.84
   0 -11  -6   22.32    4.13
   0 -11  -6   28.73    5.03
  -1 -11  -6  361.11   15.27
  -1 -11  -6  351.21   15.78
  -1 -11  -6  350.71   17.24
  -2 -11  -6  582.79   21.42
  -2 -11  -6  580.53   20.71
  -2 -11  -6  521.29   22.38
   2  11   6  572.88   20.17
  -3 -11  -6  121.42    7.85
  -3 -11  -6  125.55    8.31
  -3 -11  -6  116.82    8.83
   3  11   6  119.91    7.54
  -4 -11  -6  151.21    8.83
  -4 -11  -6  154.53    9.07
  -4 -11  -6  167.06   10.26
   4  11   6  156.02    8.93
  -5 -11  -6   14.90    3.67
  -5 -11  -6   14.01    3.55
  -5 -11  -6   12.09    3.08
  -5 -11  -6   15.22    3.32
   2 -12  -6    2.97    2.35
   2 -12  -6    7.10    3.38
   1 -12  -6   -1.45    1.55
   1 -12  -6   -0.94    1.88
   0 -12  -6  730.20   26.60
   0 -12  -6  713.11   27.15
  -1 -12  -6   31.42    5.08
  -1 -12  -6   26.79    5.05
  -2 -12  -6  302.97   16.09
  -2 -12  -6  300.08   14.71
  -2 -12  -6  271.29   13.69
   2  12   6  311.78   13.89
  -3 -12  -6  379.81   16.81
  -3 -12  -6  347.21   15.86
  -3 -12  -6  401.30   18.67
   3  12   6  381.43   16.06
  -4 -12  -6    0.57    1.52
  -4 -12  -6    0.05    1.46
  -4 -12  -6   -1.47    1.55
   4  12   6   -1.37    1.48
   1 -13  -6  241.80   14.58
   0 -13  -6  159.68   10.90
   0 -13  -6  163.49   11.35
  -1 -13  -6  640.77   25.96
  -1 -13  -6  695.28   25.84
   1  13   6  650.36   24.36
  -2 -13  -6   14.28    4.28
  -2 -13  -6   15.51    3.98
   2  13   6   17.47    4.04
   1   8  -7   53.49    7.90
  -1  -8   7   48.38    8.05
  -1  -8   7   48.08    7.71
   0   8  -7    7.42    3.14
   0   8  -7    3.98    2.82
   0  -8   7    0.52    2.27
   0  -8   7    5.30    3.06
  -1   8  -7  149.23   11.99
  -1   8  -7  150.23   10.69
   1  -8   7  141.53   11.54
   1  -8   7  139.61   11.08
  -2   8  -7   77.67   10.20
  -2   8  -7  104.60    9.92
   2  -8   7   94.81   10.41
   3   7  -7   79.16    9.79
  -3  -7   7   85.80   10.75
  -3  -7   7   76.58    9.49
   2   7  -7   93.24   10.39
  -2  -7   7  117.34   12.32
  -2  -7   7   82.71    9.57
   1   7  -7   32.86    5.77
   1   7  -7   30.74    5.94
  -1  -7   7   46.82    7.27
  -1  -7   7   39.19    7.13
   0   7  -7   87.48    8.95
   0   7  -7  100.31   10.77
   0  -7   7   97.55   10.25
   0  -7   7   99.97   10.64
  -1   7  -7   13.72    4.41
  -1   7  -7    9.22    3.44
   1  -7   7    9.25    3.94
   1  -7   7   12.93    4.25
  -2   7  -7  174.90   10.53
  -2   7  -7  142.68   11.47
   2  -7   7  160.70   11.63
   2  -7   7  192.70   12.07
  -3   7  -7   37.58    6.92
  -3   7  -7   34.05    5.37
  -4   7  -7   14.09    3.60
  -4   7  -7   10.34    4.36
  -4  -6   7  298.76   16.74
  -4  -6   7  307.03   17.42
   3   6  -7  140.84   12.32
  -3  -6   7  107.16   11.45
  -3  -6   7  110.75   11.21
   2   6  -7    5.29    2.86
  -2  -6   7    1.86    2.10
  -2  -6   7    2.53    2.56
   1   6  -7   31.24    5.79
   1   6  -7   32.40    5.47
  -1  -6   7   21.01    4.90
  -1  -6   7   25.30    4.98
   0   6  -7    5.21    3.08
   0   6  -7    3.37    2.45
   0  -6   7    3.77    2.50
   0  -6   7    3.92    2.72
  -1   6  -7   34.58    6.25
  -1   6  -7   35.07    5.28
   1  -6   7   30.37    5.46
   1  -6   7   36.05    6.15
  -2   6  -7  184.14   12.26
  -2   6  -7  191.52   10.39
   2  -6   7  156.74   10.59
   2  -6   7  174.07   11.49
  -3   6  -7   87.55   10.04
  -3   6  -7   86.34    7.86
  -4   6  -7    2.34    1.67
  -4   6  -7    0.93    2.19
  -5   6  -7  123.84    8.13
  -5   6  -7  125.12   10.66
  -5  -5   7  110.31   11.84
  -4  -5   7  114.57    9.94
   3   5  -7  138.54    9.89
  -3  -5   7  129.29    9.89
  -3  -5   7  136.86   10.48
   2   5  -7   66.88    8.08
   2   5  -7   52.00    6.83
  -2  -5   7   51.49    7.08
  -2  -5   7   68.17    8.38
  -2  -5   7   45.48    5.96
   1   5  -7   30.66    5.50
   1   5  -7   21.21    4.27
  -1  -5   7   23.36    4.89
  -1  -5   7   22.18    3.94
  -1  -5   7   25.66    4.87
   0   5  -7  313.29   16.09
   0   5  -7  340.78   15.04
   0  -5   7  344.57   16.44
   0  -5   7  341.56   15.97
  -1   5  -7  114.57    7.89
  -1   5  -7  126.58    9.49
  -1   5  -7  120.07    7.07
   1  -5   7  117.16    8.56
   1  -5   7  120.08    9.07
  -2   5  -7  161.13    9.00
  -2   5  -7  159.80   10.76
   2  -5   7  144.41    9.54
   2  -5   7  147.39   10.00
  -3   5  -7   17.49    3.44
  -3   5  -7    5.53    2.87
   3  -5   7   14.13    3.69
  -4   5  -7   57.38    5.91
  -4   5  -7   53.62    7.43
  -5   5  -7    9.68    2.53
  -5   5  -7    2.91    2.55
  -6   5  -7  307.42   16.87
  -5  -4   7   12.98    4.49
  -4  -4   7   27.06    5.60
  -3  -4   7   26.30    5.06
  -3  -4   7   34.63    6.08
  -3  -4   7   26.80    4.71
   2   4  -7  878.57   29.79
   2   4  -7  862.65   30.29
  -2  -4   7  847.46   30.17
  -2  -4   7  908.09   31.17
  -2  -4   7  840.52   28.34
   1   4  -7 1121.80   37.07
   1   4  -7 1135.58   35.87
   1   4  -7 1119.33   32.56
  -1  -4   7 1150.28   37.31
  -1  -4   7 1083.65   33.85
  -1  -4   7 1198.26   37.16
   0   4  -7 1106.68   33.48
   0   4  -7 1033.37   34.92
   0   4  -7 1056.17   31.29
   0  -4   7 1007.91   34.08
   0  -4   7 1076.31   34.98
  -1   4  -7 2556.87   69.50
  -1   4  -7 2663.00   72.66
  -1   4  -7 2501.40   68.10
  -1   4  -7 2439.20   74.02
   1  -4   7 2476.87   71.43
   1  -4   7 2542.24   70.99
  -2   4  -7   19.68    4.75
  -2   4  -7   14.93    3.72
  -2   4  -7   15.59    3.20
   2  -4   7   18.79    3.80
   2  -4   7   16.10    3.73
  -3   4  -7  159.68   10.91
  -3   4  -7  155.65   10.19
  -3   4  -7  152.35    8.16
   3  -4   7  168.59    9.36
   3  -4   7  129.31    8.78
   3  -4   7  159.83    7.61
   3  -4   7  139.37    5.90
  -4   4  -7    1.91    1.98
  -4   4  -7    0.73    1.76
  -4   4  -7    0.55    1.35
  -5   4  -7  248.24   13.80
  -5   4  -7  270.20   15.20
  -5   4  -7  240.97   10.71
  -6   4  -7   32.31    6.47
  -6   4  -7   40.46    6.58
  -6  -3   7    9.63    4.07
  -5  -3   7   68.24    8.72
  -4  -3   7   83.23    9.09
   3   3  -7  326.34   15.07
  -3  -3   7  330.90   14.74
  -3  -3   7  330.52   16.05
   2   3  -7  693.44   24.21
   2   3  -7  700.25   24.75
   2   3  -7  644.25   20.16
  -2  -3   7  653.26   22.54
  -2  -3   7  684.64   24.72
  -2  -3   7  669.53   24.96
   1   3  -7   11.97    2.34
   1   3  -7    8.45    3.84
   1   3  -7   20.22    4.06
   1   3  -7   17.92    3.52
  -1  -3   7   19.44    3.04
  -1  -3   7   15.61    3.71
  -1  -3   7   14.36    3.36
   0   3  -7 2138.89   62.70
   0   3  -7 2201.14   65.08
   0   3  -7 2168.30   60.95
   0   3  -7 2179.71   59.35
   0  -3   7 2202.01   62.81
   0  -3   7 2289.58   62.49
   0  -3   7 2208.31   63.96
  -1   3  -7  377.61   17.65
  -1   3  -7  376.09   13.98
  -1   3  -7  373.01   14.53
  -1   3  -7  375.61   16.38
   1  -3   7  379.89   15.99
   1  -3   7  384.69   15.70
  -2   3  -7   47.97    4.02
  -2   3  -7   45.67    6.16
  -2   3  -7   39.96    6.09
  -2   3  -7   33.92    4.14
   2  -3   7   53.75    6.32
   2  -3   7   39.10    4.92
   2  -3   7   42.70    3.14
  -3   3  -7   13.57    2.64
  -3   3  -7   15.58    3.69
  -3   3  -7   18.95    4.23
   3  -3   7   10.65    2.83
   3  -3   7   11.85    2.18
   3  -3   7   11.31    1.36
   3  -3   7    7.43    2.29
  -4   3  -7   76.78    7.94
  -4   3  -7   66.75    4.78
  -4   3  -7   74.56    7.19
   4  -3   7   73.36    5.23
  -5   3  -7   14.93    3.96
  -5   3  -7   13.31    2.54
  -5   3  -7   11.38    3.53
  -6   3  -7  267.68   14.90
  -6   3  -7  261.33   13.80
  -7   3  -7   58.15    7.99
  -7   3  -7   60.57    8.43
  -6  -2   7  146.30   11.23
  -5  -2   7   52.23    7.62
   4   2  -7    1.02    1.60
  -4  -2   7   -0.40    1.55
  -4  -2   7   -1.09    1.16
   3   2  -7   26.30    4.66
  -3  -2   7   27.45    4.38
  -3  -2   7   26.15    4.78
   2   2  -7  295.77   13.62
   2   2  -7  293.01   10.68
  -2  -2   7  293.23   14.04
  -2  -2   7  293.32   12.07
  -2  -2   7  273.37   16.56
   1   2  -7   36.57    4.74
   1   2  -7   72.13    6.50
   1   2  -7   40.52    3.52
   1   2  -7   43.73    5.75
  -1  -2   7   48.78    6.08
  -1  -2   7   41.78    5.46
  -1  -2   7   45.45    3.62
   0   2  -7  356.72   15.38
   0   2  -7  381.79   16.91
   0   2  -7  357.82   13.23
   0   2  -7  375.53   14.28
   0  -2   7  355.02   15.99
   0  -2   7  372.23   15.40
   0  -2   7  370.52   15.10
   0  -2   7  364.58   11.89
  -1   2  -7  918.08   29.57
  -1   2  -7  921.35   27.03
  -1   2  -7  845.38   30.61
  -1   2  -7  888.60   27.24
   1  -2   7  885.86   25.52
   1  -2   7  862.40   28.68
   1  -2   7  930.59   28.68
  -2   2  -7  165.22   10.35
  -2   2  -7  184.34    8.45
  -2   2  -7  194.34   10.25
  -2   2  -7  190.80    8.44
   2  -2   7  189.80    6.62
   2  -2   7  177.03    9.35
   2  -2   7  185.98    6.80
   2  -2   7  183.36    9.21
  -3   2  -7  182.49    9.84
  -3   2  -7  190.90    8.50
  -3   2  -7  173.64   10.41
  -3   2  -7  177.15    7.89
   3  -2   7  179.17    9.06
   3  -2   7  175.84    8.77
   3  -2   7  180.30    7.33
  -4   2  -7   43.55    5.53
  -4   2  -7   43.24    3.97
  -4   2  -7   45.44    6.35
   4  -2   7   38.03    4.21
  -5   2  -7   36.62    5.30
  -5   2  -7   30.93    4.97
  -5   2  -7   44.93    3.35
   5  -2   7   40.06    4.90
  -6   2  -7  122.86    8.96
  -6   2  -7  108.49    8.50
  -6   2  -7  104.27    9.67
  -7   2  -7  190.33   11.65
  -7   2  -7  157.56   10.31
  -6  -1   7   32.84    6.23
  -5  -1   7  195.03   12.20
   4   1  -7   84.38    8.68
   4   1  -7  104.24    6.86
  -4  -1   7   95.89    9.67
  -4  -1   7   76.85    6.70
   3   1  -7   15.94    3.56
   3   1  -7   20.04    2.41
  -3  -1   7   15.24    3.15
  -3  -1   7   15.79    3.85
   2   1  -7    3.89    1.36
   2   1  -7    2.94    1.93
   2   1  -7    0.75    1.41
  -2  -1   7    2.53    1.94
  -2  -1   7    4.30    2.30
  -2  -1   7    2.35    1.34
   1   1  -7    3.51    1.26
   1   1  -7    3.42    1.87
  -1  -1   7    1.99    1.02
  -1  -1   7    1.19    1.38
  -1  -1   7    2.49    1.67
   0   1  -7   34.54    4.16
   0   1  -7   23.92    3.84
   0   1  -7   22.91    2.83
   0   1  -7   16.83    3.44
   0  -1   7   17.60    3.21
   0  -1   7   27.38    1.94
   0  -1   7   34.28    4.76
   0  -1   7   27.64    2.98
  -1   1  -7 1277.52   35.71
  -1   1  -7 1270.84   35.76
  -1   1  -7 1222.73   37.63
  -1   1  -7 1243.64   39.34
   1  -1   7 1250.55   37.31
   1  -1   7 1269.13   34.00
  -2   1  -7  297.49   13.55
  -2   1  -7  288.54   10.93
  -2   1  -7  278.76   10.56
  -2   1  -7  290.34   12.54
   2  -1   7  273.27    8.64
   2  -1   7  278.70    8.11
   2  -1   7  289.39   11.90
  -3   1  -7   85.38    4.58
  -3   1  -7   72.89    4.68
  -3   1  -7   75.17    5.78
  -3   1  -7   81.97    6.37
   3  -1   7   78.10    4.03
   3  -1   7   77.07    5.23
  -4   1  -7  161.36    8.64
  -4   1  -7  163.39    9.34
  -4   1  -7  147.09    6.28
   4  -1   7  147.42    7.21
  -5   1  -7    2.31    1.73
  -5   1  -7    1.38    1.47
   5  -1   7    3.40    1.81
  -6   1  -7   11.06    3.05
  -6   1  -7   10.92    2.81
   6  -1   7    3.96    2.25
  -7   1  -7  242.54   12.27
  -7   1  -7  257.22   13.32
  -7   1  -7  259.59   13.18
  -8   1  -7  736.03   25.99
  -8   1  -7  714.07   27.12
  -6   0   7   10.56    3.90
  -5   0   7   23.32    4.85
   4   0  -7  165.31    9.26
   4   0  -7  162.13    8.82
  -4   0   7  160.23    9.56
  -4   0   7  158.44   10.34
   3   0  -7  142.97   15.69
   3   0  -7  140.90    6.23
   3   0  -7  145.17    8.61
   3   0  -7  154.81    8.41
  -3   0   7  137.51    8.99
  -3   0   7  145.67    8.11
   2   0  -7    1.30    1.35
   2   0  -7    0.07    1.11
   2   0  -7    0.24    0.63
  -2   0   7   -0.03    1.10
  -2   0   7    0.62    1.56
  -2   0   7   -0.66    0.73
  -2   0   7    1.34    1.11
   1   0  -7  271.94   10.70
   1   0  -7  274.73   12.28
   1   0  -7  293.00   13.66
  -1   0   7  281.58    9.69
  -1   0   7  280.71   10.28
  -1   0   7  267.61   13.37
  -1   0   7  282.98   12.62
   0   0  -7  250.83   12.20
   0   0  -7  245.28    9.79
   0   0  -7  238.80   11.04
   0   0   7  239.91    8.78
   0   0   7  227.85   11.43
   0   0   7  239.40   10.96
  -1   0  -7  696.76   20.76
  -1   0  -7  714.15   23.26
  -1   0  -7  702.41   21.64
  -1   0  -7  710.11   24.52
   1   0   7  693.69   22.79
   1   0   7  711.28   19.81
  -2   0  -7  123.54    5.53
  -2   0  -7   97.22    6.27
  -2   0  -7  102.54    7.07
  -2   0  -7  100.06    4.96
   2   0   7   98.71    5.88
  -3   0  -7 1194.50   32.16
  -3   0  -7 1111.54   33.96
  -3   0  -7 1196.69   34.82
  -3   0  -7 1173.04   35.76
  -3   0  -7 1217.45   32.07
  -4   0  -7   62.58    4.60
  -4   0  -7   67.23    5.39
  -4   0  -7   62.29    3.59
  -4   0  -7   72.41    5.08
  -4   0  -7   59.56    3.15
   4   0   7   62.74    4.26
  -5   0  -7  808.09   22.77
  -5   0  -7  824.34   25.66
  -5   0  -7  793.18   26.20
   5   0   7  805.36   25.78
  -6   0  -7  244.55   11.52
  -6   0  -7  243.32   11.01
   6   0   7  251.09   12.33
  -7   0  -7   42.64    5.47
  -7   0  -7   36.95    4.78
  -7   0  -7   44.82    5.74
   7   0   7   36.56    6.41
  -8   0  -7   90.48    7.21
  -8   0  -7   93.33    7.37
  -8   0  -7   77.37    6.43
  -7   1   7   25.54    6.06
  -6   1   7  431.99   20.26
   5  -1  -7    2.23    2.47
  -5   1   7    6.01    2.99
   4  -1  -7  338.81   13.89
   4  -1  -7  342.04   15.47
   4  -1  -7  328.48   10.20
   4  -1  -7  338.90   14.38
  -4   1   7  357.35   16.11
  -4   1   7  346.59   14.73
   3  -1  -7  392.72   15.57
   3  -1  -7  391.56   16.90
   3  -1  -7  392.65   13.14
   3  -1  -7  378.65   15.63
   3  -1  -7  407.63   15.34
  -3   1   7  391.69   14.85
  -3   1   7  387.86   17.83
  -3   1   7  383.22   16.62
   2  -1  -7  156.57    7.68
   2  -1  -7  172.81    7.52
   2  -1  -7  147.76    9.28
   2  -1  -7  145.77    8.43
  -2   1   7  153.07    7.19
  -2   1   7  162.72    7.21
  -2   1   7  149.38    8.89
  -2   1   7  151.27    9.82
   1  -1  -7    0.58    0.78
   1  -1  -7    0.17    0.66
   1  -1  -7   -0.98    0.64
   1  -1  -7    3.23    1.62
   1  -1  -7    0.50    1.15
  -1   1   7   -0.11    0.88
  -1   1   7    0.40    0.78
  -1   1   7    0.27    1.19
   0  -1  -7   21.80    3.34
   0  -1  -7   25.55    2.80
   0  -1  -7   17.56    3.56
   0   1   7   25.84    2.55
   0   1   7   25.19    3.68
   0   1   7   37.95    5.06
  -1  -1  -7  357.42   14.65
  -1  -1  -7  345.23   13.49
  -1  -1  -7  368.24   11.68
   1   1   7  345.49   10.38
   1   1   7  338.78   12.97
  -2  -1  -7   10.61    1.66
  -2  -1  -7   10.33    2.31
  -2  -1  -7    8.49    2.04
  -2  -1  -7    8.44    2.30
   2   1   7   10.28    2.11
  -3  -1  -7   12.95    2.52
  -3  -1  -7   13.38    2.46
  -3  -1  -7   14.26    1.85
  -3  -1  -7   14.77    2.94
  -3  -1  -7   19.89    3.14
   3   1   7   16.84    2.14
  -4  -1  -7  250.25    9.06
  -4  -1  -7  217.23    9.51
  -4  -1  -7  232.30    9.45
  -4  -1  -7  244.35    9.87
  -4  -1  -7  236.34   10.33
  -4  -1  -7  231.48    7.72
  -5  -1  -7    2.53    1.05
  -5  -1  -7    0.37    0.93
  -5  -1  -7   -0.20    0.47
  -5  -1  -7   -0.11    0.91
  -6  -1  -7  218.40    9.36
  -6  -1  -7  205.32    6.89
  -6  -1  -7  208.99   10.30
  -6  -1  -7  201.25    9.54
  -7  -1  -7   57.90    5.02
  -7  -1  -7   57.43    4.78
  -8  -1  -7    3.25    1.83
  -8  -1  -7    6.48    2.10
  -8  -1  -7    3.46    2.13
  -7   2   7  176.76   12.72
  -6   2   7   13.59    4.19
   5  -2  -7  256.41   14.34
  -5   2   7  267.06   14.35
   4  -2  -7    9.02    2.77
   4  -2  -7    6.13    2.46
   4  -2  -7    5.81    2.11
   4  -2  -7    6.47    1.30
  -4   2   7    7.03    2.86
   3  -2  -7    0.30    1.19
   3  -2  -7    0.93    1.31
   3  -2  -7    0.99    1.30
   3  -2  -7   -0.44    0.60
   3  -2  -7    0.14    1.37
  -3   2   7   -0.59    1.44
  -3   2   7   -0.88    1.19
   2  -2  -7  181.93    8.79
   2  -2  -7  172.20    8.97
   2  -2  -7  176.90    7.30
   2  -2  -7  163.59    7.73
   2  -2  -7  164.26    8.02
   2  -2  -7  160.58    9.69
  -2   2   7  147.44    8.79
  -2   2   7  159.98    7.25
  -2   2   7  170.94   10.16
   1  -2  -7    5.64    1.84
   1  -2  -7    0.50    0.77
   1  -2  -7    3.19    1.11
   1  -2  -7    3.93    2.03
  -1   2   7    2.86    1.43
  -1   2   7    5.69    2.12
  -1   2   7    1.55    0.88
   0  -2  -7  147.30    8.54
   0  -2  -7  152.37    6.43
   0  -2  -7  140.92    7.67
   0  -2  -7  149.90    5.39
   0   2   7  151.69    5.80
   0   2   7  143.50    7.56
  -1  -2  -7 1624.13   42.98
  -1  -2  -7 1652.51   45.47
  -1  -2  -7 1582.49   46.46
   1   2   7 1629.04   44.66
  -2  -2  -7   96.91    4.27
  -2  -2  -7   93.16    5.53
  -2  -2  -7   92.58    6.03
  -2  -2  -7   92.09    3.38
  -2  -2  -7   98.60    5.65
   2   2   7   96.86    4.96
  -3  -2  -7  157.22    5.48
  -3  -2  -7  145.91    7.13
  -3  -2  -7  156.08    6.12
  -3  -2  -7  159.56    7.15
  -3  -2  -7  159.03    7.81
  -3  -2  -7  157.04    7.25
   3   2   7  155.02    4.99
  -4  -2  -7  171.58    5.25
  -4  -2  -7  178.08    7.97
  -4  -2  -7  171.50    7.52
  -4  -2  -7  165.39    7.26
  -4  -2  -7  172.70    7.59
  -4  -2  -7  175.38    7.60
  -5  -2  -7   37.42    3.27
  -5  -2  -7   30.55    3.87
  -5  -2  -7   33.08    3.51
  -6  -2  -7   28.66    4.23
  -6  -2  -7   24.62    3.03
  -6  -2  -7   28.09    3.49
  -7  -2  -7   57.75    4.11
  -7  -2  -7   41.84    3.81
  -8  -2  -7    0.88    1.34
  -8  -2  -7   -3.48    1.15
  -8  -2  -7    1.07    1.27
  -7   3   7   70.71    9.69
  -6   3   7  296.43   16.16
   5  -3  -7  381.69   18.77
   5  -3  -7  398.24   16.99
  -5   3   7  437.30   18.95
   4  -3  -7   15.19    2.26
   4  -3  -7   14.64    3.05
   4  -3  -7    8.63    2.93
   4  -3  -7   21.93    3.94
  -4   3   7   18.22    4.01
   3  -3  -7    6.98    1.71
   3  -3  -7   11.23    2.78
   3  -3  -7    9.17    2.72
   3  -3  -7    8.15    2.62
   3  -3  -7    9.89    1.94
   3  -3  -7    9.56    2.47
  -3   3   7    8.69    2.86
  -3   3   7    8.90    3.17
   2  -3  -7   16.73    2.44
   2  -3  -7   17.52    2.93
   2  -3  -7   11.84    2.95
   2  -3  -7   19.08    3.36
   2  -3  -7   18.24    3.30
  -2   3   7   18.48    2.54
  -2   3   7   13.45    3.15
  -2   3   7   14.85    3.54
   1  -3  -7   58.89    4.81
   1  -3  -7   60.92    4.71
   1  -3  -7   55.17    5.28
   1  -3  -7   63.55    4.01
   1  -3  -7   62.36    4.06
  -1   3   7   71.00    3.86
  -1   3   7   67.93    5.22
  -1   3   7   64.32    5.63
   0  -3  -7  326.59   11.14
   0  -3  -7  317.21   13.77
   0  -3  -7  339.56   10.62
   0  -3  -7  322.18   12.82
   0   3   7  331.08   10.33
   0   3   7  346.58   12.88
  -1  -3  -7   94.62    5.70
  -1  -3  -7   91.21    4.40
  -1  -3  -7   95.68    6.26
   1   3   7   94.96    5.31
  -2  -3  -7 1010.68   31.05
  -2  -3  -7 1096.97   32.25
  -2  -3  -7 1099.71   28.74
  -2  -3  -7 1111.41   31.27
  -3  -3  -7    3.96    1.57
  -3  -3  -7    1.80    1.09
  -3  -3  -7    2.70    1.34
  -3  -3  -7    4.50    0.74
  -3  -3  -7    1.56    1.03
   3   3   7    2.38    0.59
  -4  -3  -7  340.56   12.71
  -4  -3  -7  337.42   11.55
  -4  -3  -7  359.19   12.08
  -4  -3  -7  304.99   11.26
  -5  -3  -7    4.05    1.31
  -5  -3  -7    4.29    1.27
  -5  -3  -7    5.88    1.43
  -5  -3  -7    6.72    1.51
  -6  -3  -7   32.13    2.68
  -6  -3  -7   25.85    4.76
  -6  -3  -7   35.44    2.69
  -7  -3  -7    1.68    1.05
  -7  -3  -7    2.18    1.22
  -8  -3  -7    0.14    0.95
  -8  -3  -7    0.04    1.09
  -6   4   7   85.59    9.81
   5  -4  -7   42.33    5.42
  -5   4   7   42.39    6.79
   4  -4  -7 1076.27   36.29
   4  -4  -7 1124.91   31.61
   4  -4  -7 1118.33   31.67
   4  -4  -7 1137.54   34.87
   4  -4  -7 1089.16   33.98
  -4   4   7 1140.15   36.90
   3  -4  -7  457.80   18.09
   3  -4  -7  497.63   17.44
   3  -4  -7  476.68   15.60
   3  -4  -7  470.84   17.76
   3  -4  -7  462.31   18.88
  -3   4   7  451.40   18.63
  -3   4   7  461.74   20.08
   2  -4  -7    6.21    2.02
   2  -4  -7    7.05    2.16
   2  -4  -7   11.83    2.82
   2  -4  -7   12.84    3.49
   2  -4  -7    6.76    1.74
  -2   4   7   12.56    3.25
  -2   4   7    8.36    2.62
  -2   4   7    6.08    1.54
   1  -4  -7    3.49    1.48
   1  -4  -7    4.58    1.47
   1  -4  -7    6.80    2.13
   1  -4  -7    1.87    1.33
   1  -4  -7    3.92    1.32
  -1   4   7    2.41    1.66
  -1   4   7    3.70    1.16
  -1   4   7    4.85    1.83
   0  -4  -7   90.38    6.51
   0  -4  -7  100.76    4.96
   0  -4  -7   98.47    5.78
   0  -4  -7   97.15    6.03
   0   4   7  113.53    6.30
  -1  -4  -7  689.68   19.41
  -1  -4  -7  682.34   22.67
  -1  -4  -7  700.37   21.54
   1   4   7  659.53   20.70
   1   4   7  674.56   20.69
  -2  -4  -7  621.35   19.39
  -2  -4  -7  634.12   20.46
  -2  -4  -7  598.20   19.50
  -2  -4  -7  616.06   17.12
   2   4   7  616.48   17.74
  -3  -4  -7 1407.13   39.11
  -3  -4  -7 1344.66   38.27
  -3  -4  -7 1412.24   39.11
  -3  -4  -7 1414.90   38.20
  -4  -4  -7  383.68   12.65
  -4  -4  -7  416.00   13.33
  -4  -4  -7  377.90   12.62
  -4  -4  -7  396.59   14.86
  -5  -4  -7 2546.27   64.52
  -5  -4  -7 2494.63   64.56
  -5  -4  -7 2499.30   69.19
  -5  -4  -7 2473.14   64.49
  -6  -4  -7   59.99    6.86
  -6  -4  -7   55.56    3.15
  -7  -4  -7   83.23    3.93
  -8  -4  -7   -1.70    0.84
  -6   5   7  135.07   10.58
  -6   5   7  123.74   10.25
   5  -5  -7  913.92   24.72
   5  -5  -7  932.37   30.08
   5  -5  -7  929.14   25.00
  -5   5   7  927.25   33.03
  -5   5   7  911.61   32.78
   4  -5  -7 1023.22   31.97
   4  -5  -7  943.07   30.94
   4  -5  -7  944.62   33.32
   4  -5  -7  998.07   28.72
   4  -5  -7  974.34   29.06
  -4   5   7 1004.41   33.51
   3  -5  -7  326.01   14.49
   3  -5  -7  332.28   12.18
   3  -5  -7  323.21   13.93
   3  -5  -7  314.56   13.37
  -3   5   7  337.08   15.03
   2  -5  -7 2935.37   77.45
   2  -5  -7 2840.70   79.08
   2  -5  -7 2812.05   76.79
   2  -5  -7 2818.49   74.79
   2  -5  -7 2921.27   76.64
  -2   5   7 2800.59   80.01
  -2   5   7 2835.90   77.97
   1  -5  -7   83.19    5.81
   1  -5  -7   78.68    6.39
   1  -5  -7   81.44    5.51
   1  -5  -7   77.62    4.65
  -1   5   7   72.32    6.06
  -1   5   7   83.46    5.92
  -1   5   7   81.98    5.81
   0  -5  -7  553.90   18.15
   0  -5  -7  557.94   16.75
   0  -5  -7  530.91   18.39
   0  -5  -7  551.67   19.95
   0   5   7  543.31   18.46
   0   5   7  541.96   18.30
   0   5   7  530.63   19.02
  -1  -5  -7   95.25    5.74
  -1  -5  -7  102.06    4.58
  -1  -5  -7   97.20    5.46
  -1  -5  -7  102.10    6.51
   1   5   7   92.63    5.25
  -2  -5  -7 1160.95   34.01
  -2  -5  -7 1161.38   32.51
  -2  -5  -7 1122.69   33.13
  -2  -5  -7 1190.94   33.00
   2   5   7 1139.21   31.00
  -3  -5  -7  100.47    5.17
  -3  -5  -7   93.06    5.48
  -3  -5  -7   90.53    5.06
  -4  -5  -7  155.43    6.53
  -4  -5  -7  164.59    8.94
  -4  -5  -7  158.89    6.66
  -4  -5  -7  165.53    7.05
  -5  -5  -7  284.55    9.15
  -5  -5  -7  263.62    9.17
  -5  -5  -7  252.97   12.63
  -5  -5  -7  284.47    9.18
  -6  -5  -7  210.17    7.00
  -6  -5  -7  220.83   12.16
  -6   6   7   29.04    5.91
   5  -6  -7   52.74    6.26
   5  -6  -7   47.63    3.39
   5  -6  -7   53.17    3.32
  -5   6   7   62.56    8.16
  -5   6   7   58.68    8.03
   4  -6  -7    1.30    1.74
   4  -6  -7    2.39    1.35
   4  -6  -7   -1.05    1.34
   4  -6  -7    4.73    2.14
  -4   6   7   -1.35    1.50
  -4   6   7    1.44    2.08
   3  -6  -7  209.76    9.10
   3  -6  -7  205.03   11.19
   3  -6  -7  206.62   10.35
   3  -6  -7  213.69   10.87
  -3   6   7  196.01   11.30
  -3   6   7  193.29   11.09
   2  -6  -7   49.82    5.79
   2  -6  -7   52.97    4.94
   2  -6  -7   43.51    5.22
   2  -6  -7   43.53    5.05
   2  -6  -7   40.91    5.64
  -2   6   7   67.39    5.92
  -2   6   7   36.54    5.68
  -2   6   7   53.58    6.20
   1  -6  -7  764.63   22.62
   1  -6  -7  727.96   23.91
   1  -6  -7  715.63   25.76
   1  -6  -7  780.12   24.83
  -1   6   7  754.84   25.87
  -1   6   7  774.91   24.92
   0  -6  -7   83.62    4.69
   0  -6  -7   87.25    5.88
   0  -6  -7   92.99    5.75
   0  -6  -7   85.67    6.60
   0   6   7  100.77    6.30
   0   6   7   94.60    5.93
  -1  -6  -7  511.23   16.96
  -1  -6  -7  501.13   17.30
  -1  -6  -7  497.71   18.45
  -1  -6  -7  520.23   15.47
   1   6   7  511.85   16.65
  -2  -6  -7  401.92   14.91
  -2  -6  -7  343.28   13.71
  -2  -6  -7  408.85   13.50
  -2  -6  -7  400.36   13.76
   2   6   7  388.59   12.23
  -3  -6  -7  319.16   10.89
  -3  -6  -7  301.03   11.84
  -3  -6  -7  291.39   11.24
  -3  -6  -7  310.91   11.09
  -4  -6  -7  215.08    7.79
  -4  -6  -7  171.60    7.48
  -4  -6  -7  188.03    7.94
  -4  -6  -7  187.99    8.05
  -4  -6  -7  181.47    7.21
   4   6   7  194.49    6.50
  -5  -6  -7  626.20   23.59
  -5  -6  -7  619.82   18.50
  -5  -6  -7  649.33   18.10
  -5  -6  -7  635.49   18.27
  -5  -6  -7  639.54   18.79
  -6  -6  -7    3.40    0.89
  -6   7   7    7.06    3.50
   5  -7  -7   22.43    2.91
   5  -7  -7   24.25    4.92
   5  -7  -7   22.12    2.64
  -5   7   7   21.88    5.03
   4  -7  -7   88.79    6.99
   4  -7  -7   96.99    6.03
   4  -7  -7   90.37    7.36
  -4   7   7   85.99    9.31
   3  -7  -7  245.92   13.09
   3  -7  -7  262.99   12.86
   3  -7  -7  283.36   12.60
   3  -7  -7  268.42   11.07
  -3   7   7  280.45   13.81
   2  -7  -7  860.18   25.76
   2  -7  -7  832.56   27.27
   2  -7  -7  878.73   28.03
   2  -7  -7  815.05   29.10
  -2   7   7  820.60   28.31
   1  -7  -7  212.14    9.92
   1  -7  -7  214.32   10.40
   1  -7  -7  212.51   11.32
   1  -7  -7  214.74    8.87
  -1   7   7  198.60   10.80
  -1   7   7  203.34   10.34
   0  -7  -7   75.98    4.52
   0  -7  -7   70.92    5.37
   0  -7  -7   73.03    5.25
   0  -7  -7   80.71    6.43
   0   7   7   70.35    5.31
  -1  -7  -7    1.59    1.33
  -1  -7  -7    1.76    1.42
  -1  -7  -7    1.55    1.29
   1   7   7    2.16    1.32
  -2  -7  -7   23.21    3.70
  -2  -7  -7   20.45    3.01
  -2  -7  -7   21.90    3.59
  -2  -7  -7   21.94    3.13
   2   7   7   23.07    2.70
  -3  -7  -7   19.49    3.26
  -3  -7  -7   17.37    2.68
  -3  -7  -7   17.87    3.07
  -3  -7  -7   17.89    2.68
  -4  -7  -7   14.24    2.60
  -4  -7  -7   12.88    2.18
  -4  -7  -7    9.83    1.89
  -4  -7  -7   12.31    2.41
   4   7   7   16.91    2.14
  -5  -7  -7   18.65    2.28
  -5  -7  -7   20.17    2.76
  -5  -7  -7   20.22    2.61
  -5  -7  -7   18.05    2.39
  -6  -7  -7  991.27   27.59
  -6  -7  -7 1000.40   27.09
  -6  -7  -7 1019.54   27.75
  -6  -7  -7  979.62   26.86
  -7  -7  -7   70.38    3.14
   5  -8  -7   22.26    2.93
  -5   8   7   21.73    5.07
   4  -8  -7    0.62    1.67
   4  -8  -7   -0.14    1.22
   4  -8  -7    1.86    1.94
  -4   8   7    1.68    2.22
   3  -8  -7  224.12   11.45
   3  -8  -7  224.27   10.05
   3  -8  -7  204.83   11.56
  -3   8   7  213.80   12.18
   2  -8  -7  304.94   13.47
   2  -8  -7  289.69   13.72
   2  -8  -7  303.33   11.99
  -2   8   7  313.83   14.43
   1  -8  -7  137.89    7.01
   1  -8  -7  150.71    8.71
   1  -8  -7  124.67    8.90
   1  -8  -7  132.96    7.92
  -1   8   7  146.89    8.68
   0  -8  -7   65.57    4.38
   0  -8  -7   72.75    5.65
   0  -8  -7   59.21    5.01
   0  -8  -7   59.50    5.69
   0   8   7   65.36    5.31
  -1  -8  -7  221.14   11.27
  -1  -8  -7  231.88   10.64
  -1  -8  -7  246.97   10.47
   1   8   7  231.64   10.12
  -2  -8  -7   58.83    5.40
  -2  -8  -7   63.84    4.67
  -2  -8  -7   62.81    5.33
  -2  -8  -7   64.72    4.87
  -3  -8  -7    8.52    2.47
  -3  -8  -7   11.44    2.24
  -3  -8  -7   14.95    2.76
  -3  -8  -7   11.34    2.79
  -4  -8  -7  119.61    6.91
  -4  -8  -7  128.91    7.18
  -4  -8  -7  132.06    6.60
  -4  -8  -7  123.59    6.23
   4   8   7  128.63    6.06
  -5  -8  -7  920.35   26.68
  -5  -8  -7  881.53   26.66
  -5  -8  -7  859.48   25.71
  -5  -8  -7  884.33   25.31
  -6  -8  -7  200.67    8.46
  -6  -8  -7  194.19    7.80
  -6  -8  -7  203.70    8.40
  -6  -8  -7  201.39    7.62
  -7  -8  -7  405.55   13.19
  -7  -8  -7  408.06   12.61
  -7  -8  -7  394.00   13.23
   5  -9  -7   44.18    3.93
  -5   9   7   59.36    8.46
   4  -9  -7   76.10    8.39
   4  -9  -7   91.10    9.10
   4  -9  -7   76.38    9.15
  -4   9   7   80.72    9.26
   3  -9  -7    0.85    1.72
   3  -9  -7    1.31    1.87
   3  -9  -7    0.86    1.35
  -3   9   7    2.61    2.32
   2  -9  -7    4.66    2.38
   2  -9  -7    3.57    1.73
   2  -9  -7    7.36    2.61
  -2   9   7    6.12    2.65
   1  -9  -7   40.42    4.38
   1  -9  -7   50.41    7.07
   1  -9  -7   49.34    5.98
   1  -9  -7   39.00    5.36
  -1   9   7   47.48    6.10
   0  -9  -7    2.59    1.75
   0  -9  -7    2.83    1.33
   0  -9  -7    4.16    2.06
   0  -9  -7    4.57    2.14
   0   9   7    2.94    1.84
  -1  -9  -7   -0.26    1.51
  -1  -9  -7    1.60    1.67
  -1  -9  -7   -0.15    1.07
  -1  -9  -7    1.15    1.43
  -2  -9  -7  442.45   16.64
  -2  -9  -7  454.10   17.84
  -2  -9  -7  455.31   18.51
  -2  -9  -7  437.86   16.09
  -3  -9  -7  108.85    7.65
  -3  -9  -7  125.80    6.79
  -3  -9  -7  116.68    7.50
  -3  -9  -7  120.33    7.07
   3   9   7  120.51    6.36
  -4  -9  -7   61.42    5.33
  -4  -9  -7   64.83    5.26
  -4  -9  -7   77.16    5.29
  -4  -9  -7   57.25    4.49
   4   9   7   63.10    4.52
  -5  -9  -7  123.32    7.42
  -5  -9  -7  138.26    6.68
  -5  -9  -7  136.11    7.00
  -5  -9  -7  140.97    7.64
  -6  -9  -7  191.93    8.35
  -6  -9  -7  183.57    7.85
  -6  -9  -7  182.76    8.72
  -6  -9  -7  182.72    8.83
  -7  -9  -7    8.05    3.06
  -7  -9  -7   12.93    2.29
  -7  -9  -7    9.07    2.26
  -7  -9  -7   12.86    2.55
   4 -10  -7  248.88   13.54
   4 -10  -7  259.78   14.57
  -4  10   7  266.91   15.45
   3 -10  -7  208.17   11.73
   3 -10  -7  190.48    9.87
   3 -10  -7  182.71   11.64
  -3  10   7  201.47   12.64
   2 -10  -7   38.75    6.02
   2 -10  -7   35.50    4.63
   2 -10  -7   38.42    5.89
  -2  10   7   37.03    5.99
   1 -10  -7  405.04   17.14
   1 -10  -7  415.03   15.54
   1 -10  -7  456.13   18.35
  -1  10   7  410.90   17.98
   0 -10  -7    2.79    2.22
   0 -10  -7    4.23    2.16
   0 -10  -7    0.45    1.52
  -1 -10  -7   10.85    3.35
  -1 -10  -7   11.95    3.02
  -1 -10  -7   11.08    2.70
  -2 -10  -7    3.20    1.88
  -2 -10  -7    6.76    2.66
  -2 -10  -7    1.62    1.74
  -2 -10  -7    4.32    1.99
  -3 -10  -7  291.66   12.61
  -3 -10  -7  273.56   11.99
  -3 -10  -7  288.25   13.58
  -3 -10  -7  267.28   13.66
   3  10   7  308.61   11.93
  -4 -10  -7   71.59    6.16
  -4 -10  -7   71.41    6.00
  -4 -10  -7   66.63    5.19
  -4 -10  -7   78.44    5.67
   4  10   7   67.11    5.10
  -5 -10  -7  218.04   11.24
  -5 -10  -7  232.92    9.98
  -5 -10  -7  225.14   11.19
  -5 -10  -7  245.94   10.60
  -6 -10  -7  137.65    6.99
  -6 -10  -7  122.32    7.14
  -6 -10  -7  118.45    7.62
  -6 -10  -7  121.64    7.72
   3 -11  -7  127.03    9.46
   3 -11  -7  135.04   10.24
  -3  11   7  135.72   10.74
   2 -11  -7  293.53   15.37
   2 -11  -7  291.05   14.61
  -2  11   7  287.58   15.79
   1 -11  -7   23.40    4.74
   1 -11  -7   23.85    4.59
   0 -11  -7  143.68    9.23
   0 -11  -7  152.26    9.87
  -1 -11  -7   24.98    5.06
  -1 -11  -7   25.16    4.64
  -1 -11  -7   29.01    4.76
  -2 -11  -7   -0.64    1.34
  -2 -11  -7    0.15    1.32
  -2 -11  -7   -0.05    1.41
  -3 -11  -7  207.27   12.02
  -3 -11  -7  204.76   10.55
  -3 -11  -7  231.66   11.63
   3  11   7  212.79   10.32
  -4 -11  -7  145.63    8.58
  -4 -11  -7  124.84   11.67
  -4 -11  -7  135.82    7.96
  -4 -11  -7  127.39    9.10
   4  11   7  135.42    7.95
  -5 -11  -7   10.59    2.83
  -5 -11  -7    9.55    2.99
  -5 -11  -7   10.16    2.48
  -5 -11  -7    8.14    2.72
   2 -12  -7   34.17    6.00
   2 -12  -7   33.95    5.88
   1 -12  -7  414.02   19.01
   1 -12  -7  392.94   17.93
   0 -12  -7  184.86   11.28
   0 -12  -7  221.14   12.67
  -1 -12  -7  230.71   12.99
  -1 -12  -7  250.43   12.77
  -2 -12  -7  375.57   18.97
  -2 -12  -7  422.48   18.04
  -2 -12  -7  419.14   17.33
   2  12   7  416.04   16.66
  -3 -12  -7    2.01    2.17
  -3 -12  -7   -1.93    1.52
  -3 -12  -7    1.20    2.20
   3  12   7    1.04    1.82
  -4 -12  -7   33.30    4.73
  -4 -12  -7   31.86    5.16
  -4 -12  -7   31.60    5.58
   4  12   7   27.80    4.44
   0 -13  -7  610.63   24.30
   0 -13  -7  589.52   24.77
  -1 -13  -7   89.45    9.19
  -1 -13  -7   97.39   10.03
  -2 -13  -7  186.81   11.99
  -2 -13  -7  193.90   11.55
   2  13   7  216.82   11.58
   2   7  -8  201.93   13.41
  -2  -7   8  194.80   13.69
  -2  -7   8  194.94   14.15
   1   7  -8   10.64    3.87
  -1  -7   8    7.89    3.76
  -1  -7   8   10.82    4.55
   0   7  -8  134.01   10.21
   0   7  -8  134.57   11.24
   0  -7   8  138.04   11.39
   0  -7   8  131.06   10.74
  -1   7  -8  126.81    9.41
  -1   7  -8   94.37   11.32
   1  -7   8   96.17   10.48
   1  -7   8   93.09   10.83
  -2   7  -8  113.77   12.24
  -2   7  -8  124.89    9.41
   2  -7   8  137.03   18.47
  -3   7  -8   -1.61    2.45
  -3   7  -8    2.12    2.02
   3   6  -8   17.38    4.62
  -3  -6   8   24.16    6.23
  -3  -6   8   16.28    4.55
   2   6  -8   64.96    8.27
  -2  -6   8   68.04    9.33
  -2  -6   8   71.17    9.51
   1   6  -8   45.21    6.60
   1   6  -8   38.19    6.86
  -1  -6   8   34.46    6.50
  -1  -6   8   34.68    6.35
   0   6  -8   -0.94    1.78
   0   6  -8   -0.56    1.90
   0  -6   8   -1.16    1.57
   0  -6   8   -2.03    1.49
  -1   6  -8   28.09    5.14
  -1   6  -8   29.61    6.53
   1  -6   8   21.61    5.05
   1  -6   8   20.47    4.96
  -2   6  -8  349.92   18.48
  -2   6  -8  334.61   15.70
   2  -6   8  344.83   17.05
  -3   6  -8    6.97    2.71
  -3   6  -8    7.88    4.12
  -4   6  -8  188.39   11.04
  -4   6  -8  236.52   14.74
  -4  -5   8   16.84    4.99
  -3  -5   8   86.88   10.26
   2   5  -8  108.82   10.17
   2   5  -8  120.11   12.50
  -2  -5   8   89.77   10.06
  -2  -5   8   82.39    9.77
   1   5  -8    2.29    2.48
   1   5  -8    0.67    2.34
  -1  -5   8    3.46    2.39
  -1  -5   8    5.27    2.67
   0   5  -8   94.47    6.17
   0   5  -8   76.95    9.04
   0   5  -8  100.98    9.60
   0  -5   8   88.15    9.29
   0  -5   8   85.10    9.52
  -1   5  -8    0.83    2.16
  -1   5  -8   -1.47    1.48
   1  -5   8   -0.29    1.71
   1  -5   8    1.51    2.02
  -2   5  -8   20.21    3.99
  -2   5  -8   26.57    5.77
   2  -5   8   21.07    4.72
   2  -5   8   17.74    4.46
  -3   5  -8    3.14    1.89
  -3   5  -8    3.58    2.97
  -4   5  -8   10.16    2.92
  -4   5  -8   13.70    4.20
  -5   5  -8   17.99    4.82
  -4  -4   8   18.08    4.96
  -3  -4   8   78.11    9.28
   2   4  -8   24.64    4.79
   2   4  -8   22.63    4.78
  -2  -4   8   14.82    4.04
  -2  -4   8   21.11    4.87
   1   4  -8   46.41    6.80
   1   4  -8   43.08    5.94
   1   4  -8   34.99    4.13
  -1  -4   8   28.55    5.23
  -1  -4   8   36.80    6.19
   0   4  -8  956.62   31.13
   0   4  -8  967.76   33.23
   0   4  -8  915.48   28.72
   0  -4   8  911.12   32.52
   0  -4   8  928.72   32.10
  -1   4  -8 1396.84   41.99
  -1   4  -8 1402.89   44.99
   1  -4   8 1400.72   44.18
   1  -4   8 1379.66   43.49
  -2   4  -8    7.64    3.19
  -2   4  -8   11.75    3.10
   2  -4   8    9.74    3.15
   2  -4   8   11.18    3.13
  -3   4  -8  602.14   24.08
  -3   4  -8  585.69   20.78
  -4   4  -8    0.25    1.83
  -4   4  -8    0.17    1.56
  -4   4  -8    3.50    1.91
  -5   4  -8    8.57    3.78
  -5   4  -8    4.18    2.59
  -6   4  -8  131.07   10.43
  -6   4  -8  151.03   20.71
  -5  -3   8   32.34    6.55
  -4  -3   8  281.42   15.89
   3   3  -8   21.91    5.01
  -3  -3   8   20.70    4.78
  -3  -3   8   23.22    4.18
   2   3  -8   16.41    4.03
   2   3  -8   18.27    2.79
  -2  -3   8   15.12    4.05
  -2  -3   8   23.80    3.85
   1   3  -8  210.79   11.21
   1   3  -8  209.33   12.06
   1   3  -8  199.21    9.18
  -1  -3   8  219.47    9.52
  -1  -3   8  194.30   11.78
   0   3  -8   64.23    4.92
   0   3  -8   70.41    8.04
   0   3  -8   70.63    7.20
   0  -3   8   65.18    4.26
   0  -3   8   55.50    6.59
   0  -3   8   71.12    7.72
  -1   3  -8   29.10    5.27
  -1   3  -8   36.02    5.58
  -1   3  -8   35.29    4.68
  -1   3  -8   33.29    4.41
   1  -3   8   35.06    5.24
   1  -3   8   39.08    5.84
  -2   3  -8  566.65   24.04
  -2   3  -8  573.62   22.61
  -2   3  -8  584.74   20.07
   2  -3   8  575.48   16.98
   2  -3   8  578.96   21.82
   2  -3   8  572.71   21.33
  -3   3  -8   10.04    3.68
  -3   3  -8   13.91    2.90
  -3   3  -8   11.31    3.35
   3  -3   8   13.21    3.16
  -4   3  -8    0.92    1.16
  -4   3  -8    0.62    1.62
  -4   3  -8    0.78    1.67
  -5   3  -8    4.41    2.83
  -5   3  -8    6.79    3.14
  -6   3  -8   17.15    4.47
  -6   3  -8   30.19    5.46
  -5  -2   8    3.10    2.94
  -4  -2   8   93.61   10.29
  -4  -2   8  102.06    8.06
   3   2  -8  748.10   27.41
  -3  -2   8  840.32   29.53
  -3  -2   8  746.90   25.94
   2   2  -8   10.57    3.33
   2   2  -8   12.16    2.32
  -2  -2   8   11.00    3.53
  -2  -2   8   15.03    2.91
   1   2  -8    1.84    1.87
   1   2  -8   -0.51    0.67
  -1  -2   8    0.90    1.05
  -1  -2   8    1.68    1.81
   0   2  -8  266.53   11.16
   0   2  -8  266.11   12.12
   0   2  -8  269.75   14.71
   0   2  -8  272.17   13.53
   0  -2   8  284.59   13.51
   0  -2   8  273.68    9.41
  -1   2  -8  484.68   20.77
  -1   2  -8  442.25   16.80
  -1   2  -8  467.13   16.62
  -1   2  -8  467.11   18.98
   1  -2   8  461.56   13.29
   1  -2   8  492.80   18.78
  -2   2  -8  184.63   10.51
  -2   2  -8  180.04    8.68
  -2   2  -8  163.55    8.47
  -2   2  -8  175.87   11.37
   2  -2   8  182.86    5.97
   2  -2   8  181.91    9.83
   2  -2   8  174.41    6.79
  -3   2  -8  113.00    8.89
  -3   2  -8  114.90    6.43
  -3   2  -8  130.76    8.61
   3  -2   8  115.08    5.19
  -4   2  -8    0.84    1.35
  -4   2  -8    0.81    1.63
  -4   2  -8   -0.47    0.82
  -5   2  -8    7.83    3.01
  -5   2  -8    4.39    2.40
  -6   2  -8  213.97   12.22
  -6   2  -8  212.61   12.91
  -7   2  -8   33.21    5.87
  -7   2  -8   38.40    5.92
  -6  -1   8   52.55    8.61
  -5  -1   8   67.47    8.86
   4   1  -8   48.33    5.91
  -4  -1   8   54.47    7.47
  -4  -1   8   55.97    6.68
   3   1  -8  213.32    8.44
   3   1  -8  216.98   11.65
  -3  -1   8  202.94   10.35
  -3  -1   8  224.03   12.78
   2   1  -8   66.98    7.19
   2   1  -8   65.10    4.50
  -2  -1   8   60.92    4.67
  -2  -1   8   64.45    7.78
   1   1  -8  221.20    9.47
   1   1  -8  210.53   11.29
   1   1  -8  221.68   12.57
  -1  -1   8  198.18   11.19
  -1  -1   8  201.84    8.17
  -1  -1   8  211.51   12.26
   0   1  -8  821.31   30.14
   0   1  -8  885.67   29.01
   0   1  -8  836.45   26.26
   0  -1   8  905.15   28.95
   0  -1   8  834.16   22.81
  -1   1  -8    4.68    1.79
  -1   1  -8    3.31    1.77
  -1   1  -8    3.46    1.90
  -1   1  -8    4.78    1.86
   1  -1   8    8.28    1.65
   1  -1   8    6.88    2.42
  -2   1  -8    5.77    2.31
  -2   1  -8    8.38    2.84
  -2   1  -8    8.84    2.12
  -2   1  -8    7.04    1.83
   2  -1   8    8.81    1.33
   2  -1   8    7.30    2.29
  -3   1  -8  255.44   10.04
  -3   1  -8  272.40   12.65
  -3   1  -8  269.27   13.50
  -3   1  -8  250.53   10.61
   3  -1   8  255.59    8.23
   3  -1   8  260.47   11.31
  -4   1  -8    1.11    1.51
  -4   1  -8    0.14    1.29
  -4   1  -8    2.36    1.17
   4  -1   8    2.92    1.19
  -5   1  -8   12.18    3.51
  -5   1  -8   19.95    3.79
  -6   1  -8  210.88   11.22
  -6   1  -8  204.96   11.89
  -7   1  -8  210.08   12.36
  -7   1  -8  201.06   11.51
  -6   0   8   17.99    5.03
  -5   0   8   -0.09    1.99
   4   0  -8    2.93    2.30
   4   0  -8    3.80    1.90
  -4   0   8    5.05    2.33
  -4   0   8    4.07    2.82
   3   0  -8   34.18    5.18
   3   0  -8   41.32    5.42
   3   0  -8   44.41    3.44
  -3   0   8   36.21    4.74
  -3   0   8   37.31    5.94
   2   0  -8  252.34   14.93
   2   0  -8  284.14   10.99
   2   0  -8  268.84   12.99
  -2   0   8  280.01   13.73
  -2   0   8  274.65   10.86
   1   0  -8   20.07    3.15
   1   0  -8   14.23    3.24
   1   0  -8   15.30    3.99
  -1   0   8   15.44    3.59
  -1   0   8   20.47    4.47
  -1   0   8   12.12    1.86
   0   0  -8   25.21    4.14
   0   0  -8   29.63    4.53
   0   0  -8   30.16    3.95
   0   0   8   29.29    3.16
   0   0   8   32.62    4.80
  -1   0  -8  909.02   31.55
  -1   0  -8  957.13   30.29
  -1   0  -8  963.35   27.40
  -1   0  -8  955.81   28.37
   1   0   8  920.80   26.03
   1   0   8  962.96   29.95
  -2   0  -8   88.65    5.55
  -2   0  -8  104.25    6.94
  -2   0  -8  107.82    5.42
  -2   0  -8  102.71    7.60
   2   0   8   97.37    3.35
   2   0   8   97.09    6.31
  -3   0  -8  928.65   30.08
  -3   0  -8  980.63   31.70
  -3   0  -8  971.19   27.34
   3   0   8  937.78   28.34
  -4   0  -8   49.58    3.49
  -4   0  -8   51.00    5.67
  -4   0  -8   41.31    5.44
  -5   0  -8  496.91   18.38
  -5   0  -8  503.74   19.50
  -6   0  -8    5.57    1.97
  -6   0  -8    1.25    1.65
  -7   0  -8  270.51   13.64
  -7   0  -8  290.44   13.19
  -6   1   8  295.04   16.74
  -5   1   8  275.83   15.28
   4  -1  -8 1182.16   37.07
   4  -1  -8 1282.77   38.25
   4  -1  -8 1165.51   32.53
   4  -1  -8 1210.99   38.82
  -4   1   8 1240.44   40.15
  -4   1   8 1202.48   37.54
   3  -1  -8  154.87    9.03
   3  -1  -8  156.00    9.44
   3  -1  -8  167.13    7.54
   3  -1  -8  167.75    9.16
  -3   1   8  159.79    8.48
  -3   1   8  167.46   10.49
   2  -1  -8   -1.20    1.21
   2  -1  -8    0.60    1.02
   2  -1  -8    0.74    1.30
   2  -1  -8   -0.38    0.69
  -2   1   8    0.88    1.59
  -2   1   8    1.20    1.65
   1  -1  -8   19.84    3.83
   1  -1  -8   21.34    2.73
   1  -1  -8   23.46    3.14
   1  -1  -8   21.58    3.82
  -1   1   8   21.25    4.37
  -1   1   8   20.94    3.82
   0  -1  -8   19.25    3.47
   0  -1  -8   15.16    2.75
   0  -1  -8   15.74    2.33
   0  -1  -8   16.43    3.74
   0   1   8   18.23    2.30
   0   1   8   18.07    3.43
  -1  -1  -8   18.50    3.44
  -1  -1  -8   23.29    3.79
  -1  -1  -8   21.30    2.64
   1   1   8   20.14    1.98
   1   1   8   26.80    3.83
  -2  -1  -8  141.26    6.34
  -2  -1  -8  142.76    8.77
  -2  -1  -8  152.19    8.19
   2   1   8  144.00    7.38
  -3  -1  -8   19.55    3.81
  -3  -1  -8   15.00    2.98
  -3  -1  -8   16.51    3.10
  -3  -1  -8   16.89    2.25
  -4  -1  -8    2.37    1.91
  -4  -1  -8   -0.95    0.87
  -4  -1  -8    0.74    0.72
  -5  -1  -8   57.27    3.40
  -5  -1  -8   61.05    5.23
  -5  -1  -8   52.89    5.41
  -6  -1  -8  357.24   11.68
  -6  -1  -8  392.04   14.62
  -6  -1  -8  369.20   15.16
  -7  -1  -8   -0.01    1.30
  -7  -1  -8   -6.20    1.46
  -8  -1  -8   30.41    4.82
  -8  -1  -8   23.68    4.28
  -8  -1  -8   28.84    4.25
  -6   2   8   23.10    5.26
  -5   2   8  241.68   14.13
   4  -2  -8   10.85    2.88
   4  -2  -8   14.91    3.47
   4  -2  -8   10.32    1.87
   4  -2  -8   14.70    3.69
  -4   2   8    9.13    3.23
   3  -2  -8  284.55   13.33
   3  -2  -8  318.29   13.41
   3  -2  -8  293.92   11.45
   3  -2  -8  291.41   13.16
  -3   2   8  290.44   14.27
   2  -2  -8    4.23    1.84
   2  -2  -8    8.19    2.04
   2  -2  -8   10.14    2.78
   2  -2  -8    5.34    1.80
   2  -2  -8    3.81    1.52
   2  -2  -8    7.34    2.75
  -2   2   8    7.19    2.97
  -2   2   8    3.55    1.95
   1  -2  -8   99.70    5.31
   1  -2  -8  113.75    8.04
   1  -2  -8  110.48    5.77
   1  -2  -8  111.67    7.25
  -1   2   8  105.10    7.95
  -1   2   8  109.60    7.30
  -1   2   8  115.80    5.56
   0  -2  -8    1.76    1.62
   0  -2  -8    1.44    1.56
   0  -2  -8    2.77    1.21
   0  -2  -8    2.38    0.75
   0   2   8    3.32    1.09
   0   2   8    3.99    1.74
  -1  -2  -8  318.42   12.96
  -1  -2  -8  324.24   14.07
  -1  -2  -8  294.30   10.71
   1   2   8  299.21   12.15
  -2  -2  -8    1.58    1.34
  -2  -2  -8    6.13    2.26
  -2  -2  -8    3.57    1.16
   2   2   8    5.71    1.59
  -3  -2  -8  189.03    7.10
  -3  -2  -8  213.42   10.18
  -3  -2  -8  199.80    6.48
  -3  -2  -8  184.81    8.84
  -3  -2  -8  179.73    8.80
  -3  -2  -8  188.12    8.75
   3   2   8  196.30    7.25
  -4  -2  -8  345.36   11.64
  -4  -2  -8  328.22   12.75
  -4  -2  -8  332.55   10.42
  -4  -2  -8  347.48   13.74
  -4  -2  -8  330.47   13.60
  -5  -2  -8    1.59    0.69
  -5  -2  -8    3.50    1.53
  -5  -2  -8    0.37    1.10
  -5  -2  -8   -1.63    0.96
  -6  -2  -8  260.71   11.08
  -6  -2  -8  261.60   10.66
  -6  -2  -8  239.20   11.37
  -6  -2  -8  248.78    7.79
  -7  -2  -8   59.24    4.98
  -7  -2  -8   63.07    4.76
  -8  -2  -8    2.39    2.00
  -8  -2  -8    6.44    2.27
  -8  -2  -8    7.63    2.53
  -6   3   8    2.51    2.81
  -5   3   8   11.29    3.67
   4  -3  -8   60.49    6.67
   4  -3  -8   69.66    6.86
   4  -3  -8   63.13    4.20
   4  -3  -8   58.31    7.02
  -4   3   8   61.67    7.42
   3  -3  -8    1.03    1.65
   3  -3  -8   -0.21    0.99
   3  -3  -8   -0.02    1.30
   3  -3  -8    1.80    1.47
   3  -3  -8    2.93    1.39
  -3   3   8    2.73    1.99
   2  -3  -8    8.14    3.20
   2  -3  -8    3.24    1.79
   2  -3  -8    4.09    1.60
   2  -3  -8    5.74    2.31
   2  -3  -8    4.21    1.52
  -2   3   8    4.50    2.10
  -2   3   8    5.49    2.50
   1  -3  -8  155.74    8.33
   1  -3  -8  163.40    9.75
   1  -3  -8  143.10    6.83
   1  -3  -8  151.40    8.61
   1  -3  -8  146.48    6.99
  -1   3   8  157.02    6.64
  -1   3   8  149.31    8.68
   0  -3  -8    1.32    0.76
   0  -3  -8    1.59    1.43
   0  -3  -8    0.95    1.15
   0  -3  -8    0.58    0.81
   0   3   8    0.07    0.63
   0   3   8   -0.47    1.00
  -1  -3  -8 1196.75   36.07
  -1  -3  -8 1158.85   34.36
  -1  -3  -8 1143.32   31.85
   1   3   8 1118.51   33.37
  -2  -3  -8  837.10   22.42
  -2  -3  -8  820.87   26.87
  -2  -3  -8  861.49   23.35
  -2  -3  -8  804.43   25.62
   2   3   8  810.50   24.17
  -3  -3  -8    2.50    1.28
  -3  -3  -8    0.33    0.59
  -3  -3  -8    0.55    0.84
  -3  -3  -8    1.32    1.22
  -3  -3  -8    0.76    1.12
  -4  -3  -8   20.32    1.46
  -4  -3  -8   20.97    3.23
  -4  -3  -8   22.55    3.03
  -4  -3  -8   21.28    3.04
  -4  -3  -8   19.30    3.43
  -5  -3  -8   82.38    5.05
  -5  -3  -8   87.28    5.45
  -5  -3  -8   90.32    6.01
  -6  -3  -8   79.80    4.98
  -6  -3  -8   86.89    6.57
  -6  -3  -8   99.55    5.70
  -7  -3  -8  103.53    5.54
  -7  -3  -8   92.27    5.72
  -8  -3  -8   29.47    3.54
  -8  -3  -8   25.50    3.67
  -6   4   8    2.60    2.70
  -5   4   8  192.42   12.59
   4  -4  -8   99.25    7.33
   4  -4  -8   91.21    7.77
   4  -4  -8   98.26    5.67
   4  -4  -8   87.41    6.72
   4  -4  -8   95.53    5.56
  -4   4   8   99.11    8.36
   3  -4  -8    4.15    1.69
   3  -4  -8    4.71    2.07
   3  -4  -8    6.49    1.78
   3  -4  -8    6.06    2.43
   3  -4  -8   10.49    2.78
  -3   4   8    6.69    2.64
   2  -4  -8  171.85    9.49
   2  -4  -8  175.21    7.99
   2  -4  -8  173.37    8.82
   2  -4  -8  189.94   10.93
   2  -4  -8  161.38    8.91
  -2   4   8  165.68    9.81
  -2   4   8  159.00   10.62
   1  -4  -8  382.44   15.02
   1  -4  -8  359.34   13.13
   1  -4  -8  359.75   14.28
   1  -4  -8  356.20   12.83
  -1   4   8  354.72   14.85
  -1   4   8  376.60   12.21
   0  -4  -8   31.48    3.43
   0  -4  -8   34.05    4.78
   0  -4  -8   32.90    4.39
   0  -4  -8   37.62    4.59
   0   4   8   27.04    3.85
  -1  -4  -8  511.50   15.85
  -1  -4  -8  505.89   19.12
  -1  -4  -8  526.09   18.08
   1   4   8  512.79   17.26
  -2  -4  -8  400.42   12.72
  -2  -4  -8  436.95   15.21
  -2  -4  -8  419.78   16.11
  -3  -4  -8  266.52   11.04
  -3  -4  -8  304.86   11.27
  -3  -4  -8  287.98    8.78
  -3  -4  -8  273.83   10.54
  -3  -4  -8  289.63   11.95
  -4  -4  -8  226.09    9.80
  -4  -4  -8  268.59   10.76
  -4  -4  -8  238.33    9.56
  -4  -4  -8  240.40   10.20
  -5  -4  -8  458.30   15.40
  -5  -4  -8  438.35   17.00
  -5  -4  -8  460.56   14.88
  -6  -4  -8  172.14   10.42
  -6  -4  -8  188.08    7.66
  -6  -4  -8  192.09    7.92
  -7  -4  -8   75.67    4.24
  -7  -4  -8   66.25    4.28
  -8  -4  -8   21.89    2.85
  -8  -4  -8   27.46    3.17
  -6   5   8  124.46   10.51
  -6   5   8  123.49   10.48
   5  -5  -8    8.53    1.58
  -5   5   8   16.79    4.59
   4  -5  -8   59.13    4.45
   4  -5  -8   54.84    6.07
   4  -5  -8   59.33    4.60
   4  -5  -8   66.41    7.10
   4  -5  -8   57.89    7.55
  -4   5   8   43.72    6.51
   3  -5  -8  372.92   16.16
   3  -5  -8  389.38   15.59
   3  -5  -8  353.96   15.68
   3  -5  -8  380.32   13.94
  -3   5   8  409.38   17.40
   2  -5  -8 2156.41   61.26
   2  -5  -8 2160.04   58.64
   2  -5  -8 2253.88   60.79
   2  -5  -8 2166.35   63.25
   2  -5  -8 2219.85   60.70
  -2   5   8 2058.34   66.35
  -2   5   8 2202.54   62.16
   1  -5  -8  636.43   22.08
   1  -5  -8  618.64   19.92
   1  -5  -8  649.56   21.66
   1  -5  -8  641.11   20.70
   1  -5  -8  616.57   23.42
  -1   5   8  677.73   22.62
   0  -5  -8  989.61   28.89
   0  -5  -8 1013.05   31.17
   0  -5  -8 1028.91   30.78
   0  -5  -8  952.69   32.45
   0   5   8 1028.54   30.87
   0   5   8 1058.25   31.96
   0   5   8 1030.27   31.01
  -1  -5  -8  324.78   12.55
  -1  -5  -8  329.59   14.14
  -1  -5  -8  326.17   11.05
  -1  -5  -8  331.60   13.07
   1   5   8  319.87   12.09
  -2  -5  -8 1505.57   42.38
  -2  -5  -8 1473.82   39.60
  -2  -5  -8 1553.58   43.94
   2   5   8 1479.72   40.22
  -3  -5  -8    0.30    1.01
  -3  -5  -8    0.62    1.06
  -3  -5  -8    1.34    1.17
  -4  -5  -8  117.67    6.49
  -4  -5  -8  124.85    6.18
  -4  -5  -8  118.57    7.17
  -5  -5  -8    5.05    1.58
  -5  -5  -8   10.71    2.09
  -6  -5  -8    2.83    1.36
  -6  -5  -8    5.48    2.93
  -6  -5  -8    5.24    1.42
  -7  -5  -8   86.72    4.07
  -6   6   8    6.76    3.54
  -6   6   8   10.49    4.09
   5  -6  -8  361.98   12.72
  -5   6   8  365.32   18.40
  -5   6   8  405.99   19.26
   4  -6  -8  462.17   18.27
   4  -6  -8  458.64   16.03
   4  -6  -8  462.62   18.80
  -4   6   8  434.85   19.89
  -4   6   8  441.33   19.84
   3  -6  -8    5.36    1.90
   3  -6  -8    2.32    1.74
   3  -6  -8    1.47    1.84
   3  -6  -8    3.69    2.15
  -3   6   8    3.60    2.25
  -3   6   8    6.19    2.60
   2  -6  -8   43.56    5.17
   2  -6  -8   34.03    5.24
   2  -6  -8   42.04    5.28
   2  -6  -8   46.69    5.68
   2  -6  -8   40.36    4.23
  -2   6   8   37.69    5.34
  -2   6   8   39.14    5.42
   1  -6  -8    3.54    1.82
   1  -6  -8    4.52    1.60
   1  -6  -8    5.92    2.09
   1  -6  -8    4.84    2.33
  -1   6   8    4.62    2.05
  -1   6   8    9.15    2.40
  -1   6   8    5.98    2.21
   0  -6  -8   73.54    5.41
   0  -6  -8   80.46    4.72
   0  -6  -8   89.80    6.96
   0  -6  -8   80.59    5.91
   0   6   8   65.40    5.22
  -1  -6  -8 1435.30   42.23
  -1  -6  -8 1358.60   37.85
  -1  -6  -8 1417.99   40.43
  -1  -6  -8 1406.80   39.87
   1   6   8 1375.57   39.28
  -2  -6  -8  134.04    6.87
  -2  -6  -8  137.50    8.00
  -2  -6  -8  130.83    7.09
   2   6   8  125.92    5.79
  -3  -6  -8  113.97    6.86
  -3  -6  -8  123.82    6.12
  -3  -6  -8  106.32    6.06
  -4  -6  -8   96.70    5.37
  -4  -6  -8  100.43    6.98
  -4  -6  -8  103.57    6.06
   4   6   8  104.06    4.01
  -5  -6  -8   18.88    2.78
  -5  -6  -8   22.70    2.71
  -5  -6  -8   15.11    3.65
  -6  -6  -8   17.70    2.28
  -6  -6  -8   22.76    2.70
  -7  -6  -8  192.03    6.49
   5  -7  -8   23.90    3.17
  -5   7   8   14.90    4.26
   4  -7  -8  246.18   12.93
   4  -7  -8  226.48   12.09
   4  -7  -8  239.91   10.61
  -4   7   8  241.27   13.76
   3  -7  -8    2.00    1.80
   3  -7  -8    0.99    1.20
   3  -7  -8    4.45    2.20
   3  -7  -8    1.07    1.96
  -3   7   8    0.26    1.76
   2  -7  -8  179.77    9.50
   2  -7  -8  166.60    8.25
   2  -7  -8  171.99    9.86
   2  -7  -8  163.68    9.63
  -2   7   8  155.31    9.79
   1  -7  -8   55.81    7.33
   1  -7  -8   65.02    5.61
   1  -7  -8   69.76    6.76
   1  -7  -8   65.09    4.61
  -1   7   8   67.70    5.82
   0  -7  -8  103.09    6.92
   0  -7  -8  110.31    6.78
   0  -7  -8   98.29    7.61
   0  -7  -8  118.61    5.95
   0   7   8  111.43    6.88
  -1  -7  -8   42.68    3.90
  -1  -7  -8   46.05    5.12
  -1  -7  -8   45.79    4.84
  -1  -7  -8   39.56    5.10
   1   7   8   48.01    4.01
  -2  -7  -8  492.73   16.82
  -2  -7  -8  492.05   17.17
  -2  -7  -8  487.84   18.42
  -3  -7  -8    1.34    1.28
  -3  -7  -8    1.40    1.21
  -3  -7  -8    2.90    1.55
  -4  -7  -8   47.22    3.60
  -4  -7  -8   49.44    4.28
  -4  -7  -8   53.96    4.01
   4   7   8   49.29    2.97
  -5  -7  -8  651.75   19.00
  -5  -7  -8  626.92   19.25
  -5  -7  -8  628.63   24.33
  -5  -7  -8  632.71   20.26
  -6  -7  -8   30.13    2.93
  -6  -7  -8   28.75    3.25
  -6  -7  -8   29.61    2.78
  -7  -7  -8   68.61    3.26
   5  -8  -8  140.78    7.66
  -5   8   8  153.92   11.65
   4  -8  -8  769.55   28.84
   4  -8  -8  842.58   28.61
   4  -8  -8  769.36   25.92
  -4   8   8  847.40   30.80
   3  -8  -8  390.07   15.36
   3  -8  -8  430.18   18.21
   3  -8  -8  414.12   17.37
  -3   8   8  424.88   18.82
   2  -8  -8  206.27    9.67
   2  -8  -8  203.46   11.24
   2  -8  -8  202.96   10.74
  -2   8   8  208.02   11.60
   1  -8  -8  149.79    7.67
   1  -8  -8  154.58    9.24
   1  -8  -8  154.55    8.83
   1  -8  -8  149.75    9.89
  -1   8   8  151.31    9.13
   0  -8  -8   60.64    6.37
   0  -8  -8   61.19    5.18
   0  -8  -8   61.68    4.38
   0  -8  -8   63.03    7.69
   0   8   8   62.36    5.32
  -1  -8  -8    8.84    2.48
  -1  -8  -8   11.90    2.83
  -1  -8  -8    6.79    2.50
  -2  -8  -8    4.91    1.73
  -2  -8  -8    5.03    1.89
  -2  -8  -8    6.96    2.30
  -3  -8  -8  480.05   16.90
  -3  -8  -8  493.61   18.31
  -3  -8  -8  491.60   16.63
  -4  -8  -8  297.28   12.52
  -4  -8  -8  284.63   11.31
  -4  -8  -8  278.58   10.89
  -4  -8  -8  298.38   12.42
   4   8   8  290.49   10.18
  -5  -8  -8   10.64    2.45
  -5  -8  -8   14.79    2.34
  -5  -8  -8   10.71    2.50
  -5  -8  -8   10.84    2.11
  -6  -8  -8  211.37    7.90
  -6  -8  -8  199.31    8.13
  -6  -8  -8  208.63    8.91
  -6  -8  -8  205.95    9.02
  -7  -8  -8  589.67   18.47
  -7  -8  -8  596.46   17.39
   4  -9  -8   65.99    8.19
   4  -9  -8   67.19    7.74
  -4   9   8   68.34    8.99
   3  -9  -8   69.88    8.12
   3  -9  -8   73.39    7.75
   3  -9  -8   61.32    6.08
  -3   9   8   57.68    7.56
   2  -9  -8   91.47    6.24
   2  -9  -8   93.82    7.71
   2  -9  -8   91.31    7.16
  -2   9   8   88.43    7.61
   1  -9  -8    7.35    2.10
   1  -9  -8    6.91    2.42
   1  -9  -8    2.84    1.96
  -1   9   8    5.43    2.43
   0  -9  -8    7.67    1.98
   0  -9  -8    9.38    3.08
   0  -9  -8    9.36    2.88
   0  -9  -8    7.83    2.55
   0   9   8   17.36    5.35
  -1  -9  -8   25.16    3.99
  -1  -9  -8   26.70    4.76
  -1  -9  -8   24.68    3.93
  -2  -9  -8  240.42   10.75
  -2  -9  -8  229.77   11.84
  -2  -9  -8  233.06   10.93
  -3  -9  -8   37.88    5.49
  -3  -9  -8   35.27    4.43
  -3  -9  -8   44.16    4.73
  -3  -9  -8   41.13    5.49
  -4  -9  -8  193.95    9.94
  -4  -9  -8  201.15    9.35
  -4  -9  -8  203.93    9.06
  -4  -9  -8  202.07   10.54
   4   9   8  199.27    8.47
  -5  -9  -8   56.88    4.15
  -5  -9  -8   47.90    5.46
  -5  -9  -8   47.48    4.76
  -6  -9  -8  454.88   16.20
  -6  -9  -8  469.75   15.44
  -6  -9  -8  445.90   14.92
  -6  -9  -8  452.71   16.57
   4 -10  -8  184.66   12.19
   4 -10  -8  198.41   11.98
  -4  10   8  177.50   12.73
   3 -10  -8    9.87    3.57
   3 -10  -8    9.06    3.19
   3 -10  -8    5.23    2.19
  -3  10   8   10.31    3.80
   2 -10  -8   63.17    7.18
   2 -10  -8   64.30    6.46
   2 -10  -8   65.08    7.90
  -2  10   8   62.38    7.68
   1 -10  -8  280.44   14.30
   1 -10  -8  302.02   12.48
   1 -10  -8  292.95   13.89
   0 -10  -8   98.81    8.48
   0 -10  -8   98.68    6.31
   0 -10  -8  120.35    7.90
   0 -10  -8   99.65    7.62
  -1 -10  -8  123.97    8.34
  -1 -10  -8  127.62    9.19
  -1 -10  -8  142.70    8.31
  -2 -10  -8   53.90    6.19
  -2 -10  -8   62.57    7.59
  -2 -10  -8   47.51    5.39
  -3 -10  -8  271.45   14.13
  -3 -10  -8  297.32   12.89
  -3 -10  -8  309.53   12.59
  -3 -10  -8  284.20   13.68
  -4 -10  -8   15.39    3.79
  -4 -10  -8   13.21    3.05
  -4 -10  -8   14.55    2.86
  -4 -10  -8    9.80    2.86
   4  10   8   15.93    2.85
  -5 -10  -8  130.02    8.46
  -5 -10  -8  138.88    7.23
  -5 -10  -8  131.53    7.48
  -5 -10  -8  121.69    7.89
  -6 -10  -8   11.26    2.43
  -6 -10  -8    5.93    2.35
  -6 -10  -8   10.85    2.92
  -6 -10  -8    6.76    2.10
   3 -11  -8   68.02    8.46
   3 -11  -8   48.16    6.88
  -3  11   8   57.39    8.22
   2 -11  -8   41.72    6.51
   2 -11  -8   36.21    5.78
   1 -11  -8    1.90    2.05
   1 -11  -8   -0.88    1.99
   0 -11  -8   15.05    3.62
   0 -11  -8   15.06    3.89
  -1 -11  -8   25.59    4.56
  -1 -11  -8   23.12    4.64
  -1 -11  -8   25.79    4.20
  -2 -11  -8   24.67    3.94
  -2 -11  -8   27.81    4.66
  -2 -11  -8   21.08    4.52
  -3 -11  -8  129.18    9.15
  -3 -11  -8  121.57    7.88
  -3 -11  -8  121.24    8.20
   3  11   8  131.55    7.50
  -4 -11  -8   21.23    3.98
  -4 -11  -8   17.68    3.76
  -4 -11  -8   22.63    3.96
   4  11   8   23.34    3.84
  -5 -11  -8  231.16   11.06
  -5 -11  -8  217.88   11.82
  -5 -11  -8  210.55   11.98
  -5 -11  -8  224.99   10.41
   2 -12  -8  222.00   12.97
   2 -12  -8  214.43   13.62
   1 -12  -8   28.98    5.69
   1 -12  -8   29.71    5.46
   0 -12  -8   49.98    6.85
   0 -12  -8   68.95    7.94
  -1 -12  -8  154.10    9.83
  -1 -12  -8  140.20    9.84
  -2 -12  -8    5.33    2.43
  -2 -12  -8    7.94    3.12
  -2 -12  -8   10.42    3.37
  -3 -12  -8  172.91    9.99
  -3 -12  -8  169.43   10.57
  -3 -12  -8  165.65   11.25
   3  12   8  157.61    9.09
  -4 -12  -8  168.05    9.56
  -4 -12  -8  175.35   10.15
  -4 -12  -8  151.29   10.77
  -1 -13  -8   19.30    4.58
  -1 -13  -8   23.55    5.26
  -2 -13  -8  339.00   16.10
  -2 -13  -8  348.52   17.04
   2  13   8  365.02   15.78
   2   6  -9  159.38   14.08
   1   6  -9    8.29    3.36
   1   6  -9    0.49    3.88
  -1  -6   9    1.35    2.66
  -1  -6   9    1.08    2.84
   0   6  -9   57.72    7.77
   0   6  -9   51.24    8.13
   0  -6   9   50.53    7.71
   0  -6   9   48.91    8.05
  -1   6  -9   70.11    9.95
  -1   6  -9   82.99    9.14
   1  -6   9   86.04   10.55
   1  -6   9   72.56    9.22
  -2   6  -9   40.05    6.32
  -2   6  -9   53.46    8.60
  -3   6  -9   31.13    6.92
  -3   6  -9   28.40    5.12
  -3  -5   9   51.84    8.61
   2   5  -9   17.89    4.96
  -2  -5   9   22.41    5.71
   1   5  -9  109.14   11.44
   1   5  -9  111.46   10.67
  -1  -5   9   92.41   10.36
  -1  -5   9   83.88    9.65
   0   5  -9   -1.20    0.85
   0   5  -9   -4.92    1.26
   0   5  -9    1.66    2.42
   0  -5   9    0.32    2.24
   0  -5   9    0.00    2.19
  -1   5  -9  122.27   10.63
  -1   5  -9  108.65   11.20
   1  -5   9  130.41    9.86
   1  -5   9   96.43   10.29
  -2   5  -9   75.45    7.80
  -2   5  -9   78.97   10.00
   2  -5   9   55.67    7.40
  -3   5  -9   52.28    7.99
  -3   5  -9   44.40    6.15
  -4   5  -9   40.87    5.75
  -4   5  -9   42.43    7.55
  -4  -4   9   83.91   10.76
  -3  -4   9   -1.31    2.04
   2   4  -9    2.40    2.43
  -2  -4   9   -1.66    1.97
   1   4  -9   20.71    5.13
   1   4  -9   16.63    2.96
   1   4  -9   17.76    4.39
  -1  -4   9   17.70    4.71
   0   4  -9  446.91   17.33
   0   4  -9  485.53   19.69
   0   4  -9  480.95   21.42
   0  -4   9  492.21   20.97
   0  -4   9  494.73   21.46
  -1   4  -9  352.57   17.69
  -1   4  -9  352.44   15.70
   1  -4   9  359.05   16.92
   1  -4   9  344.23   17.10
  -2   4  -9 1070.92   34.21
  -2   4  -9 1085.03   37.74
   2  -4   9 1054.92   35.71
  -3   4  -9 1434.44   43.15
  -3   4  -9 1459.28   47.65
  -4   4  -9   25.44    5.54
  -4   4  -9   29.76    4.41
  -5   4  -9  415.89   20.17
  -4  -3   9   22.90    5.65
  -3  -3   9  111.51   11.53
   2   3  -9  141.78   10.22
   2   3  -9  127.69    6.91
  -2  -3   9  152.98   11.09
   1   3  -9    0.20    1.82
   1   3  -9    0.58    1.06
   1   3  -9    1.46    2.11
  -1  -3   9    0.06    1.81
   0   3  -9   26.72    4.11
   0   3  -9   20.77    4.32
   0   3  -9   25.31    5.05
   0  -3   9   18.65    4.40
  -1   3  -9  148.02    9.00
  -1   3  -9  147.17   10.37
   1  -3   9  149.50   10.07
  -2   3  -9  555.34   20.12
  -2   3  -9  561.44   23.00
   2  -3   9  537.47   21.69
  -3   3  -9    2.79    2.35
  -3   3  -9    3.41    2.74
  -3   3  -9    2.37    1.61
  -4   3  -9   79.65    8.84
  -4   3  -9   68.08    6.38
  -4   3  -9   73.05    9.64
  -5   3  -9   29.82    5.50
  -5   3  -9   22.66    5.43
  -6   3  -9  102.22    9.94
  -6   3  -9  132.63   10.08
  -5  -2   9   -1.57    2.11
  -4  -2   9  111.33   11.63
   3   2  -9   -0.41    0.63
   3   2  -9    0.23    1.81
  -3  -2   9   -0.05    2.14
   2   2  -9   29.04    3.54
   2   2  -9   20.17    4.48
  -2  -2   9   34.38    6.15
   1   2  -9   95.47    8.16
   1   2  -9  100.98    6.32
  -1  -2   9  110.03    8.72
   0   2  -9  280.68   11.87
   0   2  -9  274.67   14.31
   0   2  -9  284.83   13.08
   0  -2   9  259.93   13.92
  -1   2  -9   92.62    7.78
  -1   2  -9   83.85    8.01
  -1   2  -9   76.11    7.07
   1  -2   9   91.84    7.49
  -2   2  -9  213.94   12.00
  -2   2  -9  172.71   12.17
  -2   2  -9  187.28    9.43
   2  -2   9  192.99   10.87
  -3   2  -9   37.09    4.58
  -3   2  -9   34.95    5.56
  -3   2  -9   43.48    7.09
  -4   2  -9   66.97    8.20
  -4   2  -9   78.12    5.27
  -4   2  -9   68.05    7.75
  -5   2  -9  127.23   10.06
  -5   2  -9  126.85    9.23
  -6   2  -9    8.83    3.56
  -6   2  -9    3.41    2.53
  -5  -1   9    6.27    3.49
  -4  -1   9   29.21    6.07
   3   1  -9  709.16   25.72
   3   1  -9  623.74   20.43
  -3  -1   9  702.13   27.08
   2   1  -9    1.91    1.93
   2   1  -9    1.74    1.31
  -2  -1   9   -1.14    0.86
  -2  -1   9   -0.25    1.81
   1   1  -9  168.57    8.46
   1   1  -9  171.24   10.57
  -1  -1   9  170.65    7.07
  -1  -1   9  159.26   10.41
   0   1  -9  118.35    7.02
   0   1  -9  122.97    8.69
   0   1  -9   99.38    8.78
   0  -1   9  131.09    8.85
  -1   1  -9  481.28   17.58
  -1   1  -9  516.03   20.13
  -1   1  -9  462.28   20.96
   1  -1   9  500.06   19.45
  -2   1  -9  111.64    8.84
  -2   1  -9   97.33    6.18
  -2   1  -9   92.73    7.52
   2  -1   9  100.84    7.22
   2  -1   9   96.78    4.21
  -3   1  -9   79.75    6.82
  -3   1  -9   80.04    9.17
  -3   1  -9   72.27    5.03
  -4   1  -9   32.05    3.63
  -4   1  -9   32.62    5.11
  -4   1  -9   28.59    5.45
  -5   1  -9   83.16    7.24
  -5   1  -9  108.52    8.63
  -6   1  -9  211.21   11.88
  -6   1  -9  216.98   12.99
  -7   1  -9   88.82    8.46
  -7   1  -9   95.79    7.82
  -5   0   9    5.76    3.28
   4   0  -9    1.90    1.85
   4   0  -9    3.08    1.04
  -4   0   9    9.29    3.75
  -4   0   9    3.06    2.15
   3   0  -9  271.00   13.86
   3   0  -9  280.20   13.48
   3   0  -9  263.64   10.50
  -3   0   9  258.20   11.79
  -3   0   9  281.48   14.86
   2   0  -9    9.08    2.23
   2   0  -9    7.83    2.86
  -2   0   9   12.92    2.46
  -2   0   9   16.24    4.19
   1   0  -9   41.37    5.89
   1   0  -9   51.81    4.46
   1   0  -9   48.12    6.92
  -1   0   9   40.62    5.88
   0   0  -9 1077.12   37.49
   0   0  -9 1088.91   33.19
   0   0  -9 1137.95   36.07
   0   0   9 1156.17   36.00
  -1   0  -9   50.71    7.27
  -1   0  -9   47.68    4.18
  -1   0  -9   45.35    5.84
   1   0   9   48.28    5.82
   1   0   9   45.07    3.12
  -2   0  -9  175.49   10.98
  -2   0  -9  194.33    8.99
  -2   0  -9  183.91   10.20
   2   0   9  175.12    5.60
   2   0   9  177.56    9.43
  -3   0  -9    4.59    1.46
  -3   0  -9    1.40    1.86
  -3   0  -9    5.29    2.14
  -4   0  -9   -5.15    1.21
  -4   0  -9   -0.84    1.18
  -5   0  -9  268.83   13.63
  -5   0  -9  261.67   12.59
  -6   0  -9   95.76    7.82
  -6   0  -9   86.65    7.03
  -7   0  -9  726.31   26.14
  -7   0  -9  772.15   28.14
  -5   1   9   97.23   10.66
   4  -1  -9  328.44   14.72
   4  -1  -9  305.96   10.83
   4  -1  -9  313.04   21.16
  -4   1   9  341.36   16.98
   3  -1  -9   65.00    4.68
   3  -1  -9   63.45    7.11
   3  -1  -9   71.05    7.73
  -3   1   9   66.82    8.15
   2  -1  -9 1706.00   49.52
   2  -1  -9 1569.07   46.09
  -2   1   9 1654.98   50.16
   1  -1  -9   58.71    6.94
   1  -1  -9   64.22    7.04
   1  -1  -9   64.47    5.07
  -1   1   9   60.54    6.83
   0  -1  -9    1.28    1.86
   0  -1  -9    4.67    2.16
   0  -1  -9    6.06    1.82
   0  -1  -9    0.12    1.50
   0   1   9    3.44    1.83
  -1  -1  -9  804.73   26.64
  -1  -1  -9  750.20   27.78
  -1  -1  -9  784.86   23.46
   1   1   9  758.69   21.52
   1   1   9  781.28   25.81
  -2  -1  -9   24.08    2.97
  -2  -1  -9   26.79    4.68
  -2  -1  -9   20.27    3.79
   2   1   9   21.58    3.59
  -3  -1  -9   58.19    6.33
  -3  -1  -9   63.55    4.14
  -3  -1  -9   65.46    6.22
  -4  -1  -9   12.62    3.32
  -4  -1  -9   12.36    3.05
  -4  -1  -9   11.02    2.00
  -5  -1  -9    0.22    1.32
  -5  -1  -9    0.67    0.93
  -5  -1  -9    5.87    2.29
  -6  -1  -9   -3.22    1.66
  -6  -1  -9   -0.74    0.78
  -6  -1  -9    0.20    1.46
  -7  -1  -9  148.02    9.58
  -7  -1  -9  147.87    8.95
  -6   2   9   21.89    5.82
  -5   2   9   -0.14    2.05
   4  -2  -9  146.73    9.94
   4  -2  -9  151.08    6.92
   4  -2  -9  159.01   10.04
   4  -2  -9  155.35    9.47
  -4   2   9  181.74   11.65
   3  -2  -9  598.32   21.71
   3  -2  -9  599.55   19.53
   3  -2  -9  557.43   20.91
   3  -2  -9  563.85   21.94
  -3   2   9  562.97   22.89
   2  -2  -9    0.65    1.78
   2  -2  -9    1.12    1.54
   2  -2  -9    2.35    1.24
   2  -2  -9    3.06    1.48
   2  -2  -9    3.31    1.61
  -2   2   9    1.15    2.03
   1  -2  -9   12.65    2.38
   1  -2  -9   14.89    3.38
   1  -2  -9   14.47    2.27
   1  -2  -9   15.65    3.91
   1  -2  -9   11.85    2.59
  -1   2   9   10.08    3.08
   0  -2  -9   13.42    3.31
   0  -2  -9   27.09    5.06
   0  -2  -9   10.42    2.17
   0   2   9   10.61    2.88
   0   2   9   10.82    1.84
  -1  -2  -9  300.42   13.07
  -1  -2  -9  277.99   10.66
  -1  -2  -9  302.53   14.31
   1   2   9  280.18    8.88
   1   2   9  267.26   11.99
  -2  -2  -9  358.26   14.54
  -2  -2  -9  351.97   12.22
  -2  -2  -9  331.04   15.39
   2   2   9  358.14   13.35
  -3  -2  -9  630.09   22.95
  -3  -2  -9  635.60   18.97
  -3  -2  -9  617.52   21.53
  -4  -2  -9   81.07    6.42
  -4  -2  -9   79.41    4.23
  -4  -2  -9   62.68    5.47
  -5  -2  -9   31.63    4.39
  -5  -2  -9   32.46    4.66
  -5  -2  -9   33.01    3.10
  -6  -2  -9  155.83    8.27
  -6  -2  -9  143.43    6.00
  -6  -2  -9  145.06    8.59
  -7  -2  -9    3.45    1.91
  -7  -2  -9    5.40    1.91
  -6   3   9  144.67   11.78
  -5   3   9   27.60    5.42
   4  -3  -9   13.04    3.73
   4  -3  -9   21.13    4.37
   4  -3  -9   15.71    2.57
   4  -3  -9   16.15    3.54
  -4   3   9   22.35    4.74
   3  -3  -9  120.94    8.36
   3  -3  -9  102.25    6.57
   3  -3  -9  114.95    7.82
   3  -3  -9  136.21    6.90
   3  -3  -9  118.47    7.99
  -3   3   9  142.86    9.71
   2  -3  -9  118.14    7.57
   2  -3  -9   90.47    6.29
   2  -3  -9   99.34    5.94
   2  -3  -9  101.52    7.59
   2  -3  -9  110.00    6.66
  -2   3   9  117.85    8.49
   1  -3  -9    3.98    1.94
   1  -3  -9    0.25    2.12
   1  -3  -9    4.14    1.54
   1  -3  -9    2.41    1.29
   1  -3  -9    2.55    1.85
  -1   3   9    1.97    1.66
   0  -3  -9   11.15    1.65
   0  -3  -9    8.14    2.66
   0  -3  -9    8.82    2.95
   0  -3  -9    7.64    1.85
   0   3   9    7.39    1.51
   0   3   9    8.68    2.50
  -1  -3  -9  891.37   25.43
  -1  -3  -9  843.22   29.40
  -1  -3  -9  856.26   27.93
   1   3   9  862.94   27.08
  -2  -3  -9    0.90    1.66
  -2  -3  -9    7.39    2.47
  -2  -3  -9    4.19    1.31
   2   3   9    5.63    1.76
  -3  -3  -9  337.48   10.06
  -3  -3  -9  330.72   14.34
  -3  -3  -9  306.69   12.94
  -3  -3  -9  316.55   10.81
  -4  -3  -9  248.75   11.67
  -4  -3  -9  240.27    9.15
  -4  -3  -9  247.95    8.42
  -4  -3  -9  237.81   10.62
  -5  -3  -9  137.45    7.86
  -5  -3  -9  121.66    4.91
  -5  -3  -9  123.34    6.86
  -5  -3  -9  128.19    7.06
  -6  -3  -9  194.25    9.19
  -6  -3  -9  206.52    9.95
  -7  -3  -9    1.43    1.48
  -7  -3  -9    1.78    1.85
  -6   4   9    1.87    2.92
   5  -4  -9    7.14    1.30
  -5   4   9    4.85    3.21
   4  -4  -9    2.08    1.75
   4  -4  -9    0.69    1.13
   4  -4  -9    1.07    1.85
   4  -4  -9    1.77    1.96
   4  -4  -9    2.17    1.77
  -4   4   9    3.39    2.63
   3  -4  -9  130.37    8.60
   3  -4  -9  143.16    8.79
   3  -4  -9  135.97    9.01
   3  -4  -9  134.47    7.76
   3  -4  -9  137.70    7.22
  -3   4   9  131.58    9.57
   2  -4  -9  459.69   16.18
   2  -4  -9  446.55   18.38
   2  -4  -9  482.08   18.18
   2  -4  -9  473.41   17.30
  -2   4   9  466.90   19.12
   1  -4  -9  185.63    8.26
   1  -4  -9  164.79    9.62
   1  -4  -9  142.26   10.21
   1  -4  -9  173.26    9.30
   1  -4  -9  171.70    7.97
  -1   4   9  178.41    9.94
   0  -4  -9  280.03   10.51
   0  -4  -9  255.12   13.29
   0  -4  -9  250.72    9.50
   0  -4  -9  267.42   12.25
   0   4   9  266.49   12.04
  -1  -4  -9  756.09   24.48
  -1  -4  -9  720.32   25.77
  -1  -4  -9  705.57   21.73
   1   4   9  732.05   23.48
  -2  -4  -9  102.37    7.29
  -2  -4  -9  108.35    6.75
  -2  -4  -9  104.70    5.11
   2   4   9   99.85    5.45
   2   4   9   81.97    5.03
  -3  -4  -9    5.01    1.95
  -3  -4  -9    6.13    1.40
  -3  -4  -9    1.54    1.53
  -3  -4  -9    4.73    1.24
  -4  -4  -9   86.04    5.65
  -4  -4  -9   92.78    4.00
  -4  -4  -9   95.85    5.94
  -4  -4  -9  107.31    6.85
  -5  -4  -9  179.75    8.27
  -5  -4  -9  165.45    5.43
  -5  -4  -9  169.10    8.88
  -5  -4  -9  177.66    8.89
  -6  -4  -9    2.92    1.44
  -6  -4  -9   -0.14    1.57
  -7  -4  -9  676.18   22.18
  -7  -4  -9  707.41   21.51
   5  -5  -9   67.08    4.06
  -5   5   9   60.46    8.39
   4  -5  -9    8.33    3.09
   4  -5  -9   11.16    3.51
   4  -5  -9    9.43    2.95
   4  -5  -9    6.57    2.09
   4  -5  -9    7.91    2.20
  -4   5   9    5.49    3.03
   3  -5  -9  225.99   12.01
   3  -5  -9  225.74   10.03
   3  -5  -9  229.27   11.54
   3  -5  -9  214.31   11.65
  -3   5   9  240.20   13.15
   2  -5  -9 1236.66   38.86
   2  -5  -9 1231.17   37.55
   2  -5  -9 1251.36   36.15
   2  -5  -9 1269.76   38.28
  -2   5   9 1241.33   39.56
   1  -5  -9   22.00    3.87
   1  -5  -9   15.87    3.92
   1  -5  -9   20.03    3.90
   1  -5  -9   10.64    2.45
   1  -5  -9   13.14    2.51
  -1   5   9   11.93    3.07
   0  -5  -9 2171.38   63.03
   0  -5  -9 2206.78   60.39
   0  -5  -9 2217.76   58.24
   0  -5  -9 2137.11   60.96
   0   5   9 2209.45   60.56
   0   5   9 2073.88   68.52
  -1  -5  -9   11.81    2.91
  -1  -5  -9    8.69    1.83
  -1  -5  -9    9.72    3.12
  -1  -5  -9    8.15    2.35
   1   5   9    4.68    1.83
   1   5   9    7.26    2.11
  -2  -5  -9  803.76   25.22
  -2  -5  -9  783.13   26.54
  -2  -5  -9  754.15   22.38
  -3  -5  -9   50.72    3.04
  -3  -5  -9   51.40    5.19
  -3  -5  -9   47.55    5.59
  -4  -5  -9   40.26    4.92
  -4  -5  -9   33.60    4.37
  -5  -5  -9   79.31    6.70
  -5  -5  -9   86.52    5.33
  -5  -5  -9   92.78    5.99
  -6  -5  -9  123.43    6.46
  -6  -5  -9  140.92    7.16
  -7  -5  -9   78.96    4.50
  -7  -5  -9   68.72    4.82
   5  -6  -9    9.25    2.08
  -5   6   9    7.60    3.44
  -5   6   9   10.49    4.16
   4  -6  -9  108.83    8.09
   4  -6  -9  112.64    7.13
   4  -6  -9   96.92    6.55
   4  -6  -9  121.08    8.83
  -4   6   9  112.12    9.42
  -4   6   9  112.47    9.31
   3  -6  -9   62.30    5.84
   3  -6  -9   62.63    6.80
   3  -6  -9   60.92    7.24
   3  -6  -9   58.52    7.17
  -3   6   9   53.28    7.17
  -3   6   9   67.86    7.87
   2  -6  -9  107.75    7.88
   2  -6  -9  111.04    6.61
   2  -6  -9  103.17    7.40
   2  -6  -9  115.42    7.66
  -2   6   9  118.61    8.38
  -2   6   9  116.33    8.42
   1  -6  -9   92.86    6.61
   1  -6  -9   91.34    6.17
   1  -6  -9   85.46    7.82
   1  -6  -9   89.69    6.90
   1  -6  -9   89.99    5.68
  -1   6   9  105.46    7.37
  -1   6   9  101.61    7.35
   0  -6  -9    5.78    1.70
   0  -6  -9    4.10    2.09
   0  -6  -9    1.84    1.95
   0  -6  -9    3.69    1.75
   0   6   9    5.31    2.01
  -1  -6  -9  163.79    8.61
  -1  -6  -9  181.85    9.29
  -1  -6  -9  183.22   10.39
  -1  -6  -9  172.33    7.48
   1   6   9  157.51    8.17
  -2  -6  -9  518.87   19.77
  -2  -6  -9  510.97   16.02
  -2  -6  -9  534.77   18.63
  -2  -6  -9  524.42   18.06
  -3  -6  -9  471.31   17.81
  -3  -6  -9  472.60   14.12
  -3  -6  -9  451.30   16.10
  -3  -6  -9  472.24   16.68
  -4  -6  -9   -2.83    0.93
  -4  -6  -9    0.20    0.97
  -4  -6  -9    0.55    1.28
  -5  -6  -9    1.21    1.20
  -5  -6  -9    1.49    1.32
  -5  -6  -9    0.39    2.07
  -6  -6  -9    2.56    1.32
  -6  -6  -9   -1.86    2.54
  -6  -6  -9    3.15    1.47
  -7  -6  -9   86.70    4.46
  -7  -6  -9   91.82    5.24
   5  -7  -9   51.66    4.36
  -5   7   9   47.96    7.52
   4  -7  -9    0.09    1.81
   4  -7  -9   -0.11    1.88
  -4   7   9    1.12    2.27
   3  -7  -9   99.87    7.60
   3  -7  -9   94.22    6.38
   3  -7  -9   92.40    7.90
   3  -7  -9   94.24    7.82
  -3   7   9  102.47    8.44
   2  -7  -9   45.76    5.76
   2  -7  -9   54.52    6.36
   2  -7  -9   53.95    5.43
   2  -7  -9   43.98    5.96
  -2   7   9   48.70    6.54
   1  -7  -9    6.12    1.88
   1  -7  -9    5.96    2.36
   1  -7  -9    6.43    2.61
   1  -7  -9    9.15    3.12
  -1   7   9    2.37    2.05
   0  -7  -9    3.54    1.86
   0  -7  -9    0.99    1.57
   0  -7  -9    3.00    1.33
   0   7   9    3.95    1.89
  -1  -7  -9  621.68   21.97
  -1  -7  -9  654.22   21.65
  -1  -7  -9  636.70   23.59
  -1  -7  -9  626.37   19.62
  -2  -7  -9   84.68    6.04
  -2  -7  -9   93.65    7.08
  -2  -7  -9   89.08    4.85
  -2  -7  -9   97.33    6.12
  -3  -7  -9   17.82    2.91
  -3  -7  -9   13.04    3.27
  -3  -7  -9   12.08    2.65
  -4  -7  -9   92.36    6.33
  -4  -7  -9   84.06    5.25
  -4  -7  -9   95.27    5.79
  -5  -7  -9  312.69   11.55
  -5  -7  -9  284.73   11.02
  -5  -7  -9  353.29   15.60
  -5  -7  -9  295.01   12.36
  -6  -7  -9    2.86    1.45
  -6  -7  -9    3.48    1.34
  -7  -7  -9  283.05   10.53
  -7  -7  -9  274.33    9.45
   5  -8  -9  122.27    7.23
  -5   8   9  129.57   11.14
   4  -8  -9  221.94   13.11
   4  -8  -9  228.35   12.58
  -4   8   9  224.02   14.02
   3  -8  -9   62.24    7.23
   3  -8  -9   70.02    7.88
   3  -8  -9   64.04    6.36
  -3   8   9   53.40    7.25
   2  -8  -9  630.75   24.07
   2  -8  -9  656.67   23.80
   2  -8  -9  636.82   21.88
   2  -8  -9  663.39   24.62
  -2   8   9  693.34   25.23
   1  -8  -9  139.02    8.63
   1  -8  -9  141.43    7.68
   1  -8  -9  152.97    9.35
  -1   8   9  142.62    9.06
   0  -8  -9   15.98    3.35
   0  -8  -9   13.17    3.01
   0  -8  -9   10.64    2.26
   0  -8  -9   15.72    4.29
   0   8   9   13.87    3.31
  -1  -8  -9    2.68    1.71
  -1  -8  -9    2.66    1.79
  -1  -8  -9    1.60    1.05
  -1  -8  -9    0.54    1.27
  -2  -8  -9  799.29   28.12
  -2  -8  -9  829.40   26.70
  -2  -8  -9  834.86   26.14
  -3  -8  -9   77.70    6.32
  -3  -8  -9   83.65    5.61
  -3  -8  -9   75.74    5.62
  -4  -8  -9   10.49    2.22
  -4  -8  -9    4.19    1.86
  -4  -8  -9    6.73    2.34
  -5  -8  -9  404.13   15.72
  -5  -8  -9  412.94   14.29
  -5  -8  -9  442.90   14.88
  -6  -8  -9    0.06    0.97
  -6  -8  -9    0.48    1.11
  -7  -8  -9   55.92    3.57
  -7  -8  -9   51.85    4.04
   4  -9  -9  431.24   20.03
   4  -9  -9  449.72   19.52
  -4   9   9  461.99   21.41
   3  -9  -9  470.48   19.56
   3  -9  -9  460.19   20.30
   3  -9  -9  469.17   17.70
  -3   9   9  455.14   20.62
   2  -9  -9   33.83    4.63
   2  -9  -9   42.75    6.22
   2  -9  -9   33.39    5.27
  -2   9   9   50.31    6.97
   1  -9  -9   69.29    7.41
   1  -9  -9   71.00    7.51
   1  -9  -9   72.73    6.56
  -1   9   9   74.03    7.89
   0  -9  -9   46.26    6.43
   0  -9  -9   54.00    6.59
   0  -9  -9   45.26    5.57
   0  -9  -9   57.74    5.38
  -1  -9  -9   41.90    5.72
  -1  -9  -9   53.82    6.05
  -1  -9  -9   49.83    6.06
  -1  -9  -9   42.34    4.46
  -2  -9  -9   12.33    2.83
  -2  -9  -9   13.95    3.10
  -2  -9  -9   10.79    3.07
  -3  -9  -9   39.78    5.63
  -3  -9  -9   39.12    4.56
  -3  -9  -9   43.89    5.05
  -4  -9  -9  554.50   19.30
  -4  -9  -9  560.68   18.81
  -4  -9  -9  561.46   20.65
  -5  -9  -9  125.07    7.64
  -5  -9  -9  115.12    6.56
  -5  -9  -9  122.36    6.87
  -6  -9  -9  200.46    8.16
  -6  -9  -9  162.21    8.08
  -6  -9  -9  180.09    9.05
   3 -10  -9   98.54   10.40
   3 -10  -9   93.87    9.51
  -3  10   9   92.27   10.19
   2 -10  -9  412.56   18.67
   2 -10  -9  403.17   17.95
  -2  10   9  423.90   19.34
   1 -10  -9    1.98    1.85
   1 -10  -9   -0.15    1.73
   0 -10  -9   89.99   10.32
   0 -10  -9   95.18    7.68
   0 -10  -9  102.56    7.47
  -1 -10  -9  274.30   11.32
  -1 -10  -9  270.59   14.38
  -1 -10  -9  264.51   12.56
  -1 -10  -9  275.57   13.26
  -2 -10  -9   58.73    6.25
  -2 -10  -9   50.81    6.46
  -2 -10  -9   56.99    6.26
  -3 -10  -9   36.97    4.98
  -3 -10  -9   34.44    4.64
  -3 -10  -9   40.27    5.75
  -4 -10  -9    8.04    2.85
  -4 -10  -9   10.52    2.92
  -4 -10  -9    9.37    2.56
  -4 -10  -9   11.71    2.89
  -5 -10  -9  307.27   12.21
  -5 -10  -9  300.60   13.55
  -5 -10  -9  295.29   12.64
  -5 -10  -9  301.35   14.20
  -6 -10  -9  227.24   10.04
  -6 -10  -9  215.29   11.18
  -6 -10  -9  220.62    9.64
  -6 -10  -9  222.89   10.90
   2 -11  -9   63.89    7.61
   2 -11  -9   56.09    7.76
   1 -11  -9  125.64    9.08
   1 -11  -9  128.11    9.71
   0 -11  -9   48.39    6.82
   0 -11  -9   55.59    6.85
  -1 -11  -9    9.49    2.84
  -1 -11  -9    6.79    3.19
  -1 -11  -9    8.56    3.06
  -2 -11  -9   91.13    6.85
  -2 -11  -9  105.93    7.70
  -2 -11  -9   73.03    8.77
  -3 -11  -9   90.93    7.09
  -3 -11  -9   85.46    6.72
  -3 -11  -9  105.13    8.41
  -4 -11  -9   -4.47    1.49
  -4 -11  -9    1.39    1.65
  -4 -11  -9    0.71    1.52
  -5 -11  -9  222.87   10.31
  -5 -11  -9  222.71   10.88
  -5 -11  -9  203.32   11.40
  -5 -11  -9  184.95   11.53
   1 -12  -9    5.01    2.99
   1 -12  -9   -1.24    1.70
   0 -12  -9  105.79    8.88
   0 -12  -9  110.82    8.59
  -1 -12  -9   24.37    4.87
  -1 -12  -9   23.71    4.61
  -2 -12  -9  170.14   10.74
  -2 -12  -9  161.18   11.43
  -2 -12  -9  167.65   10.22
  -3 -12  -9  339.50   16.95
  -3 -12  -9  328.41   14.92
  -3 -12  -9  335.20   15.73
   3  12   9  344.03   14.24
  -4 -12  -9   22.03    4.95
   1   5 -10    6.95    3.12
   1   5 -10    4.48    3.19
  -1  -5  10   10.29    4.02
   0   5 -10   11.38    3.49
   0   5 -10    3.33    2.77
   0  -5  10    4.25    3.27
  -1   5 -10   81.12    9.00
  -1   5 -10   73.07    9.81
  -2   5 -10    0.93    2.57
  -2   5 -10    4.14    2.59
  -3   5 -10  313.02   14.99
  -3   5 -10  278.48   17.30
  -2  -4  10   27.54    6.34
   1   4 -10   27.79    5.95
   1   4 -10   26.04    3.89
  -1  -4  10   37.47    7.18
   0   4 -10   75.19    8.38
   0   4 -10   79.11    9.75
   0  -4  10   76.33    9.32
  -1   4 -10   82.50    8.63
  -1   4 -10   86.80   10.18
   1  -4  10   97.43   10.40
  -2   4 -10  930.83   35.18
  -2   4 -10  953.14   31.89
  -3   4 -10  556.11   20.85
  -3   4 -10  507.12   23.82
  -4   4 -10  660.80   28.03
  -3  -3  10  170.20   12.93
   2   3 -10  161.10   11.58
   2   3 -10  151.23    7.93
  -2  -3  10  165.33   12.09
   1   3 -10  116.27    7.27
   1   3 -10  110.26    9.60
  -1  -3  10  122.45   10.15
   0   3 -10  115.49    9.70
   0   3 -10  132.80    9.07
   0  -3  10  115.95    9.75
  -1   3 -10   39.86    5.67
  -1   3 -10   28.41    5.57
   1  -3  10   39.80    6.65
  -2   3 -10    0.71    1.72
  -2   3 -10   -0.46    1.97
  -3   3 -10   75.49    8.93
  -3   3 -10   88.31    6.58
  -4   3 -10  112.45   11.61
  -5   3 -10   75.40    9.58
  -4  -2  10   32.93    6.82
  -3  -2  10   14.93    5.01
   2   2 -10  222.13   13.53
   2   2 -10  210.73    9.86
  -2  -2  10  232.55   14.10
   1   2 -10  111.71    9.09
   1   2 -10   97.17    6.63
  -1  -2  10  127.34    9.90
   0   2 -10   17.22    4.53
   0  -2  10   14.82    4.31
  -1   2 -10   62.16    6.78
  -1   2 -10   71.64    8.45
   1  -2  10   63.14    7.72
  -2   2 -10    8.30    3.12
  -2   2 -10   13.50    3.15
  -3   2 -10    0.67    2.07
  -3   2 -10    0.47    1.43
  -3   2 -10    2.70    2.64
  -4   2 -10  104.06    9.88
  -4   2 -10  106.58    9.01
  -5   2 -10    0.87    2.00
  -5   2 -10   -3.30    2.63
  -6   2 -10   86.54    9.80
  -6   2 -10   80.43    9.99
  -4  -1  10   39.51    7.08
   3   1 -10   12.28    2.37
   3   1 -10   18.44    4.57
  -3  -1  10   22.09    5.66
   2   1 -10    4.19    2.68
   2   1 -10    6.31    2.07
  -2  -1  10    6.59    3.19
   1   1 -10  180.75   11.33
   1   1 -10  157.57    8.60
  -1  -1  10  158.09   10.98
   0   1 -10   47.88    6.76
   0  -1  10   75.60    8.49
  -1   1 -10  120.18   15.20
  -1   1 -10  122.84    9.13
   1  -1  10  122.53    8.78
  -2   1 -10  100.73    9.00
  -2   1 -10   96.44    8.09
   2  -1  10   99.50    4.31
  -3   1 -10    0.13    1.92
  -3   1 -10    1.90    2.02
  -4   1 -10   17.95    4.60
  -4   1 -10    9.16    3.58
  -5   1 -10  153.23   11.51
  -5   1 -10  200.19   11.71
  -6   1 -10    2.56    2.97
  -6   1 -10    3.16    2.57
  -5   0  10    1.55    2.81
   4   0 -10  113.74    5.26
  -4   0  10  125.73   12.80
   3   0 -10    0.06    1.80
   3   0 -10    2.68    1.44
   3   0 -10    2.42    2.50
  -3   0  10    1.18    2.51
   2   0 -10   92.13    9.69
   2   0 -10   99.57    6.40
  -2   0  10  102.84    8.65
   1   0 -10  306.66   12.97
   1   0 -10  310.28   15.38
  -1   0  10  297.44   15.21
   0   0 -10  183.11   11.27
   0   0 -10  178.69    9.47
   0   0  10  202.65   11.50
  -1   0 -10   48.61    6.48
  -1   0 -10   48.38    8.00
   1   0  10   45.28    6.17
  -2   0 -10   64.88    7.27
  -2   0 -10   50.96    7.02
   2   0  10   65.94    2.73
  -3   0 -10   50.01    6.62
  -3   0 -10   50.43    7.42
  -4   0 -10  215.37   11.83
  -4   0 -10  213.96   12.92
  -5   0 -10   38.52    6.29
  -5   0 -10   34.79    5.40
  -6   0 -10  122.92    9.20
  -6   0 -10  117.79    9.52
  -7   0 -10   27.55    5.51
  -5   1  10   14.48    4.87
   4  -1 -10   10.90    1.99
   4  -1 -10   15.34    4.31
  -4   1  10   17.16    4.89
   3  -1 -10 1103.92   33.02
   3  -1 -10 1072.76   37.13
   3  -1 -10 1189.74   37.09
  -3   1  10 1115.75   38.69
   2  -1 -10  454.89   17.24
   2  -1 -10  485.02   20.14
  -2   1  10  482.11   20.92
   1  -1 -10   66.44    5.38
   1  -1 -10   62.38    7.75
  -1   1  10   65.38    7.57
   0  -1 -10 1189.05   34.20
   0  -1 -10 1130.65   35.17
   0  -1 -10 1156.18   39.84
   0  -1 -10 1148.47   37.63
   0   1  10 1218.85   37.79
  -1  -1 -10  214.57   11.79
  -1  -1 -10  219.11   12.93
  -1  -1 -10  204.06    9.28
   1   1  10  197.17    7.51
   1   1  10  229.24   11.44
  -2  -1 -10   90.12   10.08
  -2  -1 -10   49.99    4.83
  -2  -1 -10   54.82    6.93
  -3  -1 -10    5.86    1.77
  -3  -1 -10    7.78    2.78
  -3  -1 -10   10.34    2.92
  -4  -1 -10   30.63    4.88
  -4  -1 -10   22.53    3.17
  -4  -1 -10   20.76    4.32
  -5  -1 -10   18.27    3.91
  -5  -1 -10   21.69    4.51
  -5  -1 -10   28.99    3.46
  -6  -1 -10  159.68    7.55
  -6  -1 -10  162.04   10.65
  -6  -1 -10  167.81   10.02
  -7  -1 -10   76.60    8.68
  -7  -1 -10   82.51    6.88
  -5   2  10   12.49    4.61
   4  -2 -10   42.99    6.14
   4  -2 -10   46.51    3.78
  -4   2  10   53.94    7.93
   3  -2 -10   65.84    7.28
   3  -2 -10   69.22    7.09
   3  -2 -10   72.60    5.41
   3  -2 -10   74.93    8.38
  -3   2  10   74.45    8.78
   2  -2 -10  376.11   14.86
   2  -2 -10  353.26   14.05
   2  -2 -10  370.79   16.98
   2  -2 -10  385.93   16.50
  -2   2  10  384.47   17.61
   1  -2 -10  228.22   10.20
   1  -2 -10  241.16   12.72
   1  -2 -10  247.86   11.24
  -1   2  10  233.57   12.60
   0  -2 -10  398.37   18.36
   0  -2 -10  362.72   16.34
   0  -2 -10  385.93   14.03
   0   2  10  376.66   16.22
  -1  -2 -10   50.50    6.84
  -1  -2 -10   58.25    6.77
  -1  -2 -10   55.95    5.11
   1   2  10   55.83    6.21
   1   2  10   46.82    2.79
  -2  -2 -10    1.30    1.47
  -2  -2 -10    1.60    1.07
  -2  -2 -10   -0.34    1.27
  -3  -2 -10   38.87    4.02
  -3  -2 -10   35.22    5.66
  -3  -2 -10   35.41    5.26
  -4  -2 -10   51.11    3.78
  -4  -2 -10   46.04    6.33
  -4  -2 -10   44.28    5.40
  -5  -2 -10  112.58    5.62
  -5  -2 -10   96.41    7.14
  -5  -2 -10  111.84    8.20
  -6  -2 -10   -1.32    1.36
  -6  -2 -10    0.48    1.56
  -6  -2 -10    0.18    0.93
  -7  -2 -10  217.73   11.25
  -7  -2 -10  215.31   11.95
  -5   3  10   25.99    6.07
   4  -3 -10   37.93    6.03
   4  -3 -10   44.51    3.96
   4  -3 -10   53.32    6.94
   4  -3 -10   43.19    6.10
  -4   3  10   49.76    7.80
   3  -3 -10  260.17   13.00
   3  -3 -10  249.13   13.37
   3  -3 -10  240.62   12.34
   3  -3 -10  248.32   11.26
  -3   3  10  291.55   15.19
   2  -3 -10   27.37    4.53
   2  -3 -10   26.82    3.84
   2  -3 -10   32.85    5.44
   2  -3 -10   31.20    4.20
   2  -3 -10   40.63    4.50
  -2   3  10   35.08    5.91
   1  -3 -10   -1.43    1.12
   1  -3 -10   -0.13    0.91
   1  -3 -10   -0.24    0.91
  -1   3  10   -0.39    1.39
   0  -3 -10  215.92    9.61
   0  -3 -10  213.13    7.51
   0  -3 -10  225.21   12.97
   0  -3 -10  231.21   11.93
   0   3  10  241.62   11.89
  -1  -3 -10  561.74   18.33
  -1  -3 -10  545.75   20.84
  -1  -3 -10  561.50   22.60
   1   3  10  563.04   20.13
  -2  -3 -10   73.10    5.93
  -2  -3 -10   60.37    7.29
  -2  -3 -10   60.07    4.33
  -3  -3 -10  870.80   25.61
  -3  -3 -10  865.24   28.51
  -3  -3 -10  902.76   30.41
  -4  -3 -10    0.27    0.75
  -4  -3 -10    0.02    1.23
  -4  -3 -10   -0.63    1.18
  -5  -3 -10   82.20    6.13
  -5  -3 -10   79.24    6.60
  -5  -3 -10   81.82    4.39
  -6  -3 -10   40.24    4.92
  -6  -3 -10   32.71    3.36
  -6  -3 -10   33.90    5.01
  -7  -3 -10   55.19    6.49
  -7  -3 -10   42.23    5.36
   5  -4 -10   38.00    2.79
  -5   4  10   32.98    6.43
   4  -4 -10   76.94    8.14
   4  -4 -10   64.62    8.07
   4  -4 -10   76.28    5.46
   4  -4 -10   65.73    7.63
  -4   4  10   59.73    8.17
   3  -4 -10   28.29    5.20
   3  -4 -10   26.82    3.91
   3  -4 -10   27.08    4.71
   3  -4 -10   28.34    4.65
   3  -4 -10   26.14    3.90
  -3   4  10   25.28    5.21
   2  -4 -10  260.90   11.82
   2  -4 -10  267.01   11.25
   2  -4 -10  264.51   12.94
   2  -4 -10  268.02   13.45
  -2   4  10  252.83   13.53
   1  -4 -10   27.77    3.91
   1  -4 -10   38.03    5.57
   1  -4 -10   27.34    5.73
   1  -4 -10   28.06    4.67
   1  -4 -10   28.89    3.74
  -1   4  10   34.64    5.31
   0  -4 -10  857.66   28.50
   0  -4 -10  834.78   30.18
   0  -4 -10  847.17   25.61
   0  -4 -10  821.50   23.92
   0   4  10  802.88   27.67
  -1  -4 -10 1105.79   34.36
  -1  -4 -10 1057.14   28.79
  -1  -4 -10 1158.93   31.62
  -1  -4 -10 1011.70   35.58
   1   4  10 1078.38   33.17
  -2  -4 -10  343.60   10.26
  -2  -4 -10  335.51   14.38
  -2  -4 -10  330.16   12.06
  -2  -4 -10  347.88   15.90
  -3  -4 -10  912.09   30.74
  -3  -4 -10  901.47   25.23
  -3  -4 -10  930.69   29.25
  -3  -4 -10  914.55   26.19
  -4  -4 -10    7.25    2.08
  -4  -4 -10    2.28    1.84
  -4  -4 -10    2.52    1.09
  -5  -4 -10   54.20    5.69
  -5  -4 -10   47.60    3.03
  -5  -4 -10   50.99    6.03
  -6  -4 -10  173.75    9.62
  -6  -4 -10  181.58    8.98
  -7  -4 -10  418.55   16.63
  -7  -4 -10  432.95   15.72
   5  -5 -10  129.14    6.21
  -5   5  10  131.80   11.07
   4  -5 -10    1.33    1.93
   4  -5 -10    3.05    2.23
   4  -5 -10   -0.13    0.94
  -4   5  10    2.29    2.71
   3  -5 -10   17.32    3.99
   3  -5 -10   13.83    3.92
   3  -5 -10   10.84    2.61
   3  -5 -10   12.02    3.55
   3  -5 -10    9.97    2.56
  -3   5  10   11.10    3.68
   2  -5 -10    1.70    1.65
   2  -5 -10    1.37    1.41
   2  -5 -10    0.75    1.87
   2  -5 -10    1.38    1.66
  -2   5  10    3.25    2.42
   1  -5 -10  501.35   19.72
   1  -5 -10  509.61   17.56
   1  -5 -10  489.02   21.43
   1  -5 -10  491.13   17.36
   1  -5 -10  526.42   19.54
  -1   5  10  471.85   19.59
   0  -5 -10 1858.94   54.44
   0  -5 -10 1855.40   51.28
   0  -5 -10 2039.87   55.84
   0  -5 -10 1933.17   57.63
   0  -5 -10 1874.64   52.17
   0   5  10 1885.32   54.66
  -1  -5 -10  101.14    8.04
  -1  -5 -10  102.02    5.67
  -1  -5 -10   86.93    6.77
   1   5  10   94.88    6.26
   1   5  10   88.76    6.21
  -2  -5 -10 1551.51   47.26
  -2  -5 -10 1524.13   45.30
  -2  -5 -10 1566.58   42.40
  -3  -5 -10   37.26    5.37
  -3  -5 -10   33.77    3.26
  -3  -5 -10   38.61    5.03
  -3  -5 -10   36.57    3.77
  -4  -5 -10  626.63   22.25
  -4  -5 -10  590.05   17.70
  -4  -5 -10  620.98   20.90
  -5  -5 -10   35.45    4.89
  -5  -5 -10   25.83    3.81
  -5  -5 -10   24.30    2.27
  -6  -5 -10    2.99    1.77
  -6  -5 -10   -1.99    1.54
  -7  -5 -10    2.08    1.41
  -7  -5 -10    2.44    1.50
   5  -6 -10    1.30    1.15
  -5   6  10    0.09    2.63
  -5   6  10    2.27    2.72
   4  -6 -10   63.06    5.43
   4  -6 -10   64.71    7.73
   4  -6 -10   72.16    8.05
  -4   6  10   68.27    8.89
  -4   6  10   64.80    8.84
   3  -6 -10  162.18   10.10
   3  -6 -10  168.58   10.75
   3  -6 -10  170.44   10.62
   3  -6 -10  171.40    8.99
  -3   6  10  182.30   11.79
   2  -6 -10   45.16    6.17
   2  -6 -10   33.48    4.33
   2  -6 -10   35.59    4.97
   2  -6 -10   45.74    6.01
  -2   6  10   49.00    6.74
  -2   6  10   33.88    5.62
   1  -6 -10   11.33    2.48
   1  -6 -10   15.16    3.66
   1  -6 -10   32.84    6.42
   1  -6 -10   11.51    2.97
   1  -6 -10   12.89    2.85
  -1   6  10   18.94    4.12
  -1   6  10   10.00    3.07
   0  -6 -10  168.22    9.85
   0  -6 -10  169.93    8.24
   0  -6 -10  168.91   11.13
   0  -6 -10  168.09    9.46
   0   6  10  188.27   10.07
   0   6  10  177.28    9.71
  -1  -6 -10   43.30    6.37
  -1  -6 -10   41.94    5.34
  -1  -6 -10   31.11    4.35
  -1  -6 -10   42.10    4.34
  -2  -6 -10  374.63   15.03
  -2  -6 -10  347.05   14.13
  -2  -6 -10  341.65   12.29
  -2  -6 -10  363.63   16.21
  -3  -6 -10  291.50   10.27
  -3  -6 -10  309.63   12.90
  -3  -6 -10  284.11   13.69
  -4  -6 -10   17.54    3.20
  -4  -6 -10   17.23    3.55
  -4  -6 -10   14.37    1.87
  -4  -6 -10   26.44    3.74
  -5  -6 -10   48.74    5.67
  -5  -6 -10   50.10    5.05
  -6  -6 -10   27.58    3.59
  -6  -6 -10   31.99    4.43
  -7  -6 -10    4.94    1.47
  -7  -6 -10    0.91    1.22
   4  -7 -10   17.24    4.37
   4  -7 -10   21.89    4.82
   4  -7 -10   16.29    3.33
  -4   7  10   17.76    5.05
  -4   7  10   16.26    4.86
   3  -7 -10   61.16    7.68
   3  -7 -10   55.96    7.00
   3  -7 -10   53.71    6.63
   3  -7 -10   70.36    6.72
  -3   7  10   62.03    7.98
  -3   7  10   61.64    8.23
   2  -7 -10   59.45    5.78
   2  -7 -10   60.84    6.80
   2  -7 -10   56.65    6.90
   2  -7 -10   55.64    6.68
  -2   7  10   54.00    6.97
  -2   7  10   56.49    7.03
   1  -7 -10   39.89    5.06
   1  -7 -10   48.22    6.13
   1  -7 -10   42.55    4.80
   1  -7 -10   50.25    6.23
  -1   7  10   49.03    6.31
   0  -7 -10   51.14    5.95
   0  -7 -10   47.24    4.95
   0  -7 -10   54.18    6.86
   0  -7 -10   67.78    7.40
   0   7  10   52.46    5.92
  -1  -7 -10    8.79    2.12
  -1  -7 -10    5.64    2.33
  -1  -7 -10   10.07    2.79
  -1  -7 -10    8.69    2.85
  -2  -7 -10   29.35    4.29
  -2  -7 -10   43.73    6.43
  -2  -7 -10   37.35    4.89
  -2  -7 -10   32.84    3.52
  -3  -7 -10  116.65    7.10
  -3  -7 -10  114.07    5.53
  -3  -7 -10  121.71    7.46
  -3  -7 -10  114.30    8.10
  -4  -7 -10    3.60    1.97
  -4  -7 -10    1.65    1.92
  -4  -7 -10    3.62    1.58
  -5  -7 -10   -0.98    0.91
  -5  -7 -10   -1.09    1.27
  -6  -7 -10    6.57    2.01
  -6  -7 -10    6.09    2.13
  -7  -7 -10   47.39    4.27
  -7  -7 -10   53.50    3.79
   4  -8 -10    1.92    2.38
   4  -8 -10    0.54    1.90
  -4   8  10    2.49    2.48
   3  -8 -10  100.08    8.18
   3  -8 -10  102.55    8.56
   3  -8 -10   99.17    6.99
  -3   8  10  118.73    9.66
   2  -8 -10  462.86   17.42
   2  -8 -10  468.69   19.80
   2  -8 -10  467.71   18.99
   2  -8 -10  435.93   18.94
  -2   8  10  480.47   20.29
   1  -8 -10   86.94    6.10
   1  -8 -10   95.32    7.58
   1  -8 -10   84.42    6.95
  -1   8  10   83.00    7.12
   0  -8 -10   81.66    5.51
   0  -8 -10   72.37    7.54
   0  -8 -10   77.35    6.31
   0  -8 -10   73.60    8.53
  -1  -8 -10  312.30   15.64
  -1  -8 -10  339.46   14.62
  -1  -8 -10  310.73   13.75
  -1  -8 -10  311.09   12.12
  -2  -8 -10   -0.64    1.39
  -2  -8 -10    3.29    1.72
  -2  -8 -10    3.44    1.31
  -2  -8 -10    3.10    1.95
  -3  -8 -10    6.94    2.31
  -3  -8 -10    9.87    3.08
  -3  -8 -10   11.82    2.89
  -4  -8 -10  134.88    7.40
  -4  -8 -10  133.61    7.68
  -4  -8 -10  131.30    8.48
  -5  -8 -10    0.86    1.63
  -5  -8 -10   -0.20    1.23
  -5  -8 -10    1.10    1.08
  -6  -8 -10    8.05    2.29
  -6  -8 -10   14.99    2.75
  -6  -8 -10   13.33    3.01
   3  -9 -10   23.95    4.81
   3  -9 -10   26.81    5.53
  -3   9  10   27.40    5.69
   2  -9 -10  185.51   11.12
   2  -9 -10  190.54   11.56
  -2   9  10  166.24   11.15
   1  -9 -10   36.98    6.00
   1  -9 -10   57.53    7.03
   1  -9 -10   41.66    5.88
   0  -9 -10    4.53    1.92
   0  -9 -10    1.39    1.92
   0  -9 -10    1.80    1.96
   0  -9 -10    0.93    1.68
  -1  -9 -10   85.94    6.83
  -1  -9 -10   98.49    8.22
  -1  -9 -10   84.31    5.63
  -1  -9 -10   92.92    7.19
  -2  -9 -10   47.08    5.33
  -2  -9 -10   52.70    6.08
  -2  -9 -10   46.35    4.70
  -2  -9 -10   55.56    7.34
  -3  -9 -10   35.34    4.45
  -3  -9 -10   26.07    4.17
  -3  -9 -10   30.48    5.22
  -4  -9 -10    5.88    2.37
  -4  -9 -10    2.83    1.74
  -4  -9 -10    3.38    1.85
  -5  -9 -10    1.76    1.55
  -5  -9 -10   -1.52    1.19
  -5  -9 -10   -4.43    1.11
  -6  -9 -10   34.36    3.87
  -6  -9 -10   41.42    4.52
  -6  -9 -10   37.13    4.87
   3 -10 -10  351.93   17.80
   3 -10 -10  362.54   17.32
  -3  10  10  330.14   19.63
   2 -10 -10   21.99    4.82
   2 -10 -10   22.76    4.98
   1 -10 -10    7.77    3.07
   1 -10 -10    5.92    2.89
   0 -10 -10   35.83    5.39
   0 -10 -10   23.00    4.59
  -1 -10 -10  131.98    8.46
  -1 -10 -10  112.89    8.29
  -1 -10 -10  103.65    8.81
  -2 -10 -10  309.07   14.58
  -2 -10 -10  323.77   15.97
  -2 -10 -10  318.64   17.07
  -2 -10 -10  337.11   14.35
  -3 -10 -10  426.99   16.30
  -3 -10 -10  388.38   17.73
  -3 -10 -10  391.14   16.45
  -4 -10 -10  161.41    8.87
  -4 -10 -10  172.80    9.33
  -4 -10 -10  167.74   10.27
  -5 -10 -10  218.29   10.77
  -5 -10 -10  239.78   12.05
  -5 -10 -10  237.52   10.63
   2 -11 -10  363.52   17.63
   2 -11 -10  389.40   18.87
   1 -11 -10   16.45    4.34
   1 -11 -10   17.54    4.26
   0 -11 -10   19.26    4.38
   0 -11 -10   14.67    3.91
  -1 -11 -10   54.47    6.60
  -1 -11 -10   49.32    6.72
  -2 -11 -10  285.74   13.40
  -2 -11 -10  279.47   15.12
  -2 -11 -10  281.71   14.03
  -3 -11 -10   42.75    5.76
  -3 -11 -10   34.49    5.73
  -3 -11 -10   45.04    5.57
  -4 -11 -10  130.37    8.65
  -4 -11 -10  127.05    8.04
  -4 -11 -10  122.39    9.03
   0 -12 -10   24.02    5.18
   0 -12 -10   28.22    5.30
  -1 -12 -10    4.59    2.57
  -1 -12 -10    1.82    2.46
  -2 -12 -10  345.65   15.44
  -2 -12 -10  294.94   16.76
  -2 -12 -10  288.35   15.17
  -3 -12 -10   93.31    9.34
  -3 -12 -10   97.89    7.60
  -3 -12 -10  110.03    9.29
   1   4 -11  103.06    7.12
   1   4 -11  116.59   12.34
  -1  -4  11  143.58   11.84
   0   4 -11    0.12    2.51
   0  -4  11    3.00    2.89
  -1   4 -11   83.85    9.10
  -1   4 -11   68.09    9.61
  -2   4 -11   79.70    8.50
  -2   4 -11   75.83   10.33
  -3   4 -11   93.74    9.05
  -3   4 -11   88.65   10.82
   2   3 -11    5.11    1.94
  -2  -3  11    6.10    3.76
   1   3 -11   78.94    9.90
   1   3 -11   93.56    6.68
  -1  -3  11   78.65   10.01
   0   3 -11   44.40    7.45
   0  -3  11   54.42    7.93
  -1   3 -11  134.28   10.90
  -2   3 -11  147.32   11.52
  -2   3 -11  140.53    9.43
  -3   3 -11   53.27    6.57
  -3   3 -11   59.40    8.66
  -4   3 -11    9.14    3.88
  -3  -2  11    4.01    3.44
   2   2 -11   10.11    2.58
   2   2 -11   16.14    4.68
  -2  -2  11   19.62    5.53
   1   2 -11   85.15   10.07
   1   2 -11   65.46    5.68
  -1  -2  11   84.16   10.25
   0   2 -11  130.83   10.70
   0  -2  11  142.32   10.83
  -1   2 -11   12.46    4.25
  -2   2 -11  128.92   10.35
  -3   2 -11   33.79    6.39
  -4   2 -11   -0.55    2.21
  -5   2 -11    7.42    3.69
   3   1 -11   89.07    5.73
  -3  -1  11   83.69   10.21
   2   1 -11   82.97    9.51
   2   1 -11   71.25    5.57
  -2  -1  11   64.24    8.69
   1   1 -11  241.78   14.30
   1   1 -11  223.96   11.24
  -1  -1  11  242.13   14.43
   0   1 -11   53.22    7.63
   0  -1  11   62.70    8.25
  -1   1 -11  172.79   11.60
   1  -1  11  165.81   12.14
  -2   1 -11   65.33    8.16
  -3   1 -11  140.04   11.49
  -3   1 -11  135.25   10.12
  -4   1 -11   93.39   11.34
  -4   1 -11   98.05   10.61
  -5   1 -11    0.86    2.18
   4   0 -11   84.39    4.62
  -4   0  11  100.04   11.51
   3   0 -11   -2.47    1.59
   3   0 -11    1.11    2.11
   3   0 -11    1.32    1.21
  -3   0  11    1.69    2.90
   2   0 -11   48.81    5.60
   2   0 -11   53.07    7.61
  -2   0  11   50.00    7.48
   1   0 -11    2.61    2.72
   1   0 -11    7.87    2.84
  -1   0  11    8.89    3.42
   0   0 -11  196.01   12.31
   0   0  11  211.14   12.35
  -1   0 -11  272.19   14.50
   1   0  11  248.60   13.45
  -2   0 -11  100.14   11.70
  -2   0 -11   79.14    8.71
  -3   0 -11    7.32    3.27
  -3   0 -11    7.63    3.03
  -4   0 -11    4.43    2.80
  -5   0 -11   19.89    4.94
  -5   0 -11   17.99    4.34
  -6   0 -11    3.79    2.76
  -6   0 -11    2.26    2.14
   4  -1 -11  122.37    6.27
  -4   1  11  135.54   11.42
   3  -1 -11   65.81    8.13
   3  -1 -11   55.12    4.83
   3  -1 -11   68.16    8.29
  -3   1  11   62.76    8.88
   2  -1 -11   56.65    7.87
   2  -1 -11   55.26    5.88
  -2   1  11   63.68    8.45
   1  -1 -11  577.17   23.04
  -1   1  11  510.47   22.38
   0  -1 -11  106.68    8.76
   0   1  11  120.32    9.06
  -1  -1 -11    2.77    2.01
  -1  -1 -11    1.02    1.18
  -1  -1 -11    0.21    1.45
   1   1  11    0.67    1.78
  -2  -1 -11  116.45    9.72
  -2  -1 -11  121.22    8.91
  -2  -1 -11  115.24    6.80
  -3  -1 -11   73.47    9.24
  -3  -1 -11   66.59    5.90
  -3  -1 -11   64.78    7.61
  -4  -1 -11   61.26    7.96
  -4  -1 -11   70.51    5.09
  -4  -1 -11   60.25    7.04
  -5  -1 -11   76.88    8.26
  -5  -1 -11   69.78    8.39
  -5  -1 -11   81.10    5.76
  -6  -1 -11   43.27    6.97
  -6  -1 -11   34.08    5.66
   4  -2 -11   47.52    4.04
  -4   2  11   50.88    7.88
   3  -2 -11  321.39   13.15
   3  -2 -11  291.81   15.07
   3  -2 -11  305.40   15.93
  -3   2  11  305.71   16.77
   2  -2 -11   42.50    6.56
   2  -2 -11   50.08    6.60
   2  -2 -11   46.29    5.51
  -2   2  11   63.10    8.25
   1  -2 -11   69.89    6.29
   1  -2 -11   54.86    7.35
  -1   2  11   80.99    8.97
   0  -2 -11   32.41    4.11
   0  -2 -11   33.08    5.46
   0   2  11   40.41    6.05
  -1  -2 -11   14.80    3.85
  -1  -2 -11   21.51    4.47
  -1  -2 -11   16.71    2.88
   1   2  11   23.85    4.41
  -2  -2 -11   14.81    2.71
  -2  -2 -11   16.91    3.98
  -2  -2 -11   17.62    4.55
  -3  -2 -11   22.60    3.33
  -3  -2 -11   17.78    4.49
  -3  -2 -11   16.81    3.80
  -4  -2 -11  109.95    7.71
  -4  -2 -11   83.77    7.77
  -4  -2 -11   76.00    5.19
  -5  -2 -11   -1.14    1.25
  -5  -2 -11   -2.53    0.84
  -5  -2 -11   -0.01    1.06
  -6  -2 -11  367.20   16.07
  -6  -2 -11  352.27   12.95
  -6  -2 -11  343.52   17.00
   4  -3 -11  145.55    7.69
   4  -3 -11  154.20   10.29
  -4   3  11  145.16   11.58
   3  -3 -11   42.46    6.43
   3  -3 -11   44.05    6.47
   3  -3 -11   38.47    4.99
  -3   3  11   36.11    6.56
   2  -3 -11   17.76    4.03
   2  -3 -11   27.64    5.29
   2  -3 -11   21.41    3.53
   2  -3 -11   18.66    3.62
  -2   3  11   20.73    4.70
   1  -3 -11  153.99   10.18
   1  -3 -11  146.53    7.99
  -1   3  11  157.23   10.41
   0  -3 -11  301.02   12.47
   0  -3 -11  323.10   16.79
   0  -3 -11  311.57   15.14
   0   3  11  309.66   14.79
  -1  -3 -11    1.44    1.97
  -1  -3 -11    4.02    1.69
  -1  -3 -11    2.82    1.89
   1   3  11    2.26    2.26
  -2  -3 -11   88.49    5.60
  -2  -3 -11   65.56    7.82
  -2  -3 -11   78.79    6.83
  -3  -3 -11    2.28    1.56
  -3  -3 -11   -0.06    0.94
  -3  -3 -11   -1.48    1.18
  -4  -3 -11    2.80    2.05
  -4  -3 -11    0.78    1.05
  -4  -3 -11   -1.93    1.13
  -5  -3 -11  147.98   10.03
  -5  -3 -11  158.72    7.23
  -5  -3 -11  150.45    9.12
  -6  -3 -11   -0.15    1.00
  -6  -3 -11    1.41    1.69
  -6  -3 -11   -4.92    1.30
  -7  -3 -11  378.04   15.49
  -7  -3 -11  327.25   16.15
   4  -4 -11   39.35    6.17
   4  -4 -11   40.81    4.71
  -4   4  11   44.66    7.66
   3  -4 -11   11.47    3.00
   3  -4 -11    9.59    3.35
   3  -4 -11   16.28    4.20
   3  -4 -11    7.17    2.27
  -3   4  11   11.84    4.03
   2  -4 -11  156.48   10.50
   2  -4 -11  172.26   10.42
   2  -4 -11  165.96    8.66
   2  -4 -11  150.38    9.17
  -2   4  11  160.41   10.86
   1  -4 -11   62.88    5.81
   1  -4 -11   58.97    6.88
   1  -4 -11   68.02    7.82
  -1   4  11   79.44    8.54
   0  -4 -11  551.04   23.82
   0  -4 -11  592.51   19.72
   0  -4 -11  580.15   22.47
   0   4  11  562.63   21.68
  -1  -4 -11  624.06   23.51
  -1  -4 -11  660.52   20.99
  -1  -4 -11  619.24   25.26
  -2  -4 -11 1028.29   30.11
  -2  -4 -11 1017.04   33.18
  -2  -4 -11 1007.26   35.12
  -3  -4 -11  645.78   23.07
  -3  -4 -11  681.17   25.09
  -3  -4 -11  588.54   19.77
  -4  -4 -11   72.79    6.83
  -4  -4 -11   61.42    6.73
  -4  -4 -11   76.25    4.62
  -5  -4 -11  202.35   11.43
  -5  -4 -11  186.48    7.79
  -5  -4 -11  181.69   10.00
  -6  -4 -11    5.89    2.99
  -6  -4 -11    8.29    2.90
  -7  -4 -11   10.66    3.04
  -7  -4 -11    8.21    2.86
   4  -5 -11   22.91    3.76
   4  -5 -11   25.46    4.88
   4  -5 -11   26.29    6.00
  -4   5  11   37.17    7.16
   3  -5 -11  258.66   13.66
   3  -5 -11  270.30   11.82
   3  -5 -11  242.33   12.26
   3  -5 -11  272.53   14.48
  -3   5  11  275.31   15.53
   2  -5 -11  167.55   10.90
   2  -5 -11  167.05    8.97
   2  -5 -11  178.06   10.69
  -2   5  11  177.20   11.62
   1  -5 -11   86.69    8.87
   1  -5 -11   79.06    8.77
   1  -5 -11   69.01    7.32
   1  -5 -11   93.10    6.26
  -1   5  11   81.93    8.62
   0  -5 -11    0.08    1.26
   0  -5 -11    1.18    1.62
   0  -5 -11    0.00    1.00
   0  -5 -11   -0.63    1.52
   0   5  11   -0.53    1.33
  -1  -5 -11   47.25    4.82
  -1  -5 -11   36.34    5.36
  -1  -5 -11   41.11    6.54
  -2  -5 -11  773.89   26.51
  -2  -5 -11  740.11   23.32
  -2  -5 -11  762.42   28.19
  -3  -5 -11   97.94    7.16
  -3  -5 -11   97.48    5.46
  -3  -5 -11   87.34    7.59
  -4  -5 -11  266.07   10.05
  -4  -5 -11  264.74   13.59
  -4  -5 -11  285.57   12.75
  -5  -5 -11    1.97    1.91
  -5  -5 -11    3.57    1.98
  -5  -5 -11    2.55    1.14
  -6  -5 -11  157.45    8.61
  -6  -5 -11  163.20    9.77
  -7  -5 -11   20.12    3.76
  -7  -5 -11   29.29    4.75
   4  -6 -11   -0.16    1.98
   4  -6 -11    0.95    1.46
   4  -6 -11   -0.14    1.76
  -4   6  11   -0.04    2.28
   3  -6 -11   13.82    3.71
   3  -6 -11   13.66    3.13
   3  -6 -11   14.68    4.07
  -3   6  11   14.96    4.46
   2  -6 -11  246.12   13.14
   2  -6 -11  253.38   12.69
   2  -6 -11  268.17   14.06
   2  -6 -11  267.66   11.98
  -2   6  11  262.06   14.32
   1  -6 -11  144.52    9.77
   1  -6 -11  144.85    8.24
   1  -6 -11  153.64    8.33
   1  -6 -11  153.88    9.58
  -1   6  11  142.35    9.66
  -1   6  11  157.04   10.09
   0  -6 -11    4.25    1.73
   0  -6 -11    6.79    3.18
   0  -6 -11    4.76    2.25
   0  -6 -11    6.18    1.96
   0  -6 -11    9.60    3.00
   0   6  11    8.45    4.43
   0   6  11    6.85    4.09
  -1  -6 -11  360.70   17.31
  -1  -6 -11  361.78   13.39
  -1  -6 -11  343.84   15.54
  -1  -6 -11  322.41   14.70
  -2  -6 -11   89.97    7.02
  -2  -6 -11   97.10    5.67
  -2  -6 -11   81.82    6.40
  -2  -6 -11   88.36    7.78
  -3  -6 -11    0.84    1.69
  -3  -6 -11    1.75    1.22
  -3  -6 -11    0.41    1.67
  -4  -6 -11  374.77   15.07
  -4  -6 -11  352.25   12.09
  -4  -6 -11  343.10   15.92
  -5  -6 -11   71.46    3.98
  -5  -6 -11   69.83    5.59
  -5  -6 -11   80.17    6.67
  -6  -6 -11   22.03    4.03
  -6  -6 -11   22.92    3.60
   4  -7 -11   11.70    3.85
   4  -7 -11    9.32    2.85
   4  -7 -11    6.97    3.43
  -4   7  11    9.45    4.07
  -4   7  11    9.16    4.30
   3  -7 -11   23.19    4.85
   3  -7 -11   25.35    5.40
   3  -7 -11   24.69    4.28
  -3   7  11   33.89    6.55
  -3   7  11   25.65    5.64
   2  -7 -11   66.70    8.06
   2  -7 -11   47.53    5.49
   2  -7 -11   65.81    7.66
   2  -7 -11   48.46    6.25
  -2   7  11   56.71    7.73
  -2   7  11   54.61    7.49
   1  -7 -11   97.33    8.05
   1  -7 -11   99.13    6.67
   1  -7 -11   98.58    7.71
   1  -7 -11   99.96    7.04
  -1   7  11  101.93    8.17
  -1   7  11  102.44    8.04
   0  -7 -11   12.27    2.73
   0  -7 -11   10.46    3.20
   0  -7 -11    5.34    2.51
   0  -7 -11    6.70    2.61
  -1  -7 -11  132.32    9.85
  -1  -7 -11  132.53    7.21
  -1  -7 -11  125.75    8.36
  -1  -7 -11  119.72    8.43
  -2  -7 -11  175.59    9.38
  -2  -7 -11  150.68    7.46
  -2  -7 -11  142.10   10.11
  -2  -7 -11  154.35    9.38
  -3  -7 -11  156.01    8.88
  -3  -7 -11  173.63    7.51
  -3  -7 -11  164.63    9.46
  -3  -7 -11  156.27   10.23
  -4  -7 -11    4.07    1.83
  -4  -7 -11    3.68    2.19
  -4  -7 -11    6.06    2.59
  -5  -7 -11   16.86    3.76
  -5  -7 -11   15.32    3.07
  -5  -7 -11   14.79    2.93
  -5  -7 -11   14.55    2.31
  -6  -7 -11   22.21    3.45
  -6  -7 -11    8.06    2.47
  -6  -7 -11    9.94    2.83
   3  -8 -11   10.88    3.56
   3  -8 -11   12.05    3.87
  -3   8  11   18.52    5.17
   2  -8 -11  172.17   10.67
   2  -8 -11  157.89   10.38
   2  -8 -11  167.01   11.09
  -2   8  11  154.88   10.96
   1  -8 -11    6.58    3.02
   1  -8 -11    4.76    2.58
   1  -8 -11    4.72    2.10
   0  -8 -11  423.45   16.47
   0  -8 -11  451.90   18.89
   0  -8 -11  444.04   18.15
  -1  -8 -11   63.12    7.79
  -1  -8 -11   74.51    5.31
  -1  -8 -11   81.03    8.27
  -1  -8 -11   71.49    7.37
  -2  -8 -11   25.87    4.50
  -2  -8 -11   20.41    3.07
  -2  -8 -11   26.89    4.43
  -2  -8 -11   20.02    4.55
  -3  -8 -11   50.83    7.08
  -3  -8 -11   35.52    5.08
  -3  -8 -11   39.98    5.15
  -3  -8 -11   41.70    4.15
  -4  -8 -11  131.08    7.94
  -4  -8 -11  123.36    6.11
  -4  -8 -11  130.23    8.98
  -4  -8 -11  137.74    7.84
  -5  -8 -11   32.94    4.48
  -5  -8 -11   30.47    4.37
  -5  -8 -11   39.49    5.64
  -6  -8 -11   74.64    6.30
  -6  -8 -11   83.50    5.83
  -6  -8 -11   78.89    5.48
   3  -9 -11  167.44   11.11
   3  -9 -11  146.16   11.05
  -3   9  11  156.52   11.76
   2  -9 -11  454.37   19.49
   2  -9 -11  422.04   19.72
   1  -9 -11  177.50   10.92
   1  -9 -11  188.40   11.63
   0  -9 -11   57.85    6.92
   0  -9 -11   62.33    7.65
  -1  -9 -11   83.18    8.03
  -1  -9 -11   77.41    8.19
  -1  -9 -11   88.95    7.02
  -2  -9 -11   58.04    6.22
  -2  -9 -11   50.29    5.19
  -2  -9 -11   57.95    7.31
  -2  -9 -11   55.14    6.69
  -3  -9 -11   83.18    5.19
  -3  -9 -11   84.67    7.58
  -3  -9 -11   72.43    6.15
  -3  -9 -11   79.76    6.65
  -4  -9 -11   -0.07    1.53
  -4  -9 -11    3.40    1.75
  -4  -9 -11    1.95    1.86
  -5  -9 -11   43.35    6.12
  -5  -9 -11   42.40    5.16
  -5  -9 -11   42.69    4.99
   2 -10 -11    1.18    2.18
   2 -10 -11    1.79    2.35
   1 -10 -11   83.50    9.02
   1 -10 -11   98.29    8.19
   0 -10 -11    8.90    3.16
   0 -10 -11   14.62    4.06
  -1 -10 -11  122.80    8.51
  -1 -10 -11  126.69    9.09
  -1 -10 -11  131.74   11.03
  -2 -10 -11  206.61   11.35
  -2 -10 -11  181.22   12.11
  -2 -10 -11  195.15   10.74
  -3 -10 -11  160.97    9.38
  -3 -10 -11  168.30    9.90
  -3 -10 -11  171.10   11.13
  -4 -10 -11  123.50    7.79
  -4 -10 -11  129.04    8.24
  -4 -10 -11  130.70    9.38
  -5 -10 -11   13.47    3.05
  -5 -10 -11   11.09    2.99
  -5 -10 -11   11.91    3.36
   1 -11 -11   34.39    6.10
   1 -11 -11   46.51    6.67
   0 -11 -11   61.27    7.46
   0 -11 -11   72.31    8.62
  -1 -11 -11   24.17    4.91
  -1 -11 -11   38.90    5.85
  -2 -11 -11  183.68   10.98
  -2 -11 -11  157.62    9.99
  -2 -11 -11  156.85   11.30
  -3 -11 -11  122.49    9.67
  -3 -11 -11  133.61    8.83
  -3 -11 -11  126.65    8.92
  -4 -11 -11   95.18    7.41
  -4 -11 -11   94.54    8.13
  -4 -11 -11   84.06    6.84
  -1 -12 -11   37.96    6.37
  -1 -12 -11   47.87    6.76
   0   3 -12   30.30    6.63
  -1   3 -12  246.67   15.89
  -2   3 -12   85.28   10.87
   1   2 -12    1.29    2.73
  -1  -2  12    5.18    3.40
   0   2 -12   22.02    5.57
  -1   2 -12   37.19    6.96
  -2   2 -12  321.02   17.97
  -3   2 -12   36.48    7.15
   2   1 -12    9.98    4.02
   2   1 -12    7.03    2.41
  -2  -1  12   12.90    4.37
   1   1 -12   67.65    9.27
  -1  -1  12   76.24    9.68
   0   1 -12   14.96    4.57
   0  -1  12   14.34    4.95
  -1   1 -12   24.75    5.57
  -2   1 -12   93.69   10.70
  -3   1 -12  205.44   13.47
  -4   1 -12   69.89    9.42
   3   0 -12  116.37    7.11
   3   0 -12  128.04   10.11
  -3   0  12  115.52   12.52
   2   0 -12  160.61   11.89
   2   0 -12  144.05    8.67
  -2   0  12  176.76   12.67
   1   0 -12    9.73    3.88
  -1   0  12   11.93    4.29
   0   0 -12  181.36   12.35
   0   0  12  176.17   11.96
  -1   0 -12   47.05    7.26
  -2   0 -12  227.16   13.79
  -3   0 -12  171.26   11.78
  -4   0 -12   17.96    4.84
  -4   0 -12   20.82    5.01
  -5   0 -12    5.99    3.39
  -5   0 -12    4.11    4.10
   3  -1 -12   21.00    4.85
   3  -1 -12   16.20    3.18
   3  -1 -12   21.41    5.26
  -3   1  12   16.78    5.33
   2  -1 -12   65.12    6.62
   2  -1 -12   65.30    8.71
  -2   1  12   63.94    8.77
   1  -1 -12  380.21   18.98
  -1   1  12  416.13   19.62
   0  -1 -12   80.86    9.69
   0   1  12   87.79    9.57
  -1  -1 -12  429.01   19.67
  -2  -1 -12  534.20   29.96
  -2  -1 -12  539.09   22.78
  -3  -1 -12   10.98    3.72
  -3  -1 -12   14.06    4.67
  -4  -1 -12    5.83    3.12
  -4  -1 -12    8.45    2.97
  -5  -1 -12    7.66    3.62
  -5  -1 -12    4.09    2.48
   3  -2 -12   47.69    5.52
   3  -2 -12   40.69    6.63
   3  -2 -12   50.60    7.52
  -3   2  12   54.97    8.54
   2  -2 -12    2.72    2.09
   2  -2 -12    8.70    3.57
   2  -2 -12    4.07    2.52
  -2   2  12    5.25    3.51
   1  -2 -12    1.08    2.23
  -1   2  12    0.75    2.19
   0  -2 -12   53.25    5.56
   0  -2 -12   56.14    7.83
   0   2  12   63.99    7.71
  -1  -2 -12   99.82    8.57
  -1  -2 -12   97.98    6.67
  -2  -2 -12  138.16   11.05
  -2  -2 -12  145.54    8.12
  -2  -2 -12  141.99   10.04
  -3  -2 -12   79.82    8.55
  -3  -2 -12   68.46    9.29
  -3  -2 -12   81.21    7.81
  -4  -2 -12    5.14    2.80
  -4  -2 -12   -0.70    2.14
  -5  -2 -12  123.19   10.07
  -5  -2 -12  111.62    8.99
  -6  -2 -12   70.92    8.07
  -6  -2 -12   64.18    8.57
   3  -3 -12  277.50   15.38
   3  -3 -12  276.73   14.76
   3  -3 -12  258.00   12.49
  -3   3  12  266.50   16.16
   2  -3 -12   49.29    7.25
   2  -3 -12   52.83    7.25
  -2   3  12   50.37    7.60
   1  -3 -12    0.28    2.00
   1  -3 -12    3.93    1.89
  -1   3  12    1.86    2.24
   0  -3 -12  119.06    9.31
   0  -3 -12  113.76    7.15
   0   3  12  109.34   11.52
  -1  -3 -12   -0.90    1.44
  -1  -3 -12    1.48    1.99
  -1  -3 -12    1.90    1.53
  -2  -3 -12   -0.47    1.24
  -2  -3 -12    0.51    1.84
  -2  -3 -12    0.62    1.90
  -3  -3 -12   66.18    8.34
  -3  -3 -12   66.85    5.08
  -3  -3 -12   56.30    7.27
  -4  -3 -12  104.50    6.38
  -4  -3 -12  117.31    8.71
  -4  -3 -12  105.24    9.22
  -5  -3 -12   35.58    4.76
  -5  -3 -12   32.52    5.28
  -5  -3 -12   38.46    6.44
  -6  -3 -12  109.54    8.17
  -6  -3 -12  117.99    9.47
   3  -4 -12  268.93   14.70
   3  -4 -12  283.17   13.22
   3  -4 -12  278.54   15.50
  -3   4  12  303.02   16.75
   2  -4 -12   51.89    7.21
   2  -4 -12   38.85    6.45
   2  -4 -12   43.67    5.30
  -2   4  12   45.87    6.99
   1  -4 -12   -0.39    1.12
   1  -4 -12    0.19    2.01
   1  -4 -12    0.10    1.65
  -1   4  12    0.07    1.80
   0  -4 -12  254.38   11.60
   0  -4 -12  263.78   14.22
  -1  -4 -12    2.47    1.59
  -1  -4 -12    0.80    1.69
  -1  -4 -12    1.13    2.02
  -2  -4 -12  817.06   31.09
  -2  -4 -12  806.41   28.94
  -2  -4 -12  825.92   25.84
  -3  -4 -12   51.90    5.08
  -3  -4 -12   63.36    8.11
  -3  -4 -12   54.54    6.97
  -4  -4 -12  572.66   21.43
  -4  -4 -12  489.17   17.77
  -4  -4 -12  574.17   23.23
  -5  -4 -12  484.24   20.86
  -5  -4 -12  502.64   19.47
  -5  -4 -12  435.35   15.83
  -6  -4 -12  170.73   11.20
  -6  -4 -12  166.50   10.01
   3  -5 -12  232.07   12.15
   3  -5 -12  251.61   11.81
   3  -5 -12  259.06   14.11
   3  -5 -12  250.27   14.47
  -3   5  12  239.14   15.11
   2  -5 -12   69.61    6.56
   2  -5 -12   74.59    8.79
   2  -5 -12   60.47    7.73
  -2   5  12   76.39    9.05
   1  -5 -12  217.10   12.90
   1  -5 -12  226.63   10.95
   1  -5 -12  217.53   12.51
  -1   5  12  247.96   13.66
   0  -5 -12   -1.17    1.41
   0  -5 -12   -0.17    1.35
   0  -5 -12   -1.78    1.52
  -1  -5 -12   -0.09    1.14
  -1  -5 -12    1.78    2.13
  -1  -5 -12   -0.03    1.64
  -2  -5 -12  205.88    9.52
  -2  -5 -12  210.28   13.07
  -2  -5 -12  187.03   11.27
  -3  -5 -12   17.62    2.91
  -3  -5 -12   17.01    3.98
  -3  -5 -12   19.84    4.55
  -4  -5 -12  650.24   23.82
  -4  -5 -12  655.77   25.65
  -4  -5 -12  648.42   20.67
  -5  -5 -12    4.89    2.52
  -5  -5 -12    8.30    3.18
  -5  -5 -12    4.43    1.57
  -6  -5 -12  245.10   13.21
  -6  -5 -12  228.16   11.72
   3  -6 -12   68.72    6.90
   3  -6 -12   84.95    8.92
   3  -6 -12   73.13    8.80
  -3   6  12   70.69    9.11
   2  -6 -12  109.43   10.94
   2  -6 -12   99.74    8.32
  -2   6  12  102.37   10.59
   1  -6 -12  170.90   11.11
   1  -6 -12  160.69   10.40
   0  -6 -12  693.89   24.25
   0  -6 -12  706.90   25.80
   0  -6 -12  697.67   26.32
  -1  -6 -12   49.25    6.30
  -1  -6 -12   49.46    5.14
  -1  -6 -12   54.49    7.00
  -1  -6 -12   65.37    8.96
  -2  -6 -12  203.26   11.01
  -2  -6 -12  217.69   13.18
  -2  -6 -12  199.51   11.47
  -2  -6 -12  190.96    9.28
  -3  -6 -12  279.67   11.17
  -3  -6 -12  272.76   14.84
  -3  -6 -12  262.37   13.28
  -4  -6 -12   10.64    3.38
  -4  -6 -12   11.82    2.42
  -4  -6 -12    9.92    3.13
  -5  -6 -12    7.23    2.91
  -5  -6 -12    4.92    2.34
  -5  -6 -12    6.82    1.73
  -6  -6 -12  111.23    8.47
  -6  -6 -12  125.16    7.94
   3  -7 -12    0.06    1.98
   3  -7 -12    0.71    2.20
  -3   7  12    1.30    2.58
  -3   7  12   -0.23    2.35
   2  -7 -12  115.42    8.96
   2  -7 -12  108.07    9.24
  -2   7  12  105.11   10.85
  -2   7  12  117.42   11.69
   1  -7 -12  116.55    9.30
   1  -7 -12  120.31    8.91
   0  -7 -12    1.91    2.19
   0  -7 -12    3.83    2.11
  -1  -7 -12  819.40   28.84
  -1  -7 -12  851.05   32.05
  -1  -7 -12  857.76   29.78
  -2  -7 -12    7.91    3.28
  -2  -7 -12    6.46    2.00
  -2  -7 -12    6.89    2.80
  -2  -7 -12    0.58    1.87
  -3  -7 -12  187.14    8.68
  -3  -7 -12  181.32   10.13
  -3  -7 -12  182.34   11.83
  -3  -7 -12  201.29   11.11
  -4  -7 -12   18.99    4.01
  -4  -7 -12   16.74    2.68
  -4  -7 -12   15.48    3.56
  -4  -7 -12   25.74    5.03
  -5  -7 -12    7.73    1.83
  -5  -7 -12    7.87    3.14
  -5  -7 -12    9.11    2.77
  -6  -7 -12   -1.95    1.84
  -6  -7 -12   -0.02    1.44
   3  -8 -12    0.61    2.21
   3  -8 -12   -1.06    2.00
  -3   8  12    2.28    3.19
   2  -8 -12    2.85    2.56
   2  -8 -12    3.88    2.81
   1  -8 -12   81.51    9.03
   1  -8 -12   83.72    8.56
   0  -8 -12  421.29   18.84
   0  -8 -12  416.97   18.15
  -1  -8 -12  209.17   12.13
  -1  -8 -12  207.84   11.50
  -1  -8 -12  208.14   13.36
  -2  -8 -12  439.54   17.73
  -2  -8 -12  428.70   20.03
  -2  -8 -12  402.52   17.75
  -3  -8 -12  150.74   10.78
  -3  -8 -12  149.33    9.52
  -3  -8 -12  163.22    9.89
  -3  -8 -12  168.03    9.61
  -4  -8 -12    1.98    2.23
  -4  -8 -12    3.98    1.56
  -4  -8 -12    6.56    2.53
  -4  -8 -12    3.69    2.04
  -5  -8 -12    9.16    3.32
  -5  -8 -12   10.84    3.15
   2  -9 -12  235.95   14.28
   2  -9 -12  249.95   13.86
   1  -9 -12   31.05    5.68
   1  -9 -12   33.64    5.79
   0  -9 -12  212.45   12.10
   0  -9 -12  211.36   12.60
  -1  -9 -12   77.19    8.54
  -1  -9 -12   73.16    7.87
  -2  -9 -12  179.10   10.97
  -2  -9 -12  183.32   12.33
  -2  -9 -12  204.32   11.02
  -3  -9 -12   41.84    6.70
  -3  -9 -12   46.84    6.00
  -3  -9 -12   41.51    5.92
  -4  -9 -12    0.34    1.58
  -4  -9 -12   -0.39    1.68
  -4  -9 -12    0.70    1.80
  -5  -9 -12   36.94    4.91
  -5  -9 -12   38.82    6.11
  -5  -9 -12   33.68    4.83
   1 -10 -12  274.67   15.30
   1 -10 -12  272.44   14.67
   0 -10 -12    5.83    3.20
   0 -10 -12    5.23    2.71
  -1 -10 -12   18.48    4.13
  -1 -10 -12   20.11    4.51
  -2 -10 -12    4.24    2.75
  -3 -10 -12    0.92    2.05
  -3 -10 -12    0.90    2.11
  -3 -10 -12    5.11    2.25
  -4 -10 -12  139.98    8.85
  -4 -10 -12  115.87    8.11
  -4 -10 -12  134.66    9.98
   0 -11 -12   46.27    6.71
   0 -11 -12   51.23    7.30
  -1 -11 -12  107.62    8.66
  -1 -11 -12  130.49    9.75
  -2 -11 -12   76.46    8.48
  -2 -11 -12   66.29    7.52
   0   1 -13   46.78    7.99
  -1   1 -13   -0.22    2.19
  -2   1 -13  100.74   11.39
  -3   1 -13   21.99    5.79
   1   0 -13   33.71    6.70
   0   0 -13   32.77    6.78
  -1   0 -13   44.83    7.40
  -2   0 -13  508.56   23.39
  -3   0 -13  222.01   14.32
  -4   0 -13   88.50   10.35
   2  -1 -13  212.00   14.22
  -2   1  13  201.66   14.20
   1  -1 -13   39.89    7.09
  -1   1  13   36.29   10.28
   0  -1 -13   40.36    7.23
  -1  -1 -13  342.33   18.02
  -2  -1 -13   71.48    9.00
  -3  -1 -13  323.38   17.20
  -4  -1 -13   89.32   10.16
  -4  -1 -13   93.89   12.71
   2  -2 -13  201.62   13.04
   2  -2 -13  195.25   13.35
  -2   2  13  211.94   14.17
   1  -2 -13  208.06   13.45
  -1   2  13  204.54   23.39
   0  -2 -13   52.52    8.21
  -1  -2 -13    1.64    2.71
  -2  -2 -13   63.26    8.24
  -3  -2 -13   43.47    6.84
  -3  -2 -13   38.86    7.14
  -4  -2 -13  119.65   10.80
  -4  -2 -13  118.95    9.46
  -5  -2 -13   21.49    5.39
  -5  -2 -13   21.71    4.82
   2  -3 -13   10.67    3.78
   2  -3 -13   12.43    4.26
  -2   3  13   18.81    5.16
   1  -3 -13  101.83   11.26
   1  -3 -13   87.30    9.98
   0  -3 -13    3.23    2.58
  -1  -3 -13   14.43    3.98
  -2  -3 -13   42.89    6.68
  -3  -3 -13   87.57    9.45
  -3  -3 -13   76.54   10.24
  -4  -3 -13   -1.94    1.49
  -4  -3 -13    6.01    2.74
  -5  -3 -13   55.57    7.49
  -5  -3 -13   49.91    7.91
   2  -4 -13   53.21    7.87
   2  -4 -13   57.19    7.73
  -2   4  13   63.36    8.57
   1  -4 -13   70.54    8.43
   1  -4 -13   90.21    9.80
   0  -4 -13    3.17    2.82
  -1  -4 -13    9.18    3.76
  -2  -4 -13   31.33    5.66
  -2  -4 -13   35.90    6.83
  -3  -4 -13  198.10   13.65
  -3  -4 -13  219.92   12.62
  -4  -4 -13 1017.90   37.05
  -4  -4 -13 1017.80   34.71
  -5  -4 -13   65.12    8.72
  -5  -4 -13   68.28    8.08
   2  -5 -13   33.01    5.94
   2  -5 -13   43.42    6.95
  -2   5  13   43.53    8.14
   1  -5 -13  135.80   10.35
   1  -5 -13   83.96    9.10
   0  -5 -13    0.82    2.08
   0  -5 -13   -0.75    1.64
  -1  -5 -13    0.98    2.11
  -2  -5 -13   17.85    4.40
  -2  -5 -13   18.76    5.20
  -3  -5 -13   87.22    9.13
  -3  -5 -13   94.34    9.02
  -4  -5 -13  259.75   15.30
  -4  -5 -13  284.67   14.35
  -5  -5 -13   21.89    5.16
   2  -6 -13   56.49    7.81
   2  -6 -13   62.13    8.59
   1  -6 -13   26.73    5.37
   1  -6 -13   28.16    5.33
   0  -6 -13    2.69    2.48
   0  -6 -13    5.66    3.07
  -1  -6 -13   42.01    6.52
  -1  -6 -13   47.72    6.68
  -2  -6 -13  195.68   12.09
  -2  -6 -13  224.38   12.10
  -2  -6 -13  208.85   13.81
  -3  -6 -13    3.34    2.55
  -3  -6 -13    6.72    3.01
  -4  -6 -13   22.01    4.47
  -4  -6 -13   24.90    5.54
  -5  -6 -13   19.83    4.64
  -5  -6 -13   19.69    4.37
   2  -7 -13   21.96    5.18
   2  -7 -13   18.34    4.63
   1  -7 -13   18.00    4.37
   1  -7 -13   10.69    3.93
   0  -7 -13  167.07   11.16
   0  -7 -13  137.91    9.91
  -1  -7 -13   66.83    8.12
  -1  -7 -13   71.58    7.90
  -2  -7 -13   98.12    8.28
  -2  -7 -13   85.66    8.68
  -2  -7 -13   79.07    9.75
  -3  -7 -13  319.25   17.20
  -3  -7 -13  323.42   15.71
  -3  -7 -13  340.68   15.39
  -4  -7 -13   -3.23    2.03
  -4  -7 -13    2.49    2.31
  -4  -7 -13    2.07    2.17
  -5  -7 -13    0.83    1.89
   1  -8 -13   19.92    4.62
   1  -8 -13   25.32    5.60
   0  -8 -13   78.25    9.09
   0  -8 -13   63.00    7.66
  -1  -8 -13  190.72   11.46
  -1  -8 -13  186.53   11.83
  -2  -8 -13  111.71   10.03
  -2  -8 -13  118.35    9.02
  -2  -8 -13  149.04    9.47
  -3  -8 -13  108.23    9.56
  -3  -8 -13  117.80    8.58
  -3  -8 -13  112.21    8.59
  -4  -8 -13   16.71    4.53
  -4  -8 -13   20.27    4.21
  -4  -8 -13   18.91    4.09
   1  -9 -13  426.23   20.43
   1  -9 -13  469.70   20.46
   0  -9 -13  745.87   29.08
   0  -9 -13  789.59   28.57
  -1  -9 -13  228.58   12.75
  -1  -9 -13  214.67   12.97
  -2  -9 -13  175.06   11.20
  -2  -9 -13  174.30   10.81
  -2  -9 -13  168.00   12.33
  -3  -9 -13   56.62    6.83
  -3  -9 -13   49.76    7.67
  -3  -9 -13   61.28    7.53
  -4  -9 -13  131.90   10.39
  -4  -9 -13  130.47    8.81
  -4  -9 -13  143.40    9.47
   0 -10 -13   10.86    4.00
   0 -10 -13    9.91    3.67
  -1 -10 -13  140.63   10.31
  -1 -10 -13  143.20    9.96
  -2 -10 -13   44.60    6.67
  -2 -10 -13   53.16    7.26
  -1  -1 -14    4.75    3.19
  -2  -1 -14  155.76   12.08
   0  -2 -14   27.28    6.40
  -1  -2 -14   12.75    4.43
  -2  -2 -14    5.44    3.42
  -3  -2 -14   56.33    8.32
   1  -3 -14  241.42   14.65
   1  -3 -14  228.04   15.04
   0  -3 -14    0.75    2.14
  -1  -3 -14    9.37    3.90
  -2  -3 -14   -0.56    1.97
  -3  -3 -14   19.51    5.22
  -4  -3 -14   60.13    9.44
   1  -4 -14  255.98   15.50
   1  -4 -14  225.72   14.10
   0  -4 -14   11.16    4.00
  -1  -4 -14   93.28   10.67
  -2  -4 -14  120.77   10.00
  -3  -4 -14  242.78   19.73
  -3  -4 -14  244.07   14.31
  -4  -4 -14  167.11   11.53
  -4  -4 -14  162.65   12.67
   1  -5 -14   89.54   10.52
   1  -5 -14   78.00    9.29
   0  -5 -14   37.76    6.77
   0  -5 -14   35.39    6.45
  -1  -5 -14  167.40   11.87
  -2  -5 -14    3.93    2.71
  -3  -5 -14   27.61    5.44
  -3  -5 -14   24.01    6.31
  -4  -5 -14   10.50    3.84
  -4  -5 -14   -2.83    2.71
   1  -6 -14   -0.09    1.82
   1  -6 -14    1.28    2.55
   0  -6 -14    4.85    2.98
   0  -6 -14    7.34    3.68
  -1  -6 -14   19.97    5.01
  -1  -6 -14   22.80    4.99
  -2  -6 -14  146.19   10.78
  -2  -6 -14  152.10   10.32
  -3  -6 -14    4.02    2.81
  -3  -6 -14    4.41    3.06
  -4  -6 -14  199.82   12.34
  -4  -6 -14  209.24   13.99
   0  -7 -14   22.39    5.06
   0  -7 -14   22.81    5.49
  -1  -7 -14   35.81    6.19
  -1  -7 -14   45.74    6.78
  -2  -7 -14   66.63    8.50
  -2  -7 -14   52.43    7.35
  -3  -7 -14  114.80    9.32
  -3  -7 -14  108.31   10.22
  -3  -7 -14  135.29    9.44
  -4  -7 -14   35.77    6.78
   0  -8 -14   50.87    7.35
   0  -8 -14   47.58    7.43
  -1  -8 -14   39.49    6.55
  -1  -8 -14   31.60    6.15
  -2  -8 -14   12.01    3.96
  -2  -8 -14    2.52    3.77
  -3  -8 -14  134.53    9.39
  -3  -8 -14  134.08   11.28
  -3  -8 -14  160.09   10.78


 _exptl_absorpt_process_details 'SADABS 2014/4'
 _exptl_absorpt_correction_type   multiscan
 _exptl_absorpt_correction_T_max  0.9485
 _exptl_absorpt_correction_T_min  0.9091
 _exptl_special_details
)
 The following wavelength and cell were deduced by SADABS from the
 direction cosines etc. They are given here for emergency use only:
 CELL 0.71066    7.150   10.653   11.898   67.797   80.117   84.577
)

_computing_structure_solution     'SHELXT 2014/4 (Sheldrick, 2014)'
;
_shelx_hkl_checksum              33598
_shelx_fab_file
;
    1    0    0      8.16      0.00
    2    0    0     -2.77      0.00
    3    0    0     -1.84      0.00
    4    0    0     -1.42      0.00
    5    0    0     -0.06      0.00
    6    0    0      0.10      0.00
    7    0    0     -0.10      0.00
    8    0    0      0.17      0.00
   -8    1    0     -0.13      0.00
   -7    1    0      0.01      0.00
   -6    1    0     -0.15      0.00
   -5    1    0     -0.02      0.00
   -4    1    0      1.04      0.00
   -3    1    0      1.66      0.00
   -2    1    0      2.38      0.00
   -1    1    0     -7.54      0.00
    0    1    0    -40.46      0.00
    1    1    0     -7.53      0.00
    2    1    0      2.21      0.00
    3    1    0      1.79      0.00
    4    1    0      1.67      0.00
    5    1    0      0.14      0.00
    6    1    0     -0.03      0.00
    7    1    0      0.18      0.00
    8    1    0     -0.03      0.00
   -8    2    0     -0.09      0.00
   -7    2    0     -0.09      0.00
   -6    2    0      0.12      0.00
   -5    2    0      0.04      0.00
   -4    2    0     -0.71      0.00
   -3    2    0     -1.29      0.00
   -2    2    0     -1.45      0.00
   -1    2    0      6.14      0.00
    0    2    0     31.09      0.00
    1    2    0      5.97      0.00
    2    2    0     -1.12      0.00
    3    2    0     -1.50      0.00
    4    2    0     -1.67      0.00
    5    2    0     -0.21      0.00
    6    2    0     -0.03      0.00
    7    2    0     -0.18      0.00
    8    2    0     -0.11      0.00
   -8    3    0      0.37      0.00
   -7    3    0      0.28      0.00
   -6    3    0      0.01      0.00
   -5    3    0      0.08      0.00
   -4    3    0      0.51      0.00
   -3    3    0      0.76      0.00
   -2    3    0      0.56      0.00
   -1    3    0     -4.72      0.00
    0    3    0    -21.43      0.00
    1    3    0     -4.24      0.00
    2    3    0      0.27      0.00
    3    3    0      1.07      0.00
    4    3    0      1.53      0.00
    5    3    0      0.27      0.00
    6    3    0      0.08      0.00
    7    3    0      0.16      0.00
    8    3    0      0.07      0.00
   -8    4    0     -0.49      0.00
   -7    4    0     -0.35      0.00
   -6    4    0     -0.18      0.00
   -5    4    0     -0.29      0.00
   -4    4    0     -0.41      0.00
   -3    4    0     -0.20      0.00
   -2    4    0      0.07      0.00
   -1    4    0      3.67      0.00
    0    4    0     14.56      0.00
    1    4    0      2.81      0.00
    2    4    0      0.07      0.00
    3    4    0     -0.69      0.00
    4    4    0     -1.36      0.00
    5    4    0     -0.26      0.00
    6    4    0     -0.09      0.00
    7    4    0     -0.21      0.00
    8    4    0      0.17      0.00
   -7    5    0      0.14      0.00
   -6    5    0      0.25      0.00
   -5    5    0      0.46      0.00
   -4    5    0      0.34      0.00
   -3    5    0     -0.17      0.00
   -2    5    0     -0.51      0.00
   -1    5    0     -2.89      0.00
    0    5    0    -10.30      0.00
    1    5    0     -1.76      0.00
    2    5    0     -0.21      0.00
    3    5    0      0.46      0.00
    4    5    0      1.23      0.00
    5    5    0      0.16      0.00
    6    5    0      0.06      0.00
    7    5    0      0.22      0.00
    8    5    0     -0.38      0.00
   -7    6    0      0.17      0.00
   -6    6    0     -0.17      0.00
   -5    6    0     -0.52      0.00
   -4    6    0     -0.32      0.00
   -3    6    0      0.20      0.00
   -2    6    0      0.74      0.00
   -1    6    0      2.20      0.00
    0    6    0      7.35      0.00
    1    6    0      1.08      0.00
    2    6    0      0.36      0.00
    3    6    0     -0.39      0.00
    4    6    0     -1.13      0.00
    5    6    0     -0.02      0.00
    6    6    0     -0.03      0.00
    7    6    0     -0.05      0.00
   -7    7    0     -0.31      0.00
   -6    7    0      0.04      0.00
   -5    7    0      0.49      0.00
   -4    7    0      0.37      0.00
   -3    7    0     -0.06      0.00
   -2    7    0     -0.71      0.00
   -1    7    0     -1.55      0.00
    0    7    0     -5.14      0.00
    1    7    0     -0.75      0.00
    2    7    0     -0.40      0.00
    3    7    0      0.40      0.00
    4    7    0      1.07      0.00
    5    7    0     -0.03      0.00
    6    7    0      0.05      0.00
    7    7    0     -0.18      0.00
   -6    8    0      0.04      0.00
   -5    8    0     -0.44      0.00
   -4    8    0     -0.42      0.00
   -3    8    0     -0.02      0.00
   -2    8    0      0.54      0.00
   -1    8    0      0.98      0.00
    0    8    0      3.60      0.00
    1    8    0      0.64      0.00
    2    8    0      0.30      0.00
    3    8    0     -0.34      0.00
    4    8    0     -1.04      0.00
    5    8    0     -0.02      0.00
    6    8    0     -0.11      0.00
   -5    9    0      0.36      0.00
   -4    9    0      0.40      0.00
   -3    9    0      0.01      0.00
   -2    9    0     -0.42      0.00
   -1    9    0     -0.51      0.00
    0    9    0     -2.46      0.00
    1    9    0     -0.51      0.00
    2    9    0     -0.28      0.00
    3    9    0      0.13      0.00
    4    9    0      0.96      0.00
    5    9    0      0.07      0.00
    6    9    0      0.12      0.00
   -4   10    0     -0.27      0.00
   -3   10    0     -0.02      0.00
   -2   10    0      0.33      0.00
   -1   10    0      0.16      0.00
    0   10    0      1.47      0.00
    1   10    0      0.32      0.00
    2   10    0      0.45      0.00
    3   10    0      0.09      0.00
    4   10    0     -0.72      0.00
    5   10    0     -0.05      0.00
   -3   11    0      0.07      0.00
   -2   11    0     -0.19      0.00
   -1   11    0      0.03      0.00
    0   11    0     -0.69      0.00
    1   11    0     -0.17      0.00
    2   11    0     -0.56      0.00
    3   11    0     -0.15      0.00
    4   11    0      0.37      0.00
   -1   12    0     -0.06      0.00
    0   12    0      0.26      0.00
    1   12    0      0.12      0.00
    2   12    0      0.43      0.00
   -3  -11    1      0.36      0.00
   -2  -11    1      0.68      0.00
   -1  -11    1      0.12      0.00
    0  -11    1     -0.08      0.00
    1  -11    1     -0.24      0.00
    2  -11    1      0.11      0.00
    3  -11    1     -0.10      0.00
   -4  -10    1      0.39      0.00
   -3  -10    1     -0.46      0.00
   -2  -10    1     -0.71      0.00
   -1  -10    1     -0.16      0.00
    0  -10    1     -0.33      0.00
    1  -10    1      0.25      0.00
    2  -10    1     -0.25      0.00
    3  -10    1      0.14      0.00
    4  -10    1      0.23      0.00
   -5   -9    1     -0.10      0.00
   -4   -9    1     -0.77      0.00
   -3   -9    1      0.34      0.00
   -2   -9    1      0.63      0.00
   -1   -9    1      0.32      0.00
    0   -9    1      1.15      0.00
    1   -9    1     -0.12      0.00
    2   -9    1      0.30      0.00
    3   -9    1     -0.14      0.00
    4   -9    1     -0.41      0.00
    5   -9    1     -0.39      0.00
   -6   -8    1      0.12      0.00
   -5   -8    1      0.12      0.00
   -4   -8    1      1.05      0.00
   -3   -8    1     -0.15      0.00
   -2   -8    1     -0.71      0.00
   -1   -8    1     -0.49      0.00
    0   -8    1     -2.16      0.00
    1   -8    1     -0.17      0.00
    2   -8    1     -0.32      0.00
    3   -8    1      0.15      0.00
    4   -8    1      0.50      0.00
    5   -8    1      0.48      0.00
    6   -8    1      0.03      0.00
   -7   -7    1      0.56      0.00
   -6   -7    1     -0.03      0.00
   -5   -7    1     -0.07      0.00
   -4   -7    1     -1.14      0.00
   -3   -7    1      0.08      0.00
   -2   -7    1      0.96      0.00
   -1   -7    1      0.62      0.00
    0   -7    1      3.35      0.00
    1   -7    1      0.60      0.00
    2   -7    1      0.49      0.00
    3   -7    1     -0.15      0.00
    4   -7    1     -0.50      0.00
    5   -7    1     -0.55      0.00
    6   -7    1     -0.06      0.00
   -7   -6    1     -0.35      0.00
   -6   -6    1     -0.03      0.00
   -5   -6    1      0.06      0.00
   -4   -6    1      1.14      0.00
   -3   -6    1     -0.19      0.00
   -2   -6    1     -1.15      0.00
   -1   -6    1     -0.84      0.00
    0   -6    1     -4.97      0.00
    1   -6    1     -1.11      0.00
    2   -6    1     -0.68      0.00
    3   -6    1      0.05      0.00
    4   -6    1      0.50      0.00
    5   -6    1      0.66      0.00
    6   -6    1      0.18      0.00
    7   -6    1     -0.27      0.00
   -7   -5    1     -0.03      0.00
   -6   -5    1      0.01      0.00
   -5   -5    1     -0.14      0.00
   -4   -5    1     -1.15      0.00
   -3   -5    1      0.35      0.00
   -2   -5    1      1.21      0.00
   -1   -5    1      1.33      0.00
    0   -5    1      7.17      0.00
    1   -5    1      1.57      0.00
    2   -5    1      0.63      0.00
    3   -5    1      0.03      0.00
    4   -5    1     -0.52      0.00
    5   -5    1     -0.75      0.00
    6   -5    1     -0.32      0.00
    7   -5    1      0.06      0.00
   -8   -4    1     -0.24      0.00
   -7   -4    1      0.23      0.00
   -6   -4    1      0.02      0.00
   -5   -4    1      0.26      0.00
   -4   -4    1      1.23      0.00
   -3   -4    1     -0.44      0.00
   -2   -4    1     -1.32      0.00
   -1   -4    1     -2.13      0.00
    0   -4    1    -10.14      0.00
    1   -4    1     -1.99      0.00
    2   -4    1     -0.29      0.00
    3   -4    1      0.11      0.00
    4   -4    1      0.56      0.00
    5   -4    1      0.70      0.00
    6   -4    1      0.30      0.00
    7   -4    1      0.22      0.00
    8   -4    1      0.35      0.00
   -8   -3    1     -0.11      0.00
   -7   -3    1     -0.21      0.00
   -6   -3    1     -0.03      0.00
   -5   -3    1     -0.30      0.00
   -4   -3    1     -1.36      0.00
   -3   -3    1      0.39      0.00
   -2   -3    1      1.51      0.00
   -1   -3    1      3.40      0.00
    0   -3    1     14.85      0.00
    1   -3    1      2.50      0.00
    2   -3    1     -0.26      0.00
    3   -3    1     -0.53      0.00
    4   -3    1     -0.60      0.00
    5   -3    1     -0.46      0.00
    6   -3    1     -0.11      0.00
    7   -3    1     -0.30      0.00
    8   -3    1     -0.29      0.00
   -8   -2    1      0.35      0.00
   -7   -2    1      0.15      0.00
   -6   -2    1      0.05      0.00
   -5   -2    1      0.28      0.00
   -4   -2    1      1.51      0.00
   -3   -2    1     -0.16      0.00
   -2   -2    1     -1.48      0.00
   -1   -2    1     -5.32      0.00
    0   -2    1    -22.42      0.00
    1   -2    1     -3.22      0.00
    2   -2    1      1.15      0.00
    3   -2    1      1.11      0.00
    4   -2    1      0.65      0.00
    5   -2    1      0.19      0.00
    6   -2    1     -0.12      0.00
    7   -2    1      0.13      0.00
    8   -2    1      0.09      0.00
   -8   -1    1     -0.29      0.00
   -7   -1    1     -0.17      0.00
   -6   -1    1     -0.10      0.00
   -5   -1    1     -0.25      0.00
   -4   -1    1     -1.61      0.00
   -3   -1    1     -0.17      0.00
   -2   -1    1      0.95      0.00
   -1   -1    1      7.63      0.00
    0   -1    1     31.82      0.00
    1   -1    1      4.05      0.00
    2   -1    1     -2.53      0.00
    3   -1    1     -1.71      0.00
    4   -1    1     -0.81      0.00
    5   -1    1     -0.01      0.00
    6   -1    1      0.24      0.00
    7   -1    1      0.05      0.00
    8   -1    1      0.13      0.00
   -8    0    1      0.07      0.00
   -7    0    1      0.18      0.00
   -6    0    1      0.13      0.00
   -5    0    1      0.21      0.00
   -4    0    1      1.51      0.00
   -3    0    1      0.52      0.00
   -2    0    1     -0.16      0.00
   -1    0    1     -9.35      0.00
    0    0    1    -38.96      0.00
    1    0    1     -4.65      0.00
    3    0    1      2.24      0.00
    4    0    1      1.09      0.00
    5    0    1     -0.04      0.00
    6    0    1     -0.23      0.00
    7    0    1     -0.04      0.00
    8    0    1     -0.26      0.00
   -8    1    1      0.05      0.00
   -7    1    1     -0.12      0.00
   -6    1    1     -0.07      0.00
   -5    1    1     -0.09      0.00
   -4    1    1     -1.19      0.00
   -3    1    1     -0.79      0.00
   -2    1    1     -0.36      0.00
   -1    1    1      9.56      0.00
    0    1    1     39.67      0.00
    1    1    1      4.77      0.00
    2    1    1     -4.36      0.00
    3    1    1     -2.61      0.00
    4    1    1     -1.38      0.00
    5    1    1      0.03      0.00
    6    1    1      0.15      0.00
    7    1    1     -0.09      0.00
    8    1    1      0.24      0.00
   -8    2    1      0.05      0.00
   -7    2    1      0.07      0.00
   -6    2    1     -0.02      0.00
   -5    2    1     -0.07      0.00
   -4    2    1      0.78      0.00
   -3    2    1      0.89      0.00
   -2    2    1      0.38      0.00
   -1    2    1     -8.36      0.00
    0    2    1    -33.72      0.00
    1    2    1     -4.36      0.00
    2    2    1      3.63      0.00
    3    2    1      2.65      0.00
    4    2    1      1.53      0.00
    5    2    1      0.01      0.00
    6    2    1     -0.06      0.00
    7    2    1      0.14      0.00
    8    2    1     -0.13      0.00
   -8    3    1     -0.29      0.00
   -7    3    1     -0.13      0.00
   -6    3    1      0.04      0.00
   -5    3    1      0.15      0.00
   -4    3    1     -0.46      0.00
   -3    3    1     -0.71      0.00
   -2    3    1     -0.10      0.00
   -1    3    1      6.67      0.00
    0    3    1     24.96      0.00
    1    3    1      3.58      0.00
    2    3    1     -2.43      0.00
    3    3    1     -2.33      0.00
    4    3    1     -1.48      0.00
    5    3    1     -0.10      0.00
    6    3    1     -0.03      0.00
    7    3    1     -0.10      0.00
    8    3    1      0.04      0.00
   -8    4    1      0.46      0.00
   -7    4    1      0.22      0.00
   -6    4    1      0.02      0.00
   -5    4    1     -0.08      0.00
   -4    4    1      0.27      0.00
   -3    4    1      0.27      0.00
   -2    4    1     -0.23      0.00
   -1    4    1     -5.25      0.00
    0    4    1    -17.48      0.00
    1    4    1     -2.63      0.00
    2    4    1      1.55      0.00
    3    4    1      1.81      0.00
    4    4    1      1.33      0.00
    5    4    1      0.17      0.00
    6    4    1      0.08      0.00
    7    4    1      0.11      0.00
    8    4    1     -0.07      0.00
   -7    5    1     -0.18      0.00
   -6    5    1     -0.10      0.00
   -5    5    1     -0.06      0.00
   -4    5    1     -0.15      0.00
   -3    5    1      0.19      0.00
   -2    5    1      0.52      0.00
   -1    5    1      4.17      0.00
    0    5    1     12.52      0.00
    1    5    1      1.71      0.00
    2    5    1     -1.06      0.00
    3    5    1     -1.31      0.00
    4    5    1     -1.19      0.00
    5    5    1     -0.14      0.00
    6    5    1     -0.07      0.00
    7    5    1     -0.21      0.00
    8    5    1      0.19      0.00
   -7    6    1     -0.03      0.00
   -6    6    1      0.11      0.00
   -5    6    1      0.18      0.00
   -4    6    1      0.09      0.00
   -3    6    1     -0.38      0.00
   -2    6    1     -0.73      0.00
   -1    6    1     -3.23      0.00
    0    6    1     -9.19      0.00
    1    6    1     -0.98      0.00
    2    6    1      0.67      0.00
    3    6    1      0.99      0.00
    4    6    1      1.06      0.00
    5    6    1      0.02      0.00
    6    6    1      0.04      0.00
    7    6    1      0.27      0.00
    8    6    1     -0.25      0.00
   -7    7    1      0.23      0.00
   -6    7    1     -0.03      0.00
   -5    7    1     -0.24      0.00
   -4    7    1     -0.12      0.00
   -3    7    1      0.29      0.00
   -2    7    1      0.80      0.00
   -1    7    1      2.43      0.00
    0    7    1      6.67      0.00
    1    7    1      0.58      0.00
    2    7    1     -0.34      0.00
    3    7    1     -0.84      0.00
    4    7    1     -0.94      0.00
    5    7    1      0.07      0.00
    6    7    1     -0.05      0.00
    7    7    1     -0.19      0.00
   -6    8    1     -0.04      0.00
   -5    8    1      0.23      0.00
   -4    8    1      0.19      0.00
   -3    8    1     -0.15      0.00
   -2    8    1     -0.73      0.00
   -1    8    1     -1.80      0.00
    0    8    1     -4.84      0.00
    1    8    1     -0.46      0.00
    2    8    1      0.21      0.00
    3    8    1      0.75      0.00
    4    8    1      0.89      0.00
    5    8    1     -0.05      0.00
    6    8    1      0.10      0.00
    7    8    1      0.04      0.00
   -5    9    1     -0.18      0.00
   -4    9    1     -0.25      0.00
   -3    9    1      0.10      0.00
   -2    9    1      0.60      0.00
   -1    9    1      1.28      0.00
    0    9    1      3.58      0.00
    1    9    1      0.43      0.00
    2    9    1     -0.15      0.00
    3    9    1     -0.57      0.00
    4    9    1     -0.94      0.00
    5    9    1     -0.04      0.00
    6    9    1     -0.11      0.00
   -5   10    1      0.10      0.00
   -4   10    1      0.24      0.00
   -3   10    1     -0.07      0.00
   -2   10    1     -0.46      0.00
   -1   10    1     -0.81      0.00
    0   10    1     -2.54      0.00
    1   10    1     -0.30      0.00
    2   10    1     -0.04      0.00
    3   10    1      0.34      0.00
    4   10    1      0.92      0.00
    5   10    1      0.09      0.00
   -4   11    1     -0.17      0.00
   -3   11    1     -0.01      0.00
   -2   11    1      0.31      0.00
   -1   11    1      0.43      0.00
    0   11    1      1.56      0.00
    1   11    1      0.11      0.00
    2   11    1      0.27      0.00
    3   11    1     -0.17      0.00
    4   11    1     -0.69      0.00
   -2   12    1     -0.16      0.00
   -1   12    1     -0.19      0.00
    0   12    1     -0.75      0.00
    1   12    1      0.00      0.00
    2   12    1     -0.31      0.00
    3   12    1      0.11      0.00
   -2  -11    2     -0.55      0.00
   -1  -11    2     -0.02      0.00
    0  -11    2      0.66      0.00
    1  -11    2      0.27      0.00
    2  -11    2     -0.06      0.00
   -4  -10    2     -0.05      0.00
   -3  -10    2      0.63      0.00
   -2  -10    2      0.71      0.00
   -1  -10    2     -0.07      0.00
    0  -10    2     -0.73      0.00
    1  -10    2     -0.40      0.00
    2  -10    2      0.24      0.00
    3  -10    2     -0.26      0.00
    4  -10    2     -0.22      0.00
   -5   -9    2      0.10      0.00
   -4   -9    2      0.37      0.00
   -3   -9    2     -0.67      0.00
   -2   -9    2     -0.74      0.00
   -1   -9    2      0.03      0.00
    0   -9    2      0.23      0.00
    1   -9    2      0.44      0.00
    2   -9    2     -0.30      0.00
    3   -9    2      0.33      0.00
    4   -9    2      0.39      0.00
    5   -9    2      0.21      0.00
   -6   -8    2     -0.13      0.00
   -5   -8    2     -0.16      0.00
   -4   -8    2     -0.77      0.00
   -3   -8    2      0.57      0.00
   -2   -8    2      0.88      0.00
   -1   -8    2      0.13      0.00
    0   -8    2      0.62      0.00
    1   -8    2     -0.39      0.00
    2   -8    2      0.24      0.00
    3   -8    2     -0.32      0.00
    4   -8    2     -0.46      0.00
    5   -8    2     -0.29      0.00
    6   -8    2     -0.09      0.00
   -6   -7    2      0.02      0.00
   -5   -7    2      0.14      0.00
   -4   -7    2      1.02      0.00
   -3   -7    2     -0.51      0.00
   -2   -7    2     -1.22      0.00
   -1   -7    2     -0.25      0.00
    0   -7    2     -1.54      0.00
    1   -7    2      0.21      0.00
    2   -7    2     -0.28      0.00
    3   -7    2      0.30      0.00
    4   -7    2      0.47      0.00
    5   -7    2      0.35      0.00
    6   -7    2      0.08      0.00
   -7   -6    2      0.63      0.00
   -6   -6    2      0.11      0.00
   -5   -6    2     -0.08      0.00
   -4   -6    2     -1.05      0.00
   -3   -6    2      0.61      0.00
   -2   -6    2      1.57      0.00
   -1   -6    2      0.36      0.00
    0   -6    2      2.58      0.00
    1   -6    2      0.12      0.00
    2   -6    2      0.52      0.00
    3   -6    2     -0.28      0.00
    4   -6    2     -0.50      0.00
    5   -6    2     -0.48      0.00
    6   -6    2     -0.12      0.00
    7   -6    2      0.23      0.00
   -7   -5    2     -0.24      0.00
   -6   -5    2     -0.15      0.00
   -5   -5    2      0.09      0.00
   -4   -5    2      1.00      0.00
   -3   -5    2     -0.86      0.00
   -2   -5    2     -1.76      0.00
   -1   -5    2     -0.61      0.00
    0   -5    2     -3.92      0.00
    1   -5    2     -0.44      0.00
    2   -5    2     -0.71      0.00
    3   -5    2      0.21      0.00
    4   -5    2      0.59      0.00
    5   -5    2      0.68      0.00
    6   -5    2      0.22      0.00
    7   -5    2     -0.28      0.00
   -7   -4    2     -0.13      0.00
   -6   -4    2      0.14      0.00
   -5   -4    2     -0.18      0.00
   -4   -4    2     -1.00      0.00
   -3   -4    2      1.18      0.00
   -2   -4    2      1.94      0.00
   -1   -4    2      1.06      0.00
    0   -4    2      5.60      0.00
    1   -4    2      0.61      0.00
    2   -4    2      0.65      0.00
    3   -4    2     -0.18      0.00
    4   -4    2     -0.65      0.00
    5   -4    2     -0.82      0.00
    6   -4    2     -0.27      0.00
    7   -4    2      0.14      0.00
    8   -4    2     -0.12      0.00
   -8   -3    2      0.15      0.00
   -7   -3    2      0.18      0.00
   -6   -3    2     -0.14      0.00
   -5   -3    2      0.24      0.00
   -4   -3    2      1.07      0.00
   -3   -3    2     -1.46      0.00
   -2   -3    2     -2.33      0.00
   -1   -3    2     -1.79      0.00
    0   -3    2     -8.00      0.00
    1   -3    2     -0.72      0.00
    2   -3    2     -0.41      0.00
    3   -3    2      0.33      0.00
    4   -3    2      0.65      0.00
    5   -3    2      0.73      0.00
    6   -3    2      0.15      0.00
    7   -3    2      0.03      0.00
    8   -3    2      0.07      0.00
   -8   -2    2     -0.47      0.00
   -7   -2    2     -0.04      0.00
   -6   -2    2      0.08      0.00
   -5   -2    2     -0.22      0.00
   -4   -2    2     -1.17      0.00
   -3   -2    2      1.59      0.00
   -2   -2    2      2.87      0.00
   -1   -2    2      3.13      0.00
    0   -2    2     12.21      0.00
    1   -2    2      0.87      0.00
    2   -2    2     -0.05      0.00
    3   -2    2     -0.70      0.00
    4   -2    2     -0.62      0.00
    5   -2    2     -0.48      0.00
    6   -2    2      0.08      0.00
    7   -2    2     -0.01      0.00
    8   -2    2      0.04      0.00
   -8   -1    2      0.55      0.00
   -7   -1    2      0.01      0.00
   -6   -1    2      0.11      0.00
   -5   -1    2      0.21      0.00
   -4   -1    2      1.25      0.00
   -3   -1    2     -1.49      0.00
   -2   -1    2     -3.15      0.00
   -1   -1    2     -5.24      0.00
    0   -1    2    -18.77      0.00
    1   -1    2     -0.99      0.00
    2   -1    2      1.05      0.00
    3   -1    2      1.22      0.00
    4   -1    2      0.63      0.00
    5   -1    2      0.21      0.00
    6   -1    2     -0.23      0.00
    7   -1    2     -0.13      0.00
    8   -1    2     -0.16      0.00
   -8    0    2     -0.36      0.00
   -7    0    2     -0.13      0.00
   -6    0    2     -0.32      0.00
   -5    0    2     -0.23      0.00
   -4    0    2     -1.24      0.00
   -3    0    2      1.17      0.00
   -2    0    2      2.89      0.00
   -1    0    2      7.52      0.00
    0    0    2     25.89      0.00
    1    0    2      1.01      0.00
    3    0    2     -1.78      0.00
    4    0    2     -0.74      0.00
    5    0    2     -0.03      0.00
    6    0    2      0.23      0.00
    7    0    2      0.17      0.00
    8    0    2      0.24      0.00
   -8    1    2      0.13      0.00
   -7    1    2      0.22      0.00
   -6    1    2      0.35      0.00
   -5    1    2      0.20      0.00
   -4    1    2      1.07      0.00
   -3    1    2     -0.69      0.00
   -2    1    2     -2.21      0.00
   -1    1    2     -8.84      0.00
    0    1    2    -29.98      0.00
    1    1    2     -1.05      0.00
    2    1    2      4.05      0.00
    3    1    2      2.34      0.00
    4    1    2      0.95      0.00
    5    1    2     -0.07      0.00
    6    1    2     -0.15      0.00
    7    1    2     -0.05      0.00
    8    1    2     -0.28      0.00
   -8    2    2     -0.05      0.00
   -7    2    2     -0.17      0.00
   -6    2    2     -0.18      0.00
   -5    2    2     -0.04      0.00
   -4    2    2     -0.78      0.00
   -3    2    2      0.17      0.00
   -2    2    2      1.51      0.00
   -1    2    2      8.66      0.00
    0    2    2     28.83      0.00
    1    2    2      1.25      0.00
    2    2    2     -4.43      0.00
    3    2    2     -2.73      0.00
    4    2    2     -1.14      0.00
    5    2    2      0.13      0.00
    6    2    2      0.09      0.00
    7    2    2     -0.08      0.00
    8    2    2      0.26      0.00
   -8    3    2      0.15      0.00
   -7    3    2      0.10      0.00
   -6    3    2      0.00      0.00
   -5    3    2     -0.14      0.00
   -4    3    2      0.46      0.00
   -3    3    2      0.14      0.00
   -2    3    2     -1.04      0.00
   -1    3    2     -7.51      0.00
    1    3    2     -1.48      0.00
    2    3    2      3.79      0.00
    3    3    2      2.77      0.00
    4    3    2      1.20      0.00
    5    3    2     -0.10      0.00
    6    3    2     -0.04      0.00
    7    3    2      0.08      0.00
    8    3    2     -0.17      0.00
   -8    4    2     -0.28      0.00
   -7    4    2     -0.10      0.00
   -6    4    2      0.04      0.00
   -5    4    2      0.23      0.00
   -4    4    2     -0.22      0.00
   -3    4    2     -0.07      0.00
   -2    4    2      0.83      0.00
   -1    4    2      6.22      0.00
    0    4    2     17.83      0.00
    1    4    2      1.43      0.00
    2    4    2     -2.88      0.00
    3    4    2     -2.42      0.00
    4    4    2     -1.13      0.00
    5    4    2     -0.01      0.00
    6    4    2     -0.02      0.00
    7    4    2     -0.03      0.00
    8    4    2      0.08      0.00
   -7    5    2      0.15      0.00
   -6    5    2      0.01      0.00
   -5    5    2     -0.19      0.00
   -4    5    2      0.06      0.00
   -3    5    2     -0.24      0.00
   -2    5    2     -0.75      0.00
   -1    5    2     -5.08      0.00
    0    5    2    -13.31      0.00
    1    5    2     -1.02      0.00
    2    5    2      2.19      0.00
    3    5    2      1.87      0.00
    4    5    2      1.03      0.00
    5    5    2      0.10      0.00
    6    5    2      0.06      0.00
    7    5    2      0.08      0.00
    8    5    2     -0.06      0.00
   -7    6    2     -0.10      0.00
   -6    6    2     -0.06      0.00
   -5    6    2      0.11      0.00
   -4    6    2      0.04      0.00
   -3    6    2      0.48      0.00
   -2    6    2      0.75      0.00
   -1    6    2      4.01      0.00
    0    6    2     10.14      0.00
    1    6    2      0.50      0.00
    2    6    2     -1.63      0.00
    3    6    2     -1.40      0.00
    4    6    2     -0.94      0.00
    5    6    2     -0.06      0.00
    6    6    2     -0.06      0.00
    7    6    2     -0.22      0.00
    8    6    2      0.09      0.00
   -7    7    2     -0.04      0.00
   -6    7    2      0.05      0.00
   -5    7    2     -0.03      0.00
   -4    7    2     -0.09      0.00
   -3    7    2     -0.48      0.00
   -2    7    2     -0.76      0.00
   -1    7    2     -3.06      0.00
    0    7    2     -7.67      0.00
    1    7    2     -0.13      0.00
    2    7    2      1.09      0.00
    3    7    2      1.11      0.00
    4    7    2      0.82      0.00
    5    7    2     -0.02      0.00
    6    7    2      0.09      0.00
    7    7    2      0.28      0.00
   -6    8    2     -0.01      0.00
   -5    8    2     -0.02      0.00
   -4    8    2      0.08      0.00
   -3    8    2      0.35      0.00
   -2    8    2      0.75      0.00
   -1    8    2      2.35      0.00
    0    8    2      5.74      0.00
    1    8    2      0.00      0.00
    2    8    2     -0.72      0.00
    3    8    2     -0.96      0.00
    4    8    2     -0.73      0.00
    5    8    2      0.04      0.00
    6    8    2     -0.14      0.00
    7    8    2     -0.20      0.00
   -5    9    2      0.01      0.00
   -4    9    2     -0.02      0.00
   -3    9    2     -0.26      0.00
   -2    9    2     -0.65      0.00
   -1    9    2     -1.88      0.00
    0    9    2     -4.42      0.00
    1    9    2     -0.03      0.00
    2    9    2      0.55      0.00
    3    9    2      0.83      0.00
    4    9    2      0.79      0.00
    5    9    2      0.05      0.00
    6    9    2      0.14      0.00
   -5   10    2      0.03      0.00
   -4   10    2     -0.07      0.00
   -3   10    2      0.19      0.00
   -2   10    2      0.50      0.00
   -1   10    2      1.44      0.00
    0   10    2      3.44      0.00
    1   10    2      0.02      0.00
    2   10    2     -0.39      0.00
    3   10    2     -0.66      0.00
    4   10    2     -0.92      0.00
    5   10    2     -0.13      0.00
    6   10    2     -0.06      0.00
   -4   11    2      0.12      0.00
   -3   11    2     -0.09      0.00
   -2   11    2     -0.35      0.00
   -1   11    2     -0.98      0.00
    0   11    2     -2.45      0.00
    1   11    2      0.08      0.00
    2   11    2      0.14      0.00
    3   11    2      0.46      0.00
    4   11    2      0.89      0.00
    5   11    2      0.14      0.00
   -2   12    2      0.21      0.00
   -1   12    2      0.57      0.00
    0   12    2      1.40      0.00
    1   12    2     -0.19      0.00
    2   12    2      0.05      0.00
    3   12    2     -0.29      0.00
    0  -11    3     -0.92      0.00
   -3  -10    3     -0.58      0.00
   -2  -10    3     -0.44      0.00
   -1  -10    3      0.25      0.00
    0  -10    3      1.43      0.00
    1  -10    3      0.42      0.00
    2  -10    3     -0.18      0.00
    3  -10    3      0.31      0.00
   -4   -9    3      0.09      0.00
   -3   -9    3      0.74      0.00
   -2   -9    3      0.53      0.00
   -1   -9    3     -0.37      0.00
    0   -9    3     -1.39      0.00
    1   -9    3     -0.51      0.00
    2   -9    3      0.33      0.00
    3   -9    3     -0.51      0.00
    4   -9    3     -0.35      0.00
   -5   -8    3      0.14      0.00
   -4   -8    3      0.24      0.00
   -3   -8    3     -0.80      0.00
   -2   -8    3     -0.72      0.00
   -1   -8    3      0.34      0.00
    0   -8    3      0.81      0.00
    1   -8    3      0.60      0.00
    2   -8    3     -0.31      0.00
    3   -8    3      0.52      0.00
    4   -8    3      0.41      0.00
    5   -8    3      0.02      0.00
   -6   -7    3     -0.07      0.00
   -5   -7    3     -0.14      0.00
   -4   -7    3     -0.60      0.00
   -3   -7    3      0.81      0.00
   -2   -7    3      1.11      0.00
   -1   -7    3     -0.26      0.00
    0   -7    3     -0.09      0.00
    1   -7    3     -0.66      0.00
    2   -7    3      0.24      0.00
    3   -7    3     -0.42      0.00
    4   -7    3     -0.38      0.00
    5   -7    3     -0.09      0.00
    6   -7    3     -0.07      0.00
   -6   -6    3     -0.10      0.00
   -5   -6    3      0.07      0.00
   -4   -6    3      0.80      0.00
   -3   -6    3     -0.84      0.00
   -2   -6    3     -1.55      0.00
   -1   -6    3      0.24      0.00
    0   -6    3     -0.55      0.00
    1   -6    3      0.56      0.00
    2   -6    3     -0.37      0.00
    3   -6    3      0.39      0.00
    4   -6    3      0.39      0.00
    5   -6    3      0.16      0.00
    6   -6    3      0.05      0.00
    7   -6    3     -0.04      0.00
   -7   -5    3      0.38      0.00
   -6   -5    3      0.22      0.00
   -5   -5    3     -0.02      0.00
   -4   -5    3     -0.81      0.00
   -3   -5    3      0.98      0.00
   -2   -5    3      1.83      0.00
   -1   -5    3     -0.18      0.00
    0   -5    3      1.19      0.00
    1   -5    3     -0.36      0.00
    2   -5    3      0.66      0.00
    3   -5    3     -0.41      0.00
    4   -5    3     -0.50      0.00
    5   -5    3     -0.33      0.00
    6   -5    3     -0.04      0.00
    7   -5    3      0.29      0.00
   -7   -4    3     -0.01      0.00
   -6   -4    3     -0.25      0.00
   -5   -4    3      0.07      0.00
   -4   -4    3      0.77      0.00
   -3   -4    3     -1.31      0.00
   -2   -4    3     -1.99      0.00
   -1   -4    3      0.03      0.00
    0   -4    3     -1.93      0.00
    1   -4    3      0.25      0.00
    2   -4    3     -0.87      0.00
    3   -4    3      0.37      0.00
    4   -4    3      0.63      0.00
    5   -4    3      0.57      0.00
    6   -4    3      0.07      0.00
    7   -4    3     -0.42      0.00
    8   -4    3     -0.03      0.00
   -7   -3    3     -0.09      0.00
   -6   -3    3      0.28      0.00
   -5   -3    3     -0.15      0.00
   -4   -3    3     -0.76      0.00
   -3   -3    3      1.80      0.00
   -2   -3    3      2.31      0.00
   -1   -3    3      0.20      0.00
    0   -3    3      2.79      0.00
    1   -3    3     -0.27      0.00
    2   -3    3      0.95      0.00
    3   -3    3     -0.33      0.00
    4   -3    3     -0.65      0.00
    5   -3    3     -0.70      0.00
    6   -3    3     -0.06      0.00
    7   -3    3      0.34      0.00
    8   -3    3      0.12      0.00
   -8   -2    3      0.42      0.00
   -7   -2    3     -0.10      0.00
   -6   -2    3     -0.25      0.00
   -5   -2    3      0.14      0.00
   -4   -2    3      0.79      0.00
   -3   -2    3     -2.27      0.00
   -2   -2    3     -2.93      0.00
   -1   -2    3     -0.74      0.00
    0   -2    3     -4.30      0.00
    1   -2    3      0.36      0.00
    2   -2    3     -0.96      0.00
    3   -2    3      0.41      0.00
    4   -2    3      0.57      0.00
    5   -2    3      0.63      0.00
    6   -2    3     -0.04      0.00
    7   -2    3     -0.24      0.00
    8   -2    3     -0.21      0.00
   -8   -1    3     -0.57      0.00
   -7   -1    3      0.25      0.00
   -6   -1    3      0.04      0.00
   -5   -1    3     -0.09      0.00
   -4   -1    3     -0.80      0.00
   -3   -1    3      2.52      0.00
   -2   -1    3      3.63      0.00
   -1   -1    3      1.97      0.00
    0   -1    3      7.40      0.00
    1   -1    3     -0.58      0.00
    2   -1    3      0.69      0.00
    3   -1    3     -0.65      0.00
    4   -1    3     -0.49      0.00
    5   -1    3     -0.44      0.00
    6   -1    3      0.13      0.00
    7   -1    3      0.24      0.00
    8   -1    3      0.23      0.00
   -8    0    3      0.50      0.00
   -7    0    3     -0.10      0.00
   -6    0    3      0.30      0.00
   -5    0    3      0.10      0.00
   -4    0    3      0.77      0.00
   -3    0    3     -2.47      0.00
   -2    0    3     -3.98      0.00
   -1    0    3     -3.89      0.00
    0    0    3    -12.18      0.00
    1    0    3      1.02      0.00
    2    0    3      0.28      0.00
    3    0    3      0.98      0.00
    4    0    3      0.49      0.00
    5    0    3      0.26      0.00
    6    0    3     -0.13      0.00
    7    0    3     -0.27      0.00
    8    0    3     -0.20      0.00
   -8    1    3     -0.29      0.00
   -7    1    3     -0.15      0.00
   -6    1    3     -0.48      0.00
   -5    1    3     -0.15      0.00
   -4    1    3     -0.69      0.00
   -3    1    3      2.11      0.00
   -2    1    3      3.75      0.00
   -1    1    3      5.77      0.00
    0    1    3     16.89      0.00
    1    1    3     -1.46      0.00
    2    1    3     -1.82      0.00
    3    1    3     -1.39      0.00
    4    1    3     -0.58      0.00
    5    1    3     -0.12      0.00
    6    1    3      0.07      0.00
    7    1    3      0.18      0.00
    8    1    3      0.19      0.00
   -8    2    3      0.11      0.00
   -7    2    3      0.25      0.00
   -6    2    3      0.35      0.00
   -5    2    3      0.11      0.00
   -4    2    3      0.57      0.00
   -3    2    3     -1.51      0.00
   -2    2    3     -3.07      0.00
   -1    2    3     -6.75      0.00
    0    2    3    -19.21      0.00
    1    2    3      1.49      0.00
    2    2    3      3.14      0.00
    3    2    3      1.85      0.00
    4    2    3      0.70      0.00
    5    2    3     -0.05      0.00
    6    2    3     -0.04      0.00
    7    2    3     -0.01      0.00
    8    2    3     -0.19      0.00
   -8    3    3     -0.05      0.00
   -7    3    3     -0.17      0.00
   -6    3    3     -0.08      0.00
   -5    3    3      0.04      0.00
   -4    3    3     -0.40      0.00
   -3    3    3      0.88      0.00
   -2    3    3      2.28      0.00
   -1    3    3      6.72      0.00
    0    3    3     18.33      0.00
    1    3    3     -1.02      0.00
    2    3    3     -3.59      0.00
    3    3    3     -2.19      0.00
    4    3    3     -0.77      0.00
    5    3    3      0.16      0.00
    6    3    3      0.07      0.00
    7    3    3     -0.08      0.00
    8    3    3      0.19      0.00
   -7    4    3      0.11      0.00
   -6    4    3     -0.05      0.00
   -5    4    3     -0.19      0.00
   -4    4    3      0.21      0.00
   -3    4    3     -0.51      0.00
   -2    4    3     -1.63      0.00
   -1    4    3     -6.11      0.00
    0    4    3    -15.52      0.00
    1    4    3      0.44      0.00
    2    4    3      3.31      0.00
    3    4    3      2.19      0.00
    4    4    3      0.79      0.00
    5    4    3     -0.12      0.00
    6    4    3     -0.05      0.00
    7    4    3      0.03      0.00
    8    4    3     -0.13      0.00
   -7    5    3     -0.15      0.00
   -6    5    3      0.00      0.00
   -5    5    3      0.27      0.00
   -4    5    3     -0.05      0.00
   -3    5    3      0.48      0.00
   -2    5    3      1.18      0.00
   -1    5    3      5.30      0.00
    0    5    3     12.53      0.00
    1    5    3     -0.20      0.00
    2    5    3     -2.79      0.00
    3    5    3     -1.88      0.00
    4    5    3     -0.78      0.00
    5    5    3     -0.04      0.00
    6    5    3     -0.01      0.00
    7    5    3      0.03      0.00
    8    5    3      0.06      0.00
   -7    6    3      0.21      0.00
   -6    6    3      0.09      0.00
   -5    6    3     -0.27      0.00
   -4    6    3     -0.05      0.00
   -3    6    3     -0.57      0.00
   -2    6    3     -0.89      0.00
   -1    6    3     -4.33      0.00
    0    6    3    -10.05      0.00
    1    6    3      0.29      0.00
    2    6    3      2.24      0.00
    3    6    3      1.47      0.00
    4    6    3      0.78      0.00
    5    6    3      0.12      0.00
    6    6    3      0.06      0.00
    7    6    3      0.02      0.00
    8    6    3     -0.02      0.00
   -7    7    3     -0.17      0.00
   -6    7    3     -0.09      0.00
   -5    7    3      0.23      0.00
   -4    7    3      0.13      0.00
   -3    7    3      0.58      0.00
   -2    7    3      0.73      0.00
   -1    7    3      3.32      0.00
    0    7    3      7.95      0.00
    1    7    3     -0.46      0.00
    2    7    3     -1.65      0.00
    3    7    3     -1.16      0.00
    4    7    3     -0.73      0.00
    5    7    3     -0.08      0.00
    6    7    3     -0.11      0.00
    7    7    3     -0.13      0.00
   -6    8    3      0.05      0.00
   -5    8    3     -0.15      0.00
   -4    8    3     -0.21      0.00
   -3    8    3     -0.50      0.00
   -2    8    3     -0.66      0.00
   -1    8    3     -2.53      0.00
    0    8    3     -6.16      0.00
    1    8    3      0.54      0.00
    2    8    3      1.14      0.00
    3    8    3      0.98      0.00
    4    8    3      0.63      0.00
    5    8    3      0.04      0.00
    6    8    3      0.18      0.00
    7    8    3      0.14      0.00
   -5    9    3      0.09      0.00
   -4    9    3      0.25      0.00
   -3    9    3      0.44      0.00
   -2    9    3      0.58      0.00
   -1    9    3      2.07      0.00
    0    9    3      4.88      0.00
    1    9    3     -0.51      0.00
    2    9    3     -0.87      0.00
    3    9    3     -0.87      0.00
    4    9    3     -0.60      0.00
    5    9    3     -0.07      0.00
    6    9    3     -0.21      0.00
   -5   10    3     -0.08      0.00
   -4   10    3     -0.19      0.00
   -3   10    3     -0.37      0.00
   -2   10    3     -0.42      0.00
   -1   10    3     -1.74      0.00
    0   10    3     -4.05      0.00
    1   10    3      0.42      0.00
    2   10    3      0.75      0.00
    3   10    3      0.75      0.00
    4   10    3      0.73      0.00
    5   10    3      0.14      0.00
    6   10    3      0.12      0.00
   -4   11    3      0.06      0.00
   -3   11    3      0.24      0.00
   -2   11    3      0.24      0.00
   -1   11    3      1.35      0.00
    0   11    3      3.22      0.00
    1   11    3     -0.37      0.00
    2   11    3     -0.56      0.00
    3   11    3     -0.60      0.00
    4   11    3     -0.82      0.00
    5   11    3     -0.14      0.00
   -3   12    3     -0.09      0.00
   -2   12    3     -0.13      0.00
   -1   12    3     -0.89      0.00
    0   12    3     -2.14      0.00
    1   12    3      0.37      0.00
    2   12    3      0.28      0.00
    3   12    3      0.40      0.00
    4   12    3      0.65      0.00
    0   13    3      1.02      0.00
    1   13    3     -0.31      0.00
   -2  -10    4      0.10      0.00
   -1  -10    4     -0.30      0.00
    0  -10    4     -1.58      0.00
    1  -10    4     -0.39      0.00
    2  -10    4      0.07      0.00
   -3   -9    4     -0.56      0.00
   -2   -9    4     -0.14      0.00
   -1   -9    4      0.56      0.00
    0   -9    4      2.02      0.00
    1   -9    4      0.47      0.00
    2   -9    4     -0.28      0.00
    3   -9    4      0.53      0.00
    4   -9    4      0.24      0.00
   -5   -8    4     -0.10      0.00
   -4   -8    4      0.26      0.00
   -3   -8    4      0.72      0.00
   -2   -8    4      0.27      0.00
   -1   -8    4     -0.72      0.00
    0   -8    4     -1.85      0.00
    1   -8    4     -0.53      0.00
    2   -8    4      0.40      0.00
    3   -8    4     -0.66      0.00
    4   -8    4     -0.32      0.00
    5   -8    4      0.15      0.00
   -5   -7    4      0.09      0.00
   -4   -7    4      0.01      0.00
   -3   -7    4     -0.85      0.00
   -2   -7    4     -0.61      0.00
   -1   -7    4      0.78      0.00
    0   -7    4      1.35      0.00
    1   -7    4      0.67      0.00
    2   -7    4     -0.37      0.00
    3   -7    4      0.55      0.00
    4   -7    4      0.31      0.00
    5   -7    4     -0.05      0.00
    6   -7    4      0.03      0.00
   -6   -6    4     -0.04      0.00
   -5   -6    4     -0.04      0.00
   -4   -6    4     -0.32      0.00
   -3   -6    4      0.89      0.00
   -2   -6    4      1.09      0.00
   -1   -6    4     -0.84      0.00
    0   -6    4     -0.94      0.00
    1   -6    4     -0.76      0.00
    2   -6    4      0.38      0.00
    3   -6    4     -0.44      0.00
    4   -6    4     -0.29      0.00
    5   -6    4     -0.01      0.00
    6   -6    4     -0.03      0.00
   -6   -5    4     -0.08      0.00
   -5   -5    4     -0.01      0.00
   -4   -5    4      0.52      0.00
   -3   -5    4     -0.85      0.00
   -2   -5    4     -1.45      0.00
   -1   -5    4      0.89      0.00
    0   -5    4      0.70      0.00
    1   -5    4      0.70      0.00
    2   -5    4     -0.58      0.00
    3   -5    4      0.47      0.00
    4   -5    4      0.37      0.00
    5   -5    4      0.05      0.00
    6   -5    4     -0.07      0.00
    7   -5    4     -0.10      0.00
   -7   -4    4      0.07      0.00
   -6   -4    4      0.15      0.00
   -5   -4    4      0.00      0.00
   -4   -4    4     -0.57      0.00
   -3   -4    4      0.96      0.00
   -2   -4    4      1.62      0.00
   -1   -4    4     -0.88      0.00
    0   -4    4     -0.52      0.00
    1   -4    4     -0.59      0.00
    2   -4    4      0.90      0.00
    3   -4    4     -0.52      0.00
    4   -4    4     -0.53      0.00
    5   -4    4     -0.19      0.00
    6   -4    4      0.14      0.00
    7   -4    4      0.38      0.00
   -6   -3    4     -0.22      0.00
   -5   -3    4      0.08      0.00
   -4   -3    4      0.53      0.00
   -3   -3    4     -1.39      0.00
   -2   -3    4     -1.81      0.00
   -1   -3    4      0.91      0.00
    0   -3    4      0.38      0.00
    1   -3    4      0.56      0.00
    2   -3    4     -1.19      0.00
    3   -3    4      0.46      0.00
    4   -3    4      0.63      0.00
    5   -3    4      0.41      0.00
    6   -3    4     -0.12      0.00
    7   -3    4     -0.48      0.00
    8   -3    4     -0.16      0.00
   -7   -2    4      0.17      0.00
   -6   -2    4      0.28      0.00
   -5   -2    4     -0.10      0.00
   -4   -2    4     -0.48      0.00
   -3   -2    4      2.04      0.00
   -2   -2    4      2.23      0.00
   -1   -2    4     -0.93      0.00
    0   -2    4     -0.20      0.00
    1   -2    4     -0.61      0.00
    2   -2    4      1.49      0.00
    3   -2    4     -0.33      0.00
    4   -2    4     -0.57      0.00
    5   -2    4     -0.55      0.00
    6   -2    4      0.06      0.00
    7   -2    4      0.40      0.00
    8   -2    4      0.29      0.00
   -7   -1    4     -0.42      0.00
   -6   -1    4     -0.20      0.00
   -5   -1    4      0.04      0.00
   -4   -1    4      0.44      0.00
   -3   -1    4     -2.61      0.00
   -2   -1    4     -2.89      0.00
   -1   -1    4      0.61      0.00
    0   -1    4     -0.63      0.00
    1   -1    4      0.77      0.00
    2   -1    4     -1.73      0.00
    3   -1    4      0.29      0.00
    4   -1    4      0.44      0.00
    5   -1    4      0.55      0.00
    6   -1    4     -0.03      0.00
    7   -1    4     -0.31      0.00
    8   -1    4     -0.31      0.00
   -8    0    4     -0.38      0.00
   -7    0    4      0.37      0.00
   -6    0    4     -0.08      0.00
   -5    0    4      0.03      0.00
   -4    0    4     -0.35      0.00
   -3    0    4      2.89      0.00
   -2    0    4      3.49      0.00
   -1    0    4      0.41      0.00
    0    0    4      2.81      0.00
    1    0    4     -1.21      0.00
    2    0    4      1.56      0.00
    3    0    4     -0.33      0.00
    4    0    4     -0.36      0.00
    5    0    4     -0.48      0.00
    6    0    4     -0.01      0.00
    7    0    4      0.29      0.00
    8    0    4      0.21      0.00
   -8    1    4      0.30      0.00
   -7    1    4     -0.07      0.00
   -6    1    4      0.35      0.00
   -5    1    4      0.00      0.00
   -4    1    4      0.26      0.00
   -3    1    4     -2.86      0.00
   -2    1    4     -3.72      0.00
   -1    1    4     -1.99      0.00
    0    1    4     -6.19      0.00
    1    1    4      1.93      0.00
    2    1    4     -0.64      0.00
    3    1    4      0.44      0.00
    4    1    4      0.36      0.00
    5    1    4      0.39      0.00
    6    1    4      0.05      0.00
    7    1    4     -0.26      0.00
    8    1    4     -0.08      0.00
   -8    2    4     -0.15      0.00
   -7    2    4     -0.16      0.00
   -6    2    4     -0.32      0.00
   -5    2    4     -0.05      0.00
   -4    2    4     -0.22      0.00
   -3    2    4      2.50      0.00
   -2    2    4      3.48      0.00
   -1    2    4      3.51      0.00
    0    2    4      9.49      0.00
    1    2    4     -2.51      0.00
    2    2    4     -0.79      0.00
    3    2    4     -0.66      0.00
    4    2    4     -0.38      0.00
    5    2    4     -0.23      0.00
    6    2    4     -0.04      0.00
    7    2    4      0.11      0.00
    8    2    4      0.01      0.00
   -7    3    4      0.16      0.00
   -6    3    4      0.06      0.00
   -5    3    4      0.03      0.00
   -4    3    4      0.21      0.00
   -3    3    4     -1.92      0.00
   -2    3    4     -2.93      0.00
   -1    3    4     -4.46      0.00
    0    3    4    -11.31      0.00
    1    3    4      2.55      0.00
    2    3    4      2.02      0.00
    3    3    4      0.99      0.00
    4    3    4      0.37      0.00
    5    3    4      0.00      0.00
    6    3    4     -0.04      0.00
    7    3    4      0.06      0.00
    8    3    4     -0.02      0.00
   -7    4    4     -0.09      0.00
   -6    4    4      0.12      0.00
   -5    4    4      0.10      0.00
   -4    4    4     -0.16      0.00
   -3    4    4      1.33      0.00
   -2    4    4      2.28      0.00
   -1    4    4      4.77      0.00
    0    4    4     11.35      0.00
    1    4    4     -2.10      0.00
    2    4    4     -2.60      0.00
    3    4    4     -1.25      0.00
    4    4    4     -0.38      0.00
    5    4    4      0.10      0.00
    6    4    4      0.11      0.00
    7    4    4     -0.09      0.00
    8    4    4      0.04      0.00
   -7    5    4      0.14      0.00
   -6    5    4     -0.04      0.00
   -5    5    4     -0.26      0.00
   -4    5    4      0.05      0.00
   -3    5    4     -0.95      0.00
   -2    5    4     -1.66      0.00
   -1    5    4     -4.57      0.00
    0    5    4    -10.29      0.00
    1    5    4      1.57      0.00
    2    5    4      2.60      0.00
    3    5    4      1.30      0.00
    4    5    4      0.45      0.00
    5    5    4      0.00      0.00
    6    5    4     -0.09      0.00
    7    5    4     -0.03      0.00
    8    5    4     -0.03      0.00
   -7    6    4     -0.25      0.00
   -6    6    4     -0.13      0.00
   -5    6    4      0.36      0.00
   -4    6    4      0.05      0.00
   -3    6    4      0.76      0.00
   -2    6    4      1.15      0.00
   -1    6    4      3.98      0.00
    0    6    4      8.87      0.00
    1    6    4     -1.24      0.00
    2    6    4     -2.29      0.00
    3    6    4     -1.17      0.00
    4    6    4     -0.57      0.00
    5    6    4     -0.14      0.00
    6    6    4      0.03      0.00
    7    6    4      0.13      0.00
    8    6    4     -0.01      0.00
   -6    7    4      0.17      0.00
   -5    7    4     -0.37      0.00
   -4    7    4     -0.11      0.00
   -3    7    4     -0.65      0.00
   -2    7    4     -0.83      0.00
   -1    7    4     -3.16      0.00
    0    7    4     -7.37      0.00
    1    7    4      1.07      0.00
    2    7    4      1.82      0.00
    3    7    4      1.01      0.00
    4    7    4      0.64      0.00
    5    7    4      0.16      0.00
    6    7    4      0.05      0.00
    7    7    4     -0.10      0.00
    8    7    4      0.02      0.00
   -6    8    4     -0.09      0.00
   -5    8    4      0.30      0.00
   -4    8    4      0.21      0.00
   -3    8    4      0.57      0.00
   -2    8    4      0.67      0.00
   -1    8    4      2.41      0.00
    0    8    4      5.94      0.00
    1    8    4     -0.99      0.00
    2    8    4     -1.34      0.00
    3    8    4     -0.89      0.00
    4    8    4     -0.59      0.00
    5    8    4     -0.10      0.00
    6    8    4     -0.14      0.00
    7    8    4      0.04      0.00
   -5    9    4     -0.18      0.00
   -4    9    4     -0.34      0.00
   -3    9    4     -0.55      0.00
   -2    9    4     -0.55      0.00
   -1    9    4     -1.94      0.00
    0    9    4     -4.86      0.00
    1    9    4      0.93      0.00
    2    9    4      1.04      0.00
    3    9    4      0.78      0.00
    4    9    4      0.49      0.00
    5    9    4      0.08      0.00
    6    9    4      0.21      0.00
    7    9    4     -0.03      0.00
   -5   10    4      0.09      0.00
   -4   10    4      0.38      0.00
   -3   10    4      0.52      0.00
   -2   10    4      0.36      0.00
   -1   10    4      1.69      0.00
    0   10    4      4.20      0.00
    1   10    4     -0.85      0.00
    2   10    4     -0.96      0.00
    3   10    4     -0.68      0.00
    4   10    4     -0.49      0.00
    5   10    4     -0.10      0.00
    6   10    4     -0.18      0.00
   -4   11    4     -0.26      0.00
   -3   11    4     -0.39      0.00
   -2   11    4     -0.13      0.00
   -1   11    4     -1.43      0.00
    0   11    4     -3.62      0.00
    1   11    4      0.71      0.00
    2   11    4      0.88      0.00
    3   11    4      0.57      0.00
    4   11    4      0.57      0.00
    5   11    4      0.08      0.00
   -3   12    4      0.19      0.00
   -2   12    4      0.00      0.00
   -1   12    4      1.04      0.00
    0   12    4      2.70      0.00
    1   12    4     -0.54      0.00
    2   12    4     -0.62      0.00
    3   12    4     -0.40      0.00
    4   12    4     -0.52      0.00
    0   13    4     -1.51      0.00
    1   13    4      0.37      0.00
    2   13    4      0.31      0.00
   -2   -9    5     -0.13      0.00
   -1   -9    5     -0.49      0.00
    0   -9    5     -1.97      0.00
    1   -9    5     -0.41      0.00
    2   -9    5      0.18      0.00
    3   -9    5     -0.36      0.00
   -4   -8    5     -0.41      0.00
   -3   -8    5     -0.41      0.00
   -2   -8    5      0.16      0.00
   -1   -8    5      0.81      0.00
    0   -8    5      2.28      0.00
    1   -8    5      0.38      0.00
    2   -8    5     -0.40      0.00
    3   -8    5      0.61      0.00
    4   -8    5      0.17      0.00
   -5   -7    5     -0.04      0.00
   -4   -7    5      0.40      0.00
   -3   -7    5      0.61      0.00
   -2   -7    5     -0.01      0.00
   -1   -7    5     -1.06      0.00
    0   -7    5     -2.11      0.00
    1   -7    5     -0.41      0.00
    2   -7    5      0.52      0.00
    3   -7    5     -0.63      0.00
    4   -7    5     -0.23      0.00
    5   -7    5      0.02      0.00
   -5   -6    5     -0.03      0.00
   -4   -6    5     -0.19      0.00
   -3   -6    5     -0.73      0.00
   -2   -6    5     -0.34      0.00
   -1   -6    5      1.26      0.00
    0   -6    5      1.84      0.00
    1   -6    5      0.54      0.00
    2   -6    5     -0.53      0.00
    3   -6    5      0.50      0.00
    4   -6    5      0.24      0.00
    5   -6    5      0.06      0.00
    6   -6    5      0.03      0.00
   -6   -5    5     -0.12      0.00
   -5   -5    5      0.06      0.00
   -4   -5    5     -0.14      0.00
   -3   -5    5      0.64      0.00
   -2   -5    5      0.72      0.00
   -1   -5    5     -1.38      0.00
    0   -5    5     -1.75      0.00
    1   -5    5     -0.62      0.00
    2   -5    5      0.61      0.00
    3   -5    5     -0.46      0.00
    4   -5    5     -0.24      0.00
    5   -5    5      0.00      0.00
    6   -5    5      0.08      0.00
    7   -5    5     -0.09      0.00
   -6   -4    5      0.09      0.00
   -5   -4    5     -0.04      0.00
   -4   -4    5      0.38      0.00
   -3   -4    5     -0.48      0.00
   -2   -4    5     -0.96      0.00
   -1   -4    5      1.39      0.00
    0   -4    5      1.81      0.00
    1   -4    5      0.56      0.00
    2   -4    5     -0.86      0.00
    3   -4    5      0.54      0.00
    4   -4    5      0.35      0.00
    5   -4    5     -0.06      0.00
    6   -4    5     -0.23      0.00
    7   -4    5     -0.12      0.00
   -7   -3    5     -0.05      0.00
   -6   -3    5     -0.03      0.00
   -5   -3    5     -0.03      0.00
   -4   -3    5     -0.41      0.00
   -3   -3    5      0.62      0.00
   -2   -3    5      1.07      0.00
   -1   -3    5     -1.42      0.00
    0   -3    5     -1.92      0.00
    1   -3    5     -0.44      0.00
    2   -3    5      1.22      0.00
    3   -3    5     -0.55      0.00
    4   -3    5     -0.51      0.00
    5   -3    5     -0.05      0.00
    6   -3    5      0.29      0.00
    7   -3    5      0.30      0.00
   -7   -2    5     -0.10      0.00
   -5   -2    5      0.08      0.00
   -4   -2    5      0.31      0.00
   -3   -2    5     -1.17      0.00
   -2   -2    5     -1.27      0.00
   -1   -2    5      1.62      0.00
    0   -2    5      2.07      0.00
    1   -2    5      0.34      0.00
    2   -2    5     -1.61      0.00
    3   -2    5      0.40      0.00
    4   -2    5      0.57      0.00
    5   -2    5      0.27      0.00
    6   -2    5     -0.20      0.00
    7   -2    5     -0.33      0.00
    8   -2    5     -0.23      0.00
   -7   -1    5      0.36      0.00
   -6   -1    5      0.23      0.00
   -5   -1    5     -0.04      0.00
   -4   -1    5     -0.22      0.00
   -3   -1    5      1.88      0.00
   -2   -1    5      1.69      0.00
   -1   -1    5     -1.85      0.00
    0   -1    5     -2.11      0.00
    1   -1    5     -0.30      0.00
    2   -1    5      2.05      0.00
    3   -1    5     -0.19      0.00
    4   -1    5     -0.49      0.00
    5   -1    5     -0.45      0.00
    6   -1    5      0.06      0.00
    7   -1    5      0.27      0.00
    8   -1    5      0.35      0.00
   -7    0    5     -0.43      0.00
   -6    0    5     -0.18      0.00
   -5    0    5     -0.05      0.00
   -4    0    5      0.13      0.00
   -3    0    5     -2.43      0.00
   -2    0    5     -2.21      0.00
   -1    0    5      1.70      0.00
    0    0    5      1.51      0.00
    1    0    5      0.47      0.00
    2    0    5     -2.37      0.00
    3    0    5      0.01      0.00
    4    0    5      0.37      0.00
    5    0    5      0.52      0.00
    6    0    5      0.04      0.00
    7    0    5     -0.24      0.00
    8    0    5     -0.29      0.00
   -7    1    5      0.22      0.00
   -6    1    5     -0.01      0.00
   -5    1    5      0.11      0.00
   -4    1    5     -0.02      0.00
   -3    1    5      2.70      0.00
   -2    1    5      2.63      0.00
   -1    1    5     -0.91      0.00
    0    1    5      0.20      0.00
    1    1    5     -1.02      0.00
    2    1    5      2.19      0.00
    3    1    5      0.13      0.00
    4    1    5     -0.32      0.00
    5    1    5     -0.53      0.00
    6    1    5     -0.08      0.00
    7    1    5      0.26      0.00
    8    1    5      0.10      0.00
   -7    2    5      0.00      0.00
   -6    2    5      0.07      0.00
   -5    2    5     -0.05      0.00
   -4    2    5     -0.06      0.00
   -3    2    5     -2.72      0.00
   -2    2    5     -2.79      0.00
   -1    2    5     -0.35      0.00
    0    2    5     -2.76      0.00
    1    2    5      1.83      0.00
    2    2    5     -1.30      0.00
    3    2    5     -0.20      0.00
    4    2    5      0.28      0.00
    5    2    5      0.45      0.00
    6    2    5      0.06      0.00
    7    2    5     -0.21      0.00
    8    2    5      0.09      0.00
   -7    3    5     -0.02      0.00
   -6    3    5      0.10      0.00
   -5    3    5     -0.02      0.00
   -4    3    5      0.03      0.00
   -3    3    5      2.48      0.00
   -2    3    5      2.70      0.00
   -1    3    5      1.61      0.00
    0    3    5      5.21      0.00
    1    3    5     -2.49      0.00
    2    3    5      0.03      0.00
    3    3    5      0.13      0.00
    4    3    5     -0.18      0.00
    5    3    5     -0.25      0.00
    6    3    5      0.03      0.00
    7    3    5      0.04      0.00
    8    3    5     -0.17      0.00
   -7    4    5     -0.05      0.00
   -6    4    5     -0.26      0.00
   -5    4    5     -0.02      0.00
   -4    4    5      0.02      0.00
   -3    4    5     -2.02      0.00
   -2    4    5     -2.40      0.00
   -1    4    5     -2.53      0.00
    0    4    5     -6.70      0.00
    1    4    5      2.69      0.00
    2    4    5      1.04      0.00
    3    4    5      0.11      0.00
    4    4    5      0.08      0.00
    5    4    5      0.06      0.00
    6    4    5     -0.12      0.00
    8    4    5      0.14      0.00
   -7    5    5      0.01      0.00
   -6    5    5      0.18      0.00
   -5    5    5      0.18      0.00
   -4    5    5      0.01      0.00
   -3    5    5      1.51      0.00
   -2    5    5      1.93      0.00
   -1    5    5      2.95      0.00
    0    5    5      7.09      0.00
    1    5    5     -2.46      0.00
    2    5    5     -1.60      0.00
    3    5    5     -0.38      0.00
    4    5    5     -0.10      0.00
    5    5    5     -0.03      0.00
   -7    6    5      0.14      0.00
   -6    6    5      0.07      0.00
   -5    6    5     -0.35      0.00
   -4    6    5     -0.09      0.00
   -3    6    5     -1.09      0.00
   -2    6    5     -1.41      0.00
   -1    6    5     -2.90      0.00
    0    6    5     -6.74      0.00
    1    6    5      2.04      0.00
    2    6    5      1.71      0.00
    3    6    5      0.57      0.00
    4    6    5      0.28      0.00
    5    6    5      0.13      0.00
    6    6    5     -0.15      0.00
    7    6    5     -0.17      0.00
   -6    7    5     -0.20      0.00
   -5    7    5      0.43      0.00
   -4    7    5      0.14      0.00
   -3    7    5      0.80      0.00
   -2    7    5      1.00      0.00
   -1    7    5      2.52      0.00
    0    7    5      5.98      0.00
    1    7    5     -1.62      0.00
    2    7    5     -1.53      0.00
    3    7    5     -0.67      0.00
    4    7    5     -0.47      0.00
    5    7    5     -0.19      0.00
    6    7    5      0.09      0.00
    7    7    5      0.26      0.00
    8    7    5     -0.09      0.00
   -6    8    5      0.14      0.00
   -5    8    5     -0.39      0.00
   -4    8    5     -0.20      0.00
   -3    8    5     -0.65      0.00
   -2    8    5     -0.78      0.00
   -1    8    5     -2.06      0.00
    0    8    5     -5.09      0.00
    1    8    5      1.32      0.00
    2    8    5      1.24      0.00
    3    8    5      0.70      0.00
    4    8    5      0.53      0.00
    5    8    5      0.14      0.00
    6    8    5      0.00      0.00
    7    8    5     -0.21      0.00
   -5    9    5      0.26      0.00
   -4    9    5      0.32      0.00
   -3    9    5      0.61      0.00
   -2    9    5      0.64      0.00
   -1    9    5      1.72      0.00
    0    9    5      4.33      0.00
    1    9    5     -1.19      0.00
    2    9    5     -1.01      0.00
    3    9    5     -0.64      0.00
    4    9    5     -0.45      0.00
    5    9    5     -0.07      0.00
    6    9    5     -0.10      0.00
    7    9    5      0.12      0.00
   -5   10    5     -0.11      0.00
   -4   10    5     -0.43      0.00
   -3   10    5     -0.60      0.00
   -2   10    5     -0.43      0.00
   -1   10    5     -1.53      0.00
    0   10    5     -3.87      0.00
    1   10    5      1.15      0.00
    2   10    5      0.96      0.00
    3   10    5      0.54      0.00
    4   10    5      0.36      0.00
    5   10    5      0.05      0.00
    6   10    5      0.15      0.00
   -4   11    5      0.38      0.00
   -3   11    5      0.49      0.00
   -2   11    5      0.16      0.00
   -1   11    5      1.34      0.00
    0   11    5      3.50      0.00
    1   11    5     -1.03      0.00
    2   11    5     -0.98      0.00
    3   11    5     -0.43      0.00
    4   11    5     -0.33      0.00
    5   11    5     -0.02      0.00
   -3   12    5     -0.27      0.00
   -2   12    5      0.03      0.00
   -1   12    5     -1.05      0.00
    0   12    5     -2.82      0.00
    1   12    5      0.77      0.00
    2   12    5      0.83      0.00
    3   12    5      0.32      0.00
    4   12    5      0.31      0.00
   -1   13    5      0.63      0.00
    0   13    5      1.74      0.00
    1   13    5     -0.43      0.00
    2   13    5     -0.49      0.00
   -1   -9    6      0.24      0.00
    0   -9    6      1.40      0.00
    1   -9    6      0.33      0.00
    2   -9    6     -0.12      0.00
   -3   -8    6      0.09      0.00
   -2   -8    6     -0.28      0.00
   -1   -8    6     -0.60      0.00
    0   -8    6     -2.12      0.00
    1   -8    6     -0.30      0.00
    2   -8    6      0.32      0.00
    3   -8    6     -0.35      0.00
    4   -8    6     -0.01      0.00
   -4   -7    6     -0.42      0.00
   -3   -7    6     -0.21      0.00
   -2   -7    6      0.37      0.00
   -1   -7    6      0.97      0.00
    0   -7    6      2.37      0.00
    1   -7    6      0.20      0.00
    2   -7    6     -0.52      0.00
    3   -7    6      0.53      0.00
    4   -7    6      0.08      0.00
    5   -7    6      0.04      0.00
   -5   -6    6      0.12      0.00
   -4   -6    6      0.45      0.00
   -3   -6    6      0.37      0.00
   -2   -6    6     -0.30      0.00
   -1   -6    6     -1.29      0.00
    0   -6    6     -2.28      0.00
    1   -6    6     -0.22      0.00
    2   -6    6      0.62      0.00
    3   -6    6     -0.53      0.00
    4   -6    6     -0.14      0.00
    5   -6    6     -0.10      0.00
    6   -6    6     -0.03      0.00
   -5   -5    6     -0.17      0.00
   -4   -5    6     -0.21      0.00
   -3   -5    6     -0.39      0.00
   -2   -5    6      0.07      0.00
   -1   -5    6      1.53      0.00
    0   -5    6      2.20      0.00
    1   -5    6      0.32      0.00
    2   -5    6     -0.68      0.00
    3   -5    6      0.45      0.00
    4   -5    6      0.12      0.00
    5   -5    6      0.02      0.00
    6   -5    6     -0.06      0.00
   -6   -4    6     -0.23      0.00
   -5   -4    6      0.12      0.00
   -4   -4    6     -0.16      0.00
   -3   -4    6      0.20      0.00
   -2   -4    6      0.18      0.00
   -1   -4    6     -1.58      0.00
    0   -4    6     -2.26      0.00
    1   -4    6     -0.34      0.00
    2   -4    6      0.82      0.00
    3   -4    6     -0.46      0.00
    4   -4    6     -0.09      0.00
    5   -4    6      0.17      0.00
    6   -4    6      0.22      0.00
    7   -4    6     -0.09      0.00
   -6   -3    6      0.24      0.00
   -5   -3    6     -0.03      0.00
   -4   -3    6      0.36      0.00
   -3   -3    6     -0.06      0.00
   -2   -3    6     -0.31      0.00
   -1   -3    6      1.53      0.00
    0   -3    6      2.36      0.00
    1   -3    6      0.22      0.00
    2   -3    6     -1.11      0.00
    3   -3    6      0.52      0.00
    4   -3    6      0.19      0.00
    5   -3    6     -0.25      0.00
    6   -3    6     -0.35      0.00
    7   -3    6     -0.02      0.00
   -6   -2    6     -0.11      0.00
   -5   -2    6     -0.04      0.00
   -4   -2    6     -0.31      0.00
   -3   -2    6      0.30      0.00
   -2   -2    6      0.36      0.00
   -1   -2    6     -1.62      0.00
    0   -2    6     -2.45      0.00
    1   -2    6     -0.02      0.00
    2   -2    6      1.49      0.00
    3   -2    6     -0.47      0.00
    4   -2    6     -0.37      0.00
    5   -2    6      0.11      0.00
    6   -2    6      0.37      0.00
    7   -2    6      0.10      0.00
    8   -2    6      0.10      0.00
   -7   -1    6     -0.16      0.00
   -6   -1    6     -0.13      0.00
   -5   -1    6      0.06      0.00
   -4   -1    6      0.18      0.00
   -3   -1    6     -0.88      0.00
   -2   -1    6     -0.53      0.00
   -1   -1    6      1.97      0.00
    0   -1    6      2.57      0.00
    1   -1    6     -0.20      0.00
    2   -1    6     -1.94      0.00
    3   -1    6      0.28      0.00
    4   -1    6      0.46      0.00
    5   -1    6      0.12      0.00
    6   -1    6     -0.27      0.00
    7   -1    6     -0.12      0.00
    8   -1    6     -0.28      0.00
   -7    0    6      0.25      0.00
   -6    0    6      0.31      0.00
   -5    0    6     -0.01      0.00
   -4    0    6     -0.11      0.00
   -3    0    6      1.50      0.00
   -2    0    6      0.85      0.00
   -1    0    6     -2.32      0.00
    0    0    6     -2.54      0.00
    1    0    6      0.32      0.00
    2    0    6      2.43      0.00
    3    0    6     -0.03      0.00
    4    0    6     -0.45      0.00
    5    0    6     -0.29      0.00
    6    0    6      0.15      0.00
    7    0    6      0.14      0.00
    8    0    6      0.36      0.00
   -7    1    6     -0.15      0.00
   -6    1    6     -0.31      0.00
   -5    1    6     -0.07      0.00
   -4    1    6      0.03      0.00
   -3    1    6     -1.94      0.00
   -2    1    6     -1.23      0.00
   -1    1    6      2.28      0.00
    0    1    6      1.93      0.00
    1    1    6     -0.16      0.00
    2    1    6     -2.73      0.00
    3    1    6     -0.23      0.00
    4    1    6      0.41      0.00
    5    1    6      0.38      0.00
    6    1    6     -0.08      0.00
    7    1    6     -0.22      0.00
    8    1    6     -0.24      0.00
   -7    2    6      0.01      0.00
   -6    2    6      0.24      0.00
   -5    2    6      0.09      0.00
   -4    2    6      0.08      0.00
   -3    2    6      2.23      0.00
   -2    2    6      1.54      0.00
   -1    2    6     -1.70      0.00
    0    2    6     -0.52      0.00
    1    2    6     -0.41      0.00
    2    2    6      2.52      0.00
    3    2    6      0.48      0.00
    4    2    6     -0.38      0.00
    5    2    6     -0.41      0.00
    6    2    6      0.08      0.00
    7    2    6      0.28      0.00
    8    2    6      0.01      0.00
   -7    3    6     -0.05      0.00
   -6    3    6     -0.29      0.00
   -5    3    6     -0.03      0.00
   -4    3    6     -0.14      0.00
   -3    3    6     -2.36      0.00
   -2    3    6     -1.76      0.00
   -1    3    6      0.77      0.00
    0    3    6     -1.32      0.00
    1    3    6      1.25      0.00
    2    3    6     -1.75      0.00
    3    3    6     -0.67      0.00
    4    3    6      0.27      0.00
    5    3    6      0.34      0.00
    6    3    6     -0.12      0.00
    7    3    6     -0.21      0.00
    8    3    6      0.16      0.00
   -7    4    6      0.19      0.00
   -6    4    6      0.38      0.00
   -5    4    6     -0.01      0.00
   -4    4    6      0.12      0.00
   -3    4    6      2.25      0.00
   -2    4    6      1.85      0.00
   -1    4    6      0.20      0.00
    0    4    6      2.92      0.00
    1    4    6     -1.98      0.00
    2    4    6      0.76      0.00
    3    4    6      0.67      0.00
    4    4    6     -0.07      0.00
    5    4    6     -0.19      0.00
    6    4    6      0.15      0.00
   -7    5    6     -0.20      0.00
   -6    5    6     -0.33      0.00
   -5    5    6     -0.08      0.00
   -4    5    6     -0.09      0.00
   -3    5    6     -1.90      0.00
   -2    5    6     -1.74      0.00
   -1    5    6     -0.94      0.00
    0    5    6     -3.86      0.00
    1    5    6      2.32      0.00
    2    5    6      0.06      0.00
    3    5    6     -0.45      0.00
    4    5    6     -0.06      0.00
    5    5    6      0.10      0.00
    6    5    6     -0.16      0.00
   -6    6    6      0.08      0.00
   -5    6    6      0.25      0.00
   -4    6    6      0.13      0.00
   -3    6    6      1.46      0.00
   -2    6    6      1.42      0.00
   -1    6    6      1.35      0.00
    0    6    6      4.19      0.00
    1    6    6     -2.24      0.00
    2    6    6     -0.56      0.00
    3    6    6      0.13      0.00
    4    6    6     -0.02      0.00
    5    6    6     -0.13      0.00
    6    6    6      0.17      0.00
   -6    7    6      0.14      0.00
   -5    7    6     -0.36      0.00
   -4    7    6     -0.18      0.00
   -3    7    6     -1.09      0.00
   -2    7    6     -1.08      0.00
   -1    7    6     -1.46      0.00
    0    7    6     -4.12      0.00
    1    7    6      1.89      0.00
    2    7    6      0.77      0.00
    3    7    6      0.17      0.00
    4    7    6      0.22      0.00
    5    7    6      0.19      0.00
    6    7    6     -0.18      0.00
    7    7    6     -0.34      0.00
   -6    8    6     -0.16      0.00
   -5    8    6      0.36      0.00
   -4    8    6      0.20      0.00
   -3    8    6      0.85      0.00
   -2    8    6      0.87      0.00
   -1    8    6      1.44      0.00
    0    8    6      3.84      0.00
    1    8    6     -1.50      0.00
    2    8    6     -0.78      0.00
    3    8    6     -0.36      0.00
    4    8    6     -0.37      0.00
    5    8    6     -0.17      0.00
    6    8    6      0.15      0.00
    7    8    6      0.34      0.00
   -5    9    6     -0.25      0.00
   -4    9    6     -0.26      0.00
   -3    9    6     -0.74      0.00
   -2    9    6     -0.76      0.00
   -1    9    6     -1.40      0.00
    0    9    6     -3.51      0.00
    1    9    6      1.28      0.00
    2    9    6      0.71      0.00
    3    9    6      0.41      0.00
    4    9    6      0.39      0.00
    5    9    6      0.10      0.00
    6    9    6     -0.07      0.00
    7    9    6     -0.21      0.00
   -4   10    6      0.36      0.00
   -3   10    6      0.67      0.00
   -2   10    6      0.57      0.00
   -1   10    6      1.36      0.00
    0   10    6      3.26      0.00
    1   10    6     -1.26      0.00
    2   10    6     -0.72      0.00
    3   10    6     -0.35      0.00
    4   10    6     -0.31      0.00
    5   10    6     -0.06      0.00
    6   10    6     -0.02      0.00
   -4   11    6     -0.37      0.00
   -3   11    6     -0.54      0.00
   -2   11    6     -0.29      0.00
   -1   11    6     -1.24      0.00
    0   11    6     -3.01      0.00
    1   11    6      1.25      0.00
    2   11    6      0.81      0.00
    3   11    6      0.25      0.00
    4   11    6      0.23      0.00
    5   11    6      0.02      0.00
   -2   12    6      0.06      0.00
   -1   12    6      0.99      0.00
    0   12    6      2.49      0.00
    1   12    6     -1.03      0.00
    2   12    6     -0.79      0.00
    3   12    6     -0.18      0.00
    4   12    6     -0.18      0.00
   -1   13    6     -0.62      0.00
    0   13    6     -1.60      0.00
    1   13    6      0.61      0.00
    2   13    6      0.54      0.00
   -1   -8    7      0.31      0.00
    0   -8    7      1.58      0.00
    1   -8    7      0.26      0.00
    2   -8    7     -0.21      0.00
   -3   -7    7     -0.09      0.00
   -2   -7    7     -0.35      0.00
   -1   -7    7     -0.65      0.00
    0   -7    7     -2.24      0.00
    1   -7    7     -0.16      0.00
    2   -7    7      0.37      0.00
    3   -7    7     -0.27      0.00
    4   -7    7      0.08      0.00
   -4   -6    7     -0.38      0.00
   -3   -6    7      0.04      0.00
   -2   -6    7      0.53      0.00
   -1   -6    7      0.98      0.00
    0   -6    7      2.44      0.00
    1   -6    7      0.07      0.00
    2   -6    7     -0.51      0.00
    3   -6    7      0.40      0.00
    4   -6    7     -0.04      0.00
    5   -6    7      0.02      0.00
   -5   -5    7      0.30      0.00
   -4   -5    7      0.36      0.00
   -3   -5    7      0.05      0.00
   -2   -5    7     -0.57      0.00
   -1   -5    7     -1.31      0.00
    0   -5    7     -2.37      0.00
    1   -5    7     -0.08      0.00
    2   -5    7      0.61      0.00
    3   -5    7     -0.39      0.00
    4   -5    7      0.06      0.00
    5   -5    7      0.08      0.00
    6   -5    7      0.07      0.00
   -5   -4    7     -0.26      0.00
   -4   -4    7     -0.06      0.00
   -3   -4    7     -0.03      0.00
   -2   -4    7      0.45      0.00
   -1   -4    7      1.51      0.00
    0   -4    7      2.30      0.00
    1   -4    7      0.10      0.00
    2   -4    7     -0.73      0.00
    3   -4    7      0.34      0.00
    4   -4    7     -0.19      0.00
    5   -4    7     -0.27      0.00
    6   -4    7     -0.15      0.00
   -6   -3    7     -0.27      0.00
   -5   -3    7      0.14      0.00
   -4   -3    7     -0.28      0.00
   -3   -3    7     -0.09      0.00
   -2   -3    7     -0.31      0.00
   -1   -3    7     -1.49      0.00
    0   -3    7     -2.26      0.00
    1   -3    7      0.00      0.00
    2   -3    7      0.92      0.00
    3   -3    7     -0.38      0.00
    4   -3    7      0.25      0.00
    5   -3    7      0.43      0.00
    6   -3    7      0.28      0.00
    7   -3    7     -0.11      0.00
   -6   -2    7      0.22      0.00
   -5   -2    7     -0.03      0.00
   -4   -2    7      0.38      0.00
   -3   -2    7      0.08      0.00
   -2   -2    7      0.29      0.00
   -1   -2    7      1.43      0.00
    0   -2    7      2.19      0.00
    1   -2    7     -0.22      0.00
    2   -2    7     -1.19      0.00
    3   -2    7      0.44      0.00
    4   -2    7     -0.11      0.00
    5   -2    7     -0.43      0.00
    6   -2    7     -0.41      0.00
    7   -2    7      0.07      0.00
   -6   -1    7      0.00      0.00
   -5   -1    7     -0.04      0.00
   -4   -1    7     -0.30      0.00
   -3   -1    7      0.21      0.00
   -2   -1    7     -0.29      0.00
   -1   -1    7     -1.60      0.00
    0   -1    7     -2.13      0.00
    1   -1    7      0.50      0.00
    2   -1    7      1.54      0.00
    3   -1    7     -0.40      0.00
    4   -1    7     -0.12      0.00
    5   -1    7      0.28      0.00
    6   -1    7      0.47      0.00
    7   -1    7     -0.03      0.00
    8   -1    7      0.14      0.00
   -6    0    7     -0.27      0.00
   -5    0    7      0.09      0.00
   -4    0    7      0.23      0.00
   -3    0    7     -0.66      0.00
   -2    0    7      0.18      0.00
   -1    0    7      2.02      0.00
    0    0    7      2.13      0.00
    1    0    7     -0.78      0.00
    2    0    7     -2.01      0.00
    3    0    7      0.26      0.00
    4    0    7      0.30      0.00
    5    0    7     -0.12      0.00
    6    0    7     -0.44      0.00
    7    0    7     -0.01      0.00
    8    0    7     -0.30      0.00
   -7    1    7     -0.02      0.00
   -6    1    7      0.42      0.00
   -5    1    7     -0.07      0.00
   -4    1    7     -0.22      0.00
   -3    1    7      1.08      0.00
   -2    1    7      0.06      0.00
   -1    1    7     -2.39      0.00
    0    1    7     -2.00      0.00
    1    1    7      0.94      0.00
    2    1    7      2.53      0.00
    3    1    7     -0.04      0.00
    4    1    7     -0.40      0.00
    5    1    7      0.00      0.00
    6    1    7      0.37      0.00
    7    1    7      0.12      0.00
    8    1    7      0.33      0.00
   -7    2    7      0.10      0.00
   -6    2    7     -0.40      0.00
   -5    2    7     -0.01      0.00
   -4    2    7      0.13      0.00
   -3    2    7     -1.43      0.00
   -2    2    7     -0.34      0.00
   -1    2    7      2.41      0.00
    0    2    7      1.42      0.00
    1    2    7     -0.80      0.00
    2    2    7     -2.81      0.00
    3    2    7     -0.23      0.00
    4    2    7      0.47      0.00
    5    2    7      0.09      0.00
    6    2    7     -0.33      0.00
    7    2    7     -0.28      0.00
    8    2    7     -0.19      0.00
   -7    3    7     -0.04      0.00
   -6    3    7      0.35      0.00
   -5    3    7      0.04      0.00
   -4    3    7      0.02      0.00
   -3    3    7      1.75      0.00
   -2    3    7      0.62      0.00
   -1    3    7     -2.02      0.00
    0    3    7     -0.40      0.00
    1    3    7      0.28      0.00
    2    3    7      2.66      0.00
    3    3    7      0.54      0.00
    4    3    7     -0.46      0.00
    5    3    7     -0.16      0.00
    6    3    7      0.32      0.00
    7    3    7      0.33      0.00
    8    3    7      0.01      0.00
   -6    4    7     -0.35      0.00
   -5    4    7     -0.03      0.00
   -4    4    7     -0.12      0.00
   -3    4    7     -1.97      0.00
   -2    4    7     -0.90      0.00
   -1    4    7      1.40      0.00
    0    4    7     -0.71      0.00
    1    4    7      0.48      0.00
    2    4    7     -2.11      0.00
    3    4    7     -0.77      0.00
    4    4    7      0.30      0.00
    5    4    7      0.17      0.00
    6    4    7     -0.27      0.00
    7    4    7     -0.25      0.00
    8    4    7      0.08      0.00
   -6    5    7      0.33      0.00
   -5    5    7      0.06      0.00
   -4    5    7      0.11      0.00
   -3    5    7      1.92      0.00
   -2    5    7      1.10      0.00
   -1    5    7     -0.74      0.00
    0    5    7      1.53      0.00
    1    5    7     -1.17      0.00
    2    5    7      1.41      0.00
    3    5    7      0.78      0.00
    4    5    7     -0.09      0.00
    5    5    7     -0.14      0.00
    6    5    7      0.17      0.00
   -6    6    7     -0.18      0.00
   -5    6    7     -0.15      0.00
   -4    6    7     -0.10      0.00
   -3    6    7     -1.66      0.00
   -2    6    7     -1.09      0.00
   -1    6    7      0.18      0.00
    0    6    7     -2.03      0.00
    1    6    7      1.56      0.00
    2    6    7     -0.76      0.00
    3    6    7     -0.57      0.00
    4    6    7     -0.02      0.00
    5    6    7      0.14      0.00
    6    6    7     -0.12      0.00
   -6    7    7     -0.02      0.00
   -5    7    7      0.24      0.00
   -4    7    7      0.13      0.00
   -3    7    7      1.35      0.00
   -2    7    7      0.93      0.00
   -1    7    7      0.24      0.00
    0    7    7      2.34      0.00
    1    7    7     -1.59      0.00
    2    7    7      0.25      0.00
    3    7    7      0.28      0.00
    4    7    7     -0.05      0.00
    5    7    7     -0.17      0.00
    6    7    7      0.15      0.00
    7    7    7      0.37      0.00
   -5    8    7     -0.23      0.00
   -4    8    7     -0.16      0.00
   -3    8    7     -1.12      0.00
   -2    8    7     -0.80      0.00
   -1    8    7     -0.56      0.00
    0    8    7     -2.55      0.00
    1    8    7      1.38      0.00
    2    8    7      0.06      0.00
    3    8    7     -0.04      0.00
    4    8    7      0.18      0.00
    5    8    7      0.18      0.00
    6    8    7     -0.20      0.00
    7    8    7     -0.41      0.00
   -5    9    7      0.15      0.00
   -4    9    7      0.18      0.00
   -3    9    7      0.96      0.00
   -2    9    7      0.74      0.00
   -1    9    7      0.83      0.00
    0    9    7      2.63      0.00
    1    9    7     -1.17      0.00
    2    9    7     -0.20      0.00
    3    9    7     -0.09      0.00
    4    9    7     -0.27      0.00
    5    9    7     -0.16      0.00
    6    9    7      0.18      0.00
    7    9    7      0.29      0.00
   -4   10    7     -0.21      0.00
   -3   10    7     -0.79      0.00
   -2   10    7     -0.62      0.00
   -1   10    7     -1.03      0.00
    0   10    7     -2.61      0.00
    1   10    7      1.14      0.00
    2   10    7      0.29      0.00
    3   10    7      0.11      0.00
    4   10    7      0.27      0.00
    5   10    7      0.12      0.00
    6   10    7     -0.11      0.00
   -3   11    7      0.57      0.00
   -2   11    7      0.38      0.00
   -1   11    7      1.05      0.00
    0   11    7      2.44      0.00
    1   11    7     -1.21      0.00
    2   11    7     -0.43      0.00
    3   11    7     -0.06      0.00
    4   11    7     -0.21      0.00
    5   11    7     -0.07      0.00
   -2   12    7     -0.15      0.00
   -1   12    7     -0.85      0.00
    0   12    7     -2.00      0.00
    1   12    7      1.14      0.00
    2   12    7      0.53      0.00
    3   12    7      0.00      0.00
    4   12    7      0.15      0.00
    0   13    7      1.25      0.00
    1   13    7     -0.79      0.00
    2   13    7     -0.43      0.00
   -2   -7    8      0.18      0.00
   -1   -7    8      0.34      0.00
    0   -7    8      1.79      0.00
    1   -7    8      0.16      0.00
    2   -7    8     -0.18      0.00
    3   -7    8      0.03      0.00
   -3   -6    8     -0.32      0.00
   -2   -6    8     -0.41      0.00
   -1   -6    8     -0.55      0.00
    0   -6    8     -2.34      0.00
    1   -6    8     -0.09      0.00
    2   -6    8      0.26      0.00
    3   -6    8     -0.16      0.00
    4   -6    8      0.18      0.00
   -4   -5    8     -0.30      0.00
   -3   -5    8      0.33      0.00
   -2   -5    8      0.64      0.00
   -1   -5    8      0.82      0.00
    0   -5    8      2.42      0.00
    1   -5    8      0.03      0.00
    2   -5    8     -0.36      0.00
    3   -5    8      0.21      0.00
    4   -5    8     -0.22      0.00
    5   -5    8     -0.23      0.00
   -4   -4    8      0.19      0.00
   -3   -4    8     -0.23      0.00
   -2   -4    8     -0.74      0.00
   -1   -4    8     -1.13      0.00
    0   -4    8     -2.25      0.00
    1   -4    8      0.02      0.00
    2   -4    8      0.51      0.00
    3   -4    8     -0.17      0.00
    4   -4    8      0.38      0.00
    5   -4    8      0.37      0.00
    6   -4    8      0.09      0.00
   -5   -3    8     -0.25      0.00
   -4   -3    8      0.11      0.00
   -3   -3    8      0.16      0.00
   -2   -3    8      0.68      0.00
   -1   -3    8      1.32      0.00
    0   -3    8      2.05      0.00
    1   -3    8     -0.16      0.00
    2   -3    8     -0.70      0.00
    3   -3    8      0.19      0.00
    4   -3    8     -0.57      0.00
    5   -3    8     -0.47      0.00
    6   -3    8     -0.10      0.00
   -5   -2    8      0.13      0.00
   -4   -2    8     -0.34      0.00
   -3   -2    8     -0.12      0.00
   -2   -2    8     -0.63      0.00
   -1   -2    8     -1.30      0.00
    0   -2    8     -1.83      0.00
    1   -2    8      0.39      0.00
    2   -2    8      0.86      0.00
    3   -2    8     -0.30      0.00
    4   -2    8      0.60      0.00
    5   -2    8      0.52      0.00
    6   -2    8      0.21      0.00
    7   -2    8     -0.05      0.00
   -6   -1    8      0.08      0.00
   -5   -1    8     -0.03      0.00
   -4   -1    8      0.39      0.00
   -3   -1    8      0.02      0.00
   -2   -1    8      0.67      0.00
   -1   -1    8      1.28      0.00
    0   -1    8      1.59      0.00
    1   -1    8     -0.66      0.00
    2   -1    8     -1.02      0.00
    3   -1    8      0.43      0.00
    4   -1    8     -0.43      0.00
    5   -1    8     -0.50      0.00
    6   -1    8     -0.40      0.00
    7   -1    8      0.05      0.00
   -6    0    8      0.14      0.00
   -5    0    8     -0.09      0.00
   -4    0    8     -0.37      0.00
   -3    0    8      0.20      0.00
   -2    0    8     -0.71      0.00
   -1    0    8     -1.49      0.00
    0    0    8     -1.45      0.00
    1    0    8      0.95      0.00
    2    0    8      1.31      0.00
    3    0    8     -0.47      0.00
    4    0    8      0.17      0.00
    5    0    8      0.46      0.00
    6    0    8      0.53      0.00
    7    0    8     -0.06      0.00
   -6    1    8     -0.31      0.00
   -5    1    8      0.18      0.00
   -4    1    8      0.40      0.00
   -3    1    8     -0.46      0.00
   -2    1    8      0.62      0.00
   -1    1    8      1.88      0.00
    0    1    8      1.39      0.00
    1    1    8     -1.23      0.00
    2    1    8     -1.80      0.00
    3    1    8      0.42      0.00
    4    1    8      0.08      0.00
    5    1    8     -0.40      0.00
    6    1    8     -0.53      0.00
    7    1    8      0.00      0.00
    8    1    8     -0.25      0.00
   -6    2    8      0.33      0.00
   -5    2    8     -0.14      0.00
   -4    2    8     -0.39      0.00
   -3    2    8      0.71      0.00
   -2    2    8     -0.44      0.00
   -1    2    8     -2.16      0.00
    0    2    8     -1.22      0.00
    1    2    8      1.40      0.00
    2    2    8      2.33      0.00
    3    2    8     -0.27      0.00
    4    2    8     -0.30      0.00
    5    2    8      0.31      0.00
    6    2    8      0.49      0.00
    7    2    8      0.16      0.00
    8    2    8      0.25      0.00
   -6    3    8     -0.24      0.00
   -5    3    8      0.02      0.00
   -4    3    8      0.22      0.00
   -3    3    8     -1.01      0.00
   -2    3    8      0.24      0.00
   -1    3    8      2.18      0.00
    0    3    8      0.75      0.00
    1    3    8     -1.32      0.00
    2    3    8     -2.63      0.00
    3    3    8      0.02      0.00
    4    3    8      0.45      0.00
    5    3    8     -0.18      0.00
    6    3    8     -0.46      0.00
    7    3    8     -0.31      0.00
    8    3    8     -0.15      0.00
   -6    4    8      0.16      0.00
   -5    4    8      0.08      0.00
   -4    4    8     -0.02      0.00
   -3    4    8      1.35      0.00
   -2    4    8      0.01      0.00
   -1    4    8     -1.96      0.00
    0    4    8     -0.12      0.00
    1    4    8      0.94      0.00
    2    4    8      2.57      0.00
    3    4    8      0.29      0.00
    4    4    8     -0.47      0.00
    5    4    8      0.05      0.00
    6    4    8      0.39      0.00
    7    4    8      0.32      0.00
    8    4    8      0.05      0.00
   -6    5    8     -0.14      0.00
   -5    5    8     -0.12      0.00
   -4    5    8     -0.07      0.00
   -3    5    8     -1.55      0.00
   -2    5    8     -0.29      0.00
   -1    5    8      1.60      0.00
    0    5    8     -0.41      0.00
    1    5    8     -0.34      0.00
    2    5    8     -2.22      0.00
    3    5    8     -0.50      0.00
    4    5    8      0.35      0.00
    5    5    8      0.03      0.00
    6    5    8     -0.24      0.00
    7    5    8     -0.23      0.00
   -6    6    8      0.12      0.00
   -5    6    8      0.15      0.00
   -4    6    8      0.05      0.00
   -3    6    8      1.52      0.00
   -2    6    8      0.51      0.00
   -1    6    8     -1.18      0.00
    0    6    8      0.77      0.00
    1    6    8     -0.26      0.00
    2    6    8      1.72      0.00
    3    6    8      0.52      0.00
    4    6    8     -0.19      0.00
    5    6    8     -0.06      0.00
    6    6    8      0.10      0.00
    7    6    8      0.22      0.00
   -5    7    8     -0.17      0.00
   -4    7    8     -0.04      0.00
   -3    7    8     -1.36      0.00
   -2    7    8     -0.57      0.00
   -1    7    8      0.77      0.00
    0    7    8     -1.09      0.00
    1    7    8      0.69      0.00
    2    7    8     -1.19      0.00
    3    7    8     -0.41      0.00
    4    7    8      0.09      0.00
    5    7    8      0.07      0.00
    6    7    8     -0.07      0.00
    7    7    8     -0.32      0.00
   -5    8    8      0.12      0.00
   -4    8    8      0.06      0.00
   -3    8    8      1.21      0.00
   -2    8    8      0.55      0.00
   -1    8    8     -0.38      0.00
    0    8    8      1.46      0.00
    1    8    8     -0.83      0.00
    2    8    8      0.73      0.00
    3    8    8      0.28      0.00
    4    8    8     -0.09      0.00
    5    8    8     -0.10      0.00
    6    8    8      0.14      0.00
    7    8    8      0.39      0.00
   -4    9    8     -0.07      0.00
   -3    9    8     -1.08      0.00
   -2    9    8     -0.54      0.00
   -1    9    8     -0.02      0.00
    0    9    8     -1.81      0.00
    1    9    8      0.77      0.00
    2    9    8     -0.43      0.00
    3    9    8     -0.17      0.00
    4    9    8      0.16      0.00
    5    9    8      0.14      0.00
    6    9    8     -0.20      0.00
   -4   10    8      0.06      0.00
   -3   10    8      0.88      0.00
   -2   10    8      0.51      0.00
   -1   10    8      0.40      0.00
    0   10    8      1.99      0.00
    1   10    8     -0.75      0.00
    2   10    8      0.24      0.00
    3   10    8      0.08      0.00
    4   10    8     -0.22      0.00
    5   10    8     -0.15      0.00
    6   10    8      0.18      0.00
   -3   11    8     -0.59      0.00
   -2   11    8     -0.37      0.00
   -1   11    8     -0.62      0.00
    0   11    8     -1.93      0.00
    1   11    8      0.85      0.00
    2   11    8     -0.04      0.00
    3   11    8     -0.05      0.00
    4   11    8      0.20      0.00
    5   11    8      0.12      0.00
   -2   12    8      0.17      0.00
   -1   12    8      0.57      0.00
    0   12    8      1.57      0.00
    1   12    8     -0.91      0.00
    2   12    8     -0.15      0.00
    3   12    8      0.08      0.00
    4   12    8     -0.13      0.00
    1   13    8      0.74      0.00
    2   13    8      0.21      0.00
   -2   -6    9      0.24      0.00
   -1   -6    9      0.22      0.00
    0   -6    9      1.87      0.00
    1   -6    9      0.07      0.00
    2   -6    9     -0.02      0.00
    3   -6    9     -0.01      0.00
   -3   -5    9     -0.52      0.00
   -2   -5    9     -0.46      0.00
   -1   -5    9     -0.30      0.00
    0   -5    9     -2.23      0.00
    1   -5    9     -0.06      0.00
    2   -5    9      0.05      0.00
    3   -5    9      0.01      0.00
    4   -5    9      0.24      0.00
   -4   -4    9     -0.19      0.00
   -3   -4    9      0.55      0.00
   -2   -4    9      0.69      0.00
   -1   -4    9      0.54      0.00
    0   -4    9      2.17      0.00
    1   -4    9      0.01      0.00
    2   -4    9     -0.19      0.00
    3   -4    9     -0.04      0.00
    4   -4    9     -0.37      0.00
    5   -4    9     -0.34      0.00
   -4   -3    9      0.05      0.00
   -3   -3    9     -0.43      0.00
   -2   -3    9     -0.78      0.00
   -1   -3    9     -0.86      0.00
    0   -3    9     -1.92      0.00
    1   -3    9      0.16      0.00
    2   -3    9      0.41      0.00
    3   -3    9      0.04      0.00
    4   -3    9      0.57      0.00
    5   -3    9      0.34      0.00
    6   -3    9     -0.06      0.00
   -5   -2    9     -0.17      0.00
   -4   -2    9      0.17      0.00
   -3   -2    9      0.29      0.00
   -2   -2    9      0.74      0.00
   -1   -2    9      1.04      0.00
    0   -2    9      1.65      0.00
    1   -2    9     -0.43      0.00
    2   -2    9     -0.59      0.00
    3   -2    9      0.09      0.00
    4   -2    9     -0.74      0.00
    5   -2    9     -0.35      0.00
    6   -2    9      0.07      0.00
   -5   -1    9      0.11      0.00
   -4   -1    9     -0.33      0.00
   -3   -1    9     -0.18      0.00
   -2   -1    9     -0.72      0.00
   -1   -1    9     -1.04      0.00
    0   -1    9     -1.36      0.00
    1   -1    9      0.69      0.00
    2   -1    9      0.64      0.00
    3   -1    9     -0.30      0.00
    4   -1    9      0.76      0.00
    5   -1    9      0.40      0.00
    6   -1    9      0.10      0.00
    7   -1    9      0.07      0.00
   -5    0    9      0.00      0.00
   -4    0    9      0.40      0.00
   -3    0    9      0.08      0.00
   -2    0    9      0.77      0.00
   -1    0    9      1.07      0.00
    0    0    9      1.09      0.00
    1    0    9     -0.92      0.00
    2    0    9     -0.68      0.00
    3    0    9      0.48      0.00
    4    0    9     -0.62      0.00
    5    0    9     -0.50      0.00
    6    0    9     -0.31      0.00
    7    0    9      0.03      0.00
   -5    1    9     -0.16      0.00
   -4    1    9     -0.47      0.00
   -3    1    9      0.04      0.00
   -2    1    9     -0.80      0.00
   -1    1    9     -1.26      0.00
    0    1    9     -0.92      0.00
    1    1    9      1.17      0.00
    2    1    9      0.93      0.00
    3    1    9     -0.59      0.00
    4    1    9      0.39      0.00
    5    1    9      0.58      0.00
    6    1    9      0.41      0.00
    7    1    9     -0.10      0.00
   -6    2    9     -0.14      0.00
   -5    2    9      0.22      0.00
   -4    2    9      0.51      0.00
   -3    2    9     -0.17      0.00
   -2    2    9      0.74      0.00
   -1    2    9      1.51      0.00
    0    2    9      0.81      0.00
    1    2    9     -1.43      0.00
    2    2    9     -1.41      0.00
    3    2    9      0.63      0.00
    4    2    9     -0.12      0.00
    5    2    9     -0.59      0.00
    6    2    9     -0.42      0.00
    7    2    9      0.02      0.00
   -6    3    9      0.05      0.00
   -5    3    9     -0.12      0.00
   -4    3    9     -0.41      0.00
   -3    3    9      0.35      0.00
   -2    3    9     -0.64      0.00
   -1    3    9     -1.66      0.00
    0    3    9     -0.61      0.00
    1    3    9      1.62      0.00
    2    3    9      1.90      0.00
    3    3    9     -0.56      0.00
    4    3    9     -0.12      0.00
    5    3    9      0.51      0.00
    6    3    9      0.41      0.00
    7    3    9      0.16      0.00
   -6    4    9      0.04      0.00
   -5    4    9     -0.06      0.00
   -4    4    9      0.19      0.00
   -3    4    9     -0.65      0.00
   -2    4    9      0.52      0.00
   -1    4    9      1.69      0.00
    0    4    9      0.25      0.00
    1    4    9     -1.63      0.00
    2    4    9     -2.20      0.00
    3    4    9      0.35      0.00
    4    4    9      0.30      0.00
    5    4    9     -0.35      0.00
    6    4    9     -0.37      0.00
    7    4    9     -0.26      0.00
   -5    5    9      0.17      0.00
   -4    5    9     -0.01      0.00
   -3    5    9      0.96      0.00
   -2    5    9     -0.34      0.00
   -1    5    9     -1.63      0.00
    0    5    9      0.09      0.00
    1    5    9      1.42      0.00
    2    5    9      2.22      0.00
    3    5    9     -0.10      0.00
    4    5    9     -0.39      0.00
    5    5    9      0.21      0.00
    6    5    9      0.26      0.00
    7    5    9      0.21      0.00
   -5    6    9     -0.20      0.00
   -4    6    9     -0.03      0.00
   -3    6    9     -1.10      0.00
   -2    6    9      0.11      0.00
   -1    6    9      1.48      0.00
    0    6    9     -0.30      0.00
    1    6    9     -0.99      0.00
    2    6    9     -2.02      0.00
    3    6    9     -0.06      0.00
    4    6    9      0.37      0.00
    5    6    9     -0.14      0.00
    6    6    9     -0.11      0.00
    7    6    9     -0.14      0.00
   -5    7    9      0.17      0.00
   -4    7    9     -0.01      0.00
   -3    7    9      1.06      0.00
   -2    7    9      0.08      0.00
   -1    7    9     -1.26      0.00
    0    7    9      0.45      0.00
    1    7    9      0.45      0.00
    2    7    9      1.70      0.00
    3    7    9      0.14      0.00
    4    7    9     -0.26      0.00
    5    7    9      0.14      0.00
    6    7    9      0.04      0.00
    7    7    9      0.17      0.00
   -5    8    9     -0.10      0.00
   -4    8    9      0.02      0.00
   -3    8    9     -0.97      0.00
   -2    8    9     -0.16      0.00
   -1    8    9      1.01      0.00
    0    8    9     -0.71      0.00
    1    8    9     -0.02      0.00
    2    8    9     -1.34      0.00
    3    8    9     -0.20      0.00
    4    8    9      0.16      0.00
    5    8    9     -0.12      0.00
    6    8    9     -0.07      0.00
    7    8    9     -0.26      0.00
   -4    9    9     -0.01      0.00
   -3    9    9      0.89      0.00
   -2    9    9      0.19      0.00
   -1    9    9     -0.71      0.00
    0    9    9      1.05      0.00
    1    9    9     -0.16      0.00
    2    9    9      1.03      0.00
    3    9    9      0.21      0.00
    4    9    9     -0.14      0.00
    5    9    9      0.04      0.00
    6    9    9      0.15      0.00
   -3   10    9     -0.76      0.00
   -2   10    9     -0.23      0.00
   -1   10    9      0.32      0.00
    0   10    9     -1.34      0.00
    1   10    9      0.20      0.00
    2   10    9     -0.75      0.00
    3   10    9     -0.14      0.00
    4   10    9      0.18      0.00
    5   10    9      0.05      0.00
    6   10    9     -0.19      0.00
   -2   11    9      0.22      0.00
   -1   11    9      0.04      0.00
    0   11    9      1.40      0.00
    1   11    9     -0.29      0.00
    2   11    9      0.46      0.00
    3   11    9      0.03      0.00
    4   11    9     -0.18      0.00
    5   11    9     -0.09      0.00
   -1   12    9     -0.20      0.00
    0   12    9     -1.17      0.00
    1   12    9      0.43      0.00
    2   12    9     -0.18      0.00
    3   12    9     -0.02      0.00
    4   12    9      0.11      0.00
   -1   -5   10     -0.03      0.00
    0   -5   10      1.67      0.00
    1   -5   10      0.03      0.00
    2   -5   10      0.18      0.00
    3   -5   10     -0.09      0.00
   -2   -4   10     -0.44      0.00
   -1   -4   10     -0.01      0.00
    0   -4   10     -1.87      0.00
    1   -4   10     -0.10      0.00
    2   -4   10     -0.14      0.00
    3   -4   10      0.22      0.00
    4   -4   10      0.21      0.00
   -3   -3   10      0.66      0.00
   -2   -3   10      0.60      0.00
   -1   -3   10      0.23      0.00
    0   -3   10      1.78      0.00
    1   -3   10      0.04      0.00
    2   -3   10     -0.05      0.00
    3   -3   10     -0.28      0.00
    4   -3   10     -0.36      0.00
    5   -3   10     -0.11      0.00
   -4   -2   10     -0.01      0.00
   -3   -2   10     -0.60      0.00
   -2   -2   10     -0.63      0.00
   -1   -2   10     -0.50      0.00
    0   -2   10     -1.63      0.00
    1   -2   10      0.19      0.00
    2   -2   10      0.29      0.00
    3   -2   10      0.18      0.00
    4   -2   10      0.53      0.00
    5   -2   10      0.04      0.00
    6   -2   10     -0.22      0.00
   -4   -1   10      0.17      0.00
   -3   -1   10      0.51      0.00
   -2   -1   10      0.56      0.00
   -1   -1   10      0.64      0.00
    0   -1   10      1.45      0.00
    1   -1   10     -0.46      0.00
    2   -1   10     -0.40      0.00
    3   -1   10      0.02      0.00
    4   -1   10     -0.66      0.00
    5   -1   10     -0.09      0.00
    6   -1   10      0.18      0.00
   -5    0   10      0.12      0.00
   -4    0   10     -0.30      0.00
   -3    0   10     -0.42      0.00
   -2    0   10     -0.55      0.00
   -1    0   10     -0.64      0.00
    0    0   10     -1.20      0.00
    1    0   10      0.68      0.00
    2    0   10      0.36      0.00
    3    0   10     -0.22      0.00
    4    0   10      0.69      0.00
    5    0   10      0.26      0.00
    6    0   10     -0.01      0.00
    7    0   10      0.06      0.00
   -5    1   10      0.01      0.00
   -4    1   10      0.40      0.00
   -3    1   10      0.33      0.00
   -2    1   10      0.62      0.00
   -1    1   10      0.67      0.00
    0    1   10      0.89      0.00
    1    1   10     -0.87      0.00
    2    1   10     -0.34      0.00
    3    1   10      0.39      0.00
    4    1   10     -0.61      0.00
    5    1   10     -0.47      0.00
    6    1   10     -0.14      0.00
    7    1   10      0.13      0.00
   -5    2   10     -0.15      0.00
   -4    2   10     -0.47      0.00
   -3    2   10     -0.24      0.00
   -2    2   10     -0.67      0.00
   -1    2   10     -0.77      0.00
    0    2   10     -0.64      0.00
    1    2   10      1.09      0.00
    2    2   10      0.56      0.00
    3    2   10     -0.57      0.00
    4    2   10      0.47      0.00
    5    2   10      0.63      0.00
    6    2   10      0.20      0.00
    7    2   10     -0.18      0.00
   -5    3   10      0.15      0.00
   -4    3   10      0.45      0.00
   -3    3   10      0.13      0.00
   -2    3   10      0.66      0.00
   -1    3   10      0.90      0.00
    0    3   10      0.46      0.00
    1    3   10     -1.33      0.00
    2    3   10     -0.97      0.00
    3    3   10      0.70      0.00
    4    3   10     -0.31      0.00
    5    3   10     -0.70      0.00
    6    3   10     -0.23      0.00
    7    3   10      0.03      0.00
   -5    4   10     -0.01      0.00
   -4    4   10     -0.28      0.00
   -3    4   10      0.09      0.00
   -2    4   10     -0.65      0.00
   -1    4   10     -1.01      0.00
    0    4   10     -0.24      0.00
    1    4   10      1.55      0.00
    2    4   10      1.39      0.00
    3    4   10     -0.69      0.00
    4    4   10      0.14      0.00
    5    4   10      0.63      0.00
    6    4   10      0.23      0.00
    7    4   10      0.13      0.00
   -5    5   10     -0.12      0.00
   -4    5   10      0.08      0.00
   -3    5   10     -0.39      0.00
   -2    5   10      0.63      0.00
   -1    5   10      1.13      0.00
    0    5   10     -0.02      0.00
    1    5   10     -1.68      0.00
    2    5   10     -1.65      0.00
    3    5   10      0.57      0.00
    4    5   10      0.06      0.00
    5    5   10     -0.49      0.00
    6    5   10     -0.18      0.00
    7    5   10     -0.13      0.00
   -5    6   10      0.16      0.00
   -4    6   10      0.03      0.00
   -3    6   10      0.61      0.00
   -2    6   10     -0.54      0.00
   -1    6   10     -1.21      0.00
    0    6   10      0.20      0.00
    1    6   10      1.63      0.00
    2    6   10      1.73      0.00
    3    6   10     -0.43      0.00
    4    6   10     -0.24      0.00
    5    6   10      0.40      0.00
    6    6   10      0.08      0.00
    7    6   10      0.04      0.00
   -4    7   10     -0.02      0.00
   -3    7   10     -0.64      0.00
   -2    7   10      0.39      0.00
   -1    7   10      1.20      0.00
    0    7   10     -0.27      0.00
    1    7   10     -1.31      0.00
    2    7   10     -1.70      0.00
    3    7   10      0.29      0.00
    4    7   10      0.31      0.00
    5    7   10     -0.40      0.00
    6    7   10     -0.02      0.00
    7    7   10      0.00      0.00
   -4    8   10     -0.01      0.00
   -3    8   10      0.55      0.00
   -2    8   10     -0.27      0.00
   -1    8   10     -1.12      0.00
    0    8   10      0.33      0.00
    1    8   10      0.85      0.00
    2    8   10      1.59      0.00
    3    8   10     -0.11      0.00
    4    8   10     -0.25      0.00
    5    8   10      0.40      0.00
    6    8   10      0.02      0.00
   -3    9   10     -0.47      0.00
   -2    9   10      0.20      0.00
   -1    9   10      0.98      0.00
    0    9   10     -0.51      0.00
    1    9   10     -0.49      0.00
    2    9   10     -1.42      0.00
    3    9   10     -0.06      0.00
    4    9   10      0.17      0.00
    5    9   10     -0.30      0.00
    6    9   10     -0.09      0.00
   -3   10   10      0.40      0.00
   -2   10   10     -0.11      0.00
   -1   10   10     -0.74      0.00
    0   10   10      0.73      0.00
    1   10   10      0.32      0.00
    2   10   10      1.14      0.00
    3   10   10      0.08      0.00
    4   10   10     -0.14      0.00
    5   10   10      0.14      0.00
   -2   11   10      0.01      0.00
   -1   11   10      0.39      0.00
    0   11   10     -0.84      0.00
    1   11   10     -0.20      0.00
    2   11   10     -0.76      0.00
    3   11   10      0.03      0.00
    4   11   10      0.14      0.00
    0   12   10      0.74      0.00
    1   12   10      0.03      0.00
    2   12   10      0.38      0.00
    3   12   10     -0.11      0.00
   -1   -4   11     -0.19      0.00
    0   -4   11      1.31      0.00
    1   -4   11      0.10      0.00
    2   -4   11      0.32      0.00
    3   -4   11     -0.22      0.00
   -2   -3   11     -0.31      0.00
   -1   -3   11      0.17      0.00
    0   -3   11     -1.51      0.00
    1   -3   11     -0.24      0.00
    2   -3   11     -0.25      0.00
    3   -3   11      0.41      0.00
    4   -3   11      0.17      0.00
   -3   -2   11      0.68      0.00
   -2   -2   11      0.36      0.00
   -1   -2   11     -0.03      0.00
    0   -2   11      1.60      0.00
    1   -2   11      0.23      0.00
    2   -2   11      0.04      0.00
    3   -2   11     -0.44      0.00
    4   -2   11     -0.28      0.00
    5   -2   11      0.19      0.00
   -3   -1   11     -0.72      0.00
   -2   -1   11     -0.29      0.00
   -1   -1   11     -0.11      0.00
    0   -1   11     -1.67      0.00
    1   -1   11     -0.05      0.00
    2   -1   11      0.18      0.00
    3   -1   11      0.32      0.00
    4   -1   11      0.38      0.00
    5   -1   11     -0.19      0.00
   -4    0   11      0.16      0.00
   -3    0   11      0.69      0.00
   -2    0   11      0.21      0.00
   -1    0   11      0.15      0.00
    0    0   11      1.60      0.00
    1    0   11     -0.17      0.00
    2    0   11     -0.25      0.00
    3    0   11     -0.17      0.00
    4    0   11     -0.44      0.00
    5    0   11      0.05      0.00
    6    0   11      0.16      0.00
   -4    1   11     -0.27      0.00
   -3    1   11     -0.60      0.00
   -2    1   11     -0.25      0.00
   -1    1   11     -0.12      0.00
    0    1   11     -1.27      0.00
    1    1   11      0.38      0.00
    2    1   11      0.17      0.00
    3    1   11      0.05      0.00
    4    1   11      0.47      0.00
    5    1   11      0.18      0.00
    6    1   11     -0.06      0.00
   -4    2   11      0.35      0.00
   -3    2   11      0.49      0.00
   -2    2   11      0.37      0.00
   -1    2   11      0.12      0.00
    0    2   11      0.81      0.00
    1    2   11     -0.59      0.00
    2    2   11     -0.12      0.00
    3    2   11      0.13      0.00
    4    2   11     -0.48      0.00
    5    2   11     -0.44      0.00
    6    2   11     -0.02      0.00
   -4    3   11     -0.36      0.00
   -3    3   11     -0.38      0.00
   -2    3   11     -0.45      0.00
   -1    3   11     -0.16      0.00
    0    3   11     -0.46      0.00
    1    3   11      0.80      0.00
    2    3   11      0.27      0.00
    3    3   11     -0.37      0.00
    4    3   11      0.51      0.00
    5    3   11      0.66      0.00
    6    3   11      0.08      0.00
    7    3   11     -0.19      0.00
   -4    4   11      0.28      0.00
   -3    4   11      0.23      0.00
   -2    4   11      0.50      0.00
   -1    4   11      0.25      0.00
    0    4   11      0.27      0.00
    1    4   11     -1.03      0.00
    2    4   11     -0.60      0.00
    3    4   11      0.57      0.00
    4    4   11     -0.53      0.00
    5    4   11     -0.76      0.00
    6    4   11     -0.10      0.00
    7    4   11      0.02      0.00
   -4    5   11     -0.12      0.00
   -3    5   11      0.00      0.00
   -2    5   11     -0.56      0.00
   -1    5   11     -0.43      0.00
    0    5   11     -0.09      0.00
    1    5   11      1.29      0.00
    2    5   11      0.93      0.00
    3    5   11     -0.64      0.00
    4    5   11      0.42      0.00
    5    5   11      0.69      0.00
    6    5   11      0.06      0.00
    7    5   11      0.07      0.00
   -4    6   11     -0.01      0.00
   -3    6   11     -0.24      0.00
   -2    6   11      0.61      0.00
   -1    6   11      0.64      0.00
    0    6   11     -0.11      0.00
    1    6   11     -1.54      0.00
    2    6   11     -1.14      0.00
    3    6   11      0.64      0.00
    4    6   11     -0.18      0.00
    5    6   11     -0.58      0.00
    6    6   11      0.01      0.00
   -4    7   11      0.05      0.00
   -3    7   11      0.33      0.00
   -2    7   11     -0.59      0.00
   -1    7   11     -0.78      0.00
    0    7   11      0.25      0.00
    1    7   11      1.58      0.00
    2    7   11      1.28      0.00
    3    7   11     -0.58      0.00
    4    7   11     -0.08      0.00
    5    7   11      0.55      0.00
    6    7   11     -0.05      0.00
   -3    8   11     -0.24      0.00
   -2    8   11      0.52      0.00
   -1    8   11      0.79      0.00
    0    8   11     -0.28      0.00
    1    8   11     -1.35      0.00
    2    8   11     -1.39      0.00
    3    8   11      0.41      0.00
    4    8   11      0.20      0.00
    5    8   11     -0.56      0.00
    6    8   11      0.03      0.00
   -3    9   11      0.10      0.00
   -2    9   11     -0.43      0.00
   -1    9   11     -0.74      0.00
    0    9   11      0.30      0.00
    1    9   11      0.98      0.00
    2    9   11      1.43      0.00
    3    9   11     -0.17      0.00
    4    9   11     -0.18      0.00
    5    9   11      0.48      0.00
   -2   10   11      0.34      0.00
   -1   10   11      0.63      0.00
    0   10   11     -0.37      0.00
    1   10   11     -0.67      0.00
    2   10   11     -1.26      0.00
    3   10   11      0.00      0.00
    4   10   11      0.12      0.00
    5   10   11     -0.28      0.00
   -1   11   11     -0.43      0.00
    0   11   11      0.42      0.00
    1   11   11      0.45      0.00
    2   11   11      0.87      0.00
    3   11   11     -0.03      0.00
    4   11   11     -0.08      0.00
    1   12   11     -0.24      0.00
    0   -3   12      1.01      0.00
    1   -3   12      0.24      0.00
    2   -3   12      0.33      0.00
   -1   -2   12      0.18      0.00
    0   -2   12     -1.34      0.00
    1   -2   12     -0.45      0.00
    2   -2   12     -0.25      0.00
    3   -2   12      0.54      0.00
   -2   -1   12      0.05      0.00
   -1   -1   12     -0.16      0.00
    0   -1   12      1.66      0.00
    1   -1   12      0.49      0.00
    2   -1   12      0.04      0.00
    3   -1   12     -0.56      0.00
    4   -1   12     -0.23      0.00
   -3    0   12     -0.63      0.00
   -2    0   12      0.06      0.00
   -1    0   12      0.17      0.00
    0    0   12     -1.85      0.00
    1    0   12     -0.35      0.00
    2    0   12      0.18      0.00
    3    0   12      0.50      0.00
    4    0   12      0.22      0.00
    5    0   12     -0.21      0.00
   -3    1   12      0.60      0.00
   -2    1   12     -0.08      0.00
   -1    1   12     -0.23      0.00
    0    1   12      1.68      0.00
    1    1   12      0.12      0.00
    2    1   12     -0.23      0.00
    3    1   12     -0.44      0.00
    4    1   12     -0.19      0.00
    5    1   12      0.08      0.00
   -3    2   12     -0.48      0.00
   -2    2   12     -0.04      0.00
   -1    2   12      0.30      0.00
    0    2   12     -1.16      0.00
    1    2   12      0.12      0.00
    2    2   12      0.10      0.00
    3    2   12      0.35      0.00
    4    2   12      0.22      0.00
    5    2   12      0.13      0.00
    6    2   12     -0.05      0.00
   -3    3   12      0.36      0.00
   -2    3   12      0.18      0.00
   -1    3   12     -0.33      0.00
    0    3   12      0.61      0.00
    1    3   12     -0.31      0.00
    2    3   12      0.01      0.00
    3    3   12     -0.14      0.00
    4    3   12     -0.37      0.00
    5    3   12     -0.41      0.00
    6    3   12     -0.02      0.00
   -3    4   12     -0.26      0.00
   -2    4   12     -0.25      0.00
   -1    4   12      0.30      0.00
    0    4   12     -0.34      0.00
    1    4   12      0.47      0.00
    2    4   12      0.09      0.00
    3    4   12     -0.15      0.00
    4    4   12      0.59      0.00
    5    4   12      0.64      0.00
    6    4   12      0.05      0.00
   -3    5   12      0.13      0.00
   -2    5   12      0.29      0.00
   -1    5   12     -0.15      0.00
    0    5   12      0.26      0.00
    1    5   12     -0.68      0.00
    2    5   12     -0.34      0.00
    3    5   12      0.39      0.00
    4    5   12     -0.70      0.00
    5    5   12     -0.70      0.00
    6    5   12     -0.01      0.00
   -3    6   12      0.05      0.00
   -2    6   12     -0.37      0.00
   -1    6   12     -0.08      0.00
    0    6   12     -0.11      0.00
    1    6   12      0.99      0.00
    2    6   12      0.56      0.00
    3    6   12     -0.54      0.00
    4    6   12      0.57      0.00
    5    6   12      0.60      0.00
    6    6   12     -0.08      0.00
   -3    7   12     -0.16      0.00
   -2    7   12      0.45      0.00
   -1    7   12      0.27      0.00
    0    7   12     -0.13      0.00
    1    7   12     -1.26      0.00
    2    7   12     -0.70      0.00
    3    7   12      0.61      0.00
    4    7   12     -0.28      0.00
    5    7   12     -0.51      0.00
    6    7   12      0.13      0.00
   -3    8   12      0.13      0.00
   -2    8   12     -0.46      0.00
   -1    8   12     -0.33      0.00
    0    8   12      0.29      0.00
    1    8   12      1.32      0.00
    2    8   12      0.86      0.00
    3    8   12     -0.55      0.00
    4    8   12      0.01      0.00
    5    8   12      0.49      0.00
   -2    9   12      0.40      0.00
   -1    9   12      0.28      0.00
    0    9   12     -0.32      0.00
    1    9   12     -1.13      0.00
    2    9   12     -1.03      0.00
    3    9   12      0.34      0.00
    4    9   12      0.12      0.00
    5    9   12     -0.45      0.00
   -1   10   12     -0.23      0.00
    0   10   12      0.27      0.00
    1   10   12      0.81      0.00
    2   10   12      1.03      0.00
    3   10   12     -0.10      0.00
    4   10   12     -0.10      0.00
    0   11   12     -0.21      0.00
    1   11   12     -0.51      0.00
    2   11   12     -0.75      0.00
    0   -1   13     -1.18      0.00
    1   -1   13     -0.51      0.00
    2   -1   13     -0.16      0.00
    3   -1   13      0.54      0.00
   -1    0   13     -0.15      0.00
    0    0   13      1.57      0.00
    1    0   13      0.53      0.00
    2    0   13     -0.05      0.00
    3    0   13     -0.57      0.00
    4    0   13     -0.14      0.00
   -2    1   13      0.20      0.00
   -1    1   13      0.25      0.00
    0    1   13     -1.67      0.00
    1    1   13     -0.37      0.00
    2    1   13      0.25      0.00
    3    1   13      0.56      0.00
    4    1   13      0.03      0.00
   -2    2   13     -0.13      0.00
   -1    2   13     -0.36      0.00
    0    2   13      1.32      0.00
    1    2   13      0.14      0.00
    2    2   13     -0.24      0.00
    3    2   13     -0.55      0.00
    4    2   13      0.04      0.00
    5    2   13      0.10      0.00
   -2    3   13      0.00      0.00
   -1    3   13      0.45      0.00
    0    3   13     -0.76      0.00
    1    3   13      0.03      0.00
    2    3   13      0.06      0.00
    3    3   13      0.46      0.00
    4    3   13      0.06      0.00
    5    3   13      0.07      0.00
   -2    4   13      0.08      0.00
   -1    4   13     -0.47      0.00
    0    4   13      0.40      0.00
    1    4   13     -0.12      0.00
    2    4   13      0.05      0.00
    3    4   13     -0.24      0.00
    4    4   13     -0.32      0.00
    5    4   13     -0.32      0.00
   -2    5   13     -0.08      0.00
   -1    5   13      0.39      0.00
    0    5   13     -0.37      0.00
    1    5   13      0.21      0.00
    2    5   13      0.04      0.00
    3    5   13     -0.04      0.00
    4    5   13      0.58      0.00
    5    5   13      0.48      0.00
   -2    6   13      0.09      0.00
   -1    6   13     -0.23      0.00
    0    6   13      0.38      0.00
    1    6   13     -0.39      0.00
    2    6   13     -0.21      0.00
    3    6   13      0.28      0.00
    4    6   13     -0.63      0.00
    5    6   13     -0.46      0.00
   -2    7   13     -0.16      0.00
   -1    7   13      0.06      0.00
    0    7   13     -0.18      0.00
    1    7   13      0.66      0.00
    2    7   13      0.29      0.00
    3    7   13     -0.43      0.00
    4    7   13      0.46      0.00
    5    7   13      0.35      0.00
   -1    8   13      0.01      0.00
    0    8   13     -0.11      0.00
    1    8   13     -0.86      0.00
    2    8   13     -0.35      0.00
    3    8   13      0.47      0.00
    4    8   13     -0.20      0.00
   -1    9   13      0.03      0.00
    0    9   13      0.27      0.00
    1    9   13      0.88      0.00
    2    9   13      0.47      0.00
    3    9   13     -0.38      0.00
    4    9   13      0.00      0.00
    0   10   13     -0.24      0.00
    1   10   13     -0.69      0.00
    2   10   13     -0.58      0.00
    1    1   14      0.28      0.00
    2    1   14     -0.12      0.00
    0    2   14     -1.02      0.00
    1    2   14     -0.13      0.00
    2    2   14      0.26      0.00
    3    2   14      0.41      0.00
   -1    3   14     -0.27      0.00
    0    3   14      0.68      0.00
    1    3   14      0.01      0.00
    2    3   14     -0.19      0.00
    3    3   14     -0.43      0.00
    4    3   14      0.15      0.00
   -1    4   14      0.32      0.00
    0    4   14     -0.36      0.00
    1    4   14      0.03      0.00
    2    4   14      0.03      0.00
    3    4   14      0.36      0.00
    4    4   14      0.00      0.00
   -1    5   14     -0.30      0.00
    0    5   14      0.34      0.00
    1    5   14     -0.01      0.00
    2    5   14      0.01      0.00
    3    5   14     -0.17      0.00
    4    5   14     -0.22      0.00
   -1    6   14      0.22      0.00
    0    6   14     -0.48      0.00
    1    6   14      0.04      0.00
    2    6   14      0.08      0.00
    3    6   14     -0.05      0.00
    4    6   14      0.36      0.00
    0    7   14      0.45      0.00
    1    7   14     -0.15      0.00
    2    7   14     -0.14      0.00
    3    7   14      0.20      0.00
    4    7   14     -0.33      0.00
    0    8   14     -0.19      0.00
    1    8   14      0.31      0.00
    2    8   14      0.10      0.00
    3    8   14     -0.26      0.00
   -8    5    0      0.38      0.00
   -8    6    0     -0.16      0.00
    8    6    0      0.37      0.00
   -7    8    0      0.21      0.00
    7    8    0      0.25      0.00
   -6    9    0     -0.03      0.00
   -5   10    0     -0.24      0.00
    6   10    0     -0.07      0.00
   -4   11    0      0.11      0.00
    5   11    0     -0.01      0.00
   -3   12    0     -0.05      0.00
   -2   12    0      0.04      0.00
    3   12    0      0.07      0.00
   -2  -12    1     -0.41      0.00
   -1  -12    1     -0.14      0.00
    0  -12    1      0.09      0.00
    1  -12    1      0.12      0.00
    2  -12    1      0.02      0.00
   -4  -11    1     -0.10      0.00
    4  -11    1     -0.05      0.00
   -5  -10    1      0.03      0.00
    5  -10    1      0.24      0.00
   -6   -9    1     -0.13      0.00
    6   -9    1     -0.06      0.00
   -7   -8    1     -0.41      0.00
    7   -7    1      0.24      0.00
   -8   -6    1     -0.29      0.00
   -8   -5    1      0.41      0.00
    8   -5    1     -0.26      0.00
    2    0    1      3.90      0.00
   -8    5    1     -0.41      0.00
   -8    6    1      0.19      0.00
    8    7    1      0.17      0.00
   -7    8    1     -0.24      0.00
   -6    9    1      0.07      0.00
    7    9    1      0.01      0.00
    6   10    1      0.05      0.00
    5   11    1     -0.07      0.00
   -3   12    1      0.05      0.00
    4   12    1      0.30      0.00
   -1   13    1      0.06      0.00
    0   13    1      0.24      0.00
    1   13    1      0.01      0.00
   -1  -12    2      0.08      0.00
    0  -12    2     -0.28      0.00
    1  -12    2     -0.08      0.00
   -3  -11    2     -0.40      0.00
    3  -11    2      0.10      0.00
   -5  -10    2     -0.02      0.00
   -7   -7    2     -0.65      0.00
    7   -7    2     -0.05      0.00
   -8   -5    2     -0.23      0.00
    8   -5    2      0.11      0.00
   -8   -4    2      0.16      0.00
    2    0    2     -2.63      0.00
    0    3    2    -23.70      0.00
   -8    5    2      0.30      0.00
    8    7    2     -0.10      0.00
   -7    8    2      0.13      0.00
   -6    9    2     -0.03      0.00
    7    9    2      0.07      0.00
   -3   12    2      0.00      0.00
    4   12    2     -0.57      0.00
   -1   13    2     -0.25      0.00
    0   13    2     -0.55      0.00
    1   13    2      0.16      0.00
    2   13    2     -0.06      0.00
   -2  -11    3      0.27      0.00
   -1  -11    3     -0.07      0.00
    1  -11    3     -0.24      0.00
    2  -11    3      0.01      0.00
   -4  -10    3     -0.18      0.00
    4  -10    3      0.19      0.00
   -5   -9    3     -0.08      0.00
    5   -9    3      0.06      0.00
   -6   -8    3      0.13      0.00
    6   -8    3      0.04      0.00
    7   -7    3     -0.12      0.00
   -7   -6    3     -0.58      0.00
    8   -5    3     -0.02      0.00
   -8   -4    3     -0.01      0.00
   -8   -3    3     -0.17      0.00
   -8    4    3      0.09      0.00
   -8    5    3     -0.12      0.00
    8    7    3      0.03      0.00
   -7    8    3      0.05      0.00
   -6    9    3     -0.01      0.00
    7    9    3     -0.05      0.00
    6   11    3      0.02      0.00
    5   12    3      0.10      0.00
   -2   13    3      0.06      0.00
   -1   13    3      0.45      0.00
    2   13    3     -0.10      0.00
    3   13    3     -0.20      0.00
    0  -11    4      0.78      0.00
    1  -11    4      0.18      0.00
   -3  -10    4      0.35      0.00
    3  -10    4     -0.22      0.00
   -4   -9    4     -0.34      0.00
    5   -9    4     -0.19      0.00
    6   -8    4      0.04      0.00
   -6   -7    4      0.13      0.00
    7   -6    4     -0.13      0.00
   -7   -5    4     -0.28      0.00
    8   -4    4      0.05      0.00
   -8   -3    4      0.13      0.00
   -7   -3    4      0.04      0.00
   -8   -2    4     -0.23      0.00
   -8   -1    4      0.34      0.00
   -8    3    4      0.02      0.00
   -8    4    4      0.04      0.00
   -8    5    4     -0.02      0.00
   -7    7    4      0.28      0.00
    8    8    4     -0.01      0.00
   -6    9    4      0.02      0.00
    7   10    4      0.07      0.00
    6   11    4      0.04      0.00
    5   12    4     -0.03      0.00
   -2   13    4      0.03      0.00
   -1   13    4     -0.58      0.00
    3   13    4      0.20      0.00
   -2  -10    5      0.07      0.00
   -1  -10    5      0.17      0.00
    0  -10    5      1.19      0.00
    1  -10    5      0.31      0.00
    2  -10    5     -0.01      0.00
   -3   -9    5      0.25      0.00
    4   -9    5     -0.10      0.00
    5   -8    5     -0.14      0.00
    6   -7    5     -0.02      0.00
   -6   -6    5      0.14      0.00
    7   -6    5      0.16      0.00
   -7   -4    5     -0.01      0.00
    8   -4    5      0.00      0.00
    8   -3    5      0.07      0.00
   -6   -2    5     -0.11      0.00
   -8   -1    5     -0.07      0.00
   -8    0    5      0.12      0.00
   -8    1    5     -0.18      0.00
   -8    2    5      0.14      0.00
   -8    3    5     -0.03      0.00
    7    4    5      0.08      0.00
    6    5    5      0.16      0.00
    7    5    5     -0.01      0.00
    8    5    5     -0.08      0.00
    8    6    5      0.07      0.00
   -7    7    5     -0.23      0.00
    8    8    5      0.10      0.00
   -6    9    5     -0.02      0.00
    7   10    5     -0.08      0.00
    6   11    5     -0.08      0.00
    5   12    5     -0.04      0.00
   -2   13    5     -0.07      0.00
    3   13    5     -0.17      0.00
    4   13    5     -0.18      0.00
   -2   -9    6      0.13      0.00
    3   -9    6      0.11      0.00
   -4   -8    6      0.22      0.00
   -5   -7    6      0.02      0.00
   -6   -5    6      0.16      0.00
    7   -5    6      0.13      0.00
   -7   -3    6      0.08      0.00
    8   -3    6      0.03      0.00
   -7   -2    6     -0.02      0.00
    7    4    6      0.07      0.00
    8    4    6     -0.20      0.00
    7    5    6     -0.04      0.00
    8    5    6      0.14      0.00
   -7    6    6      0.06      0.00
    7    6    6      0.19      0.00
    8    6    6     -0.09      0.00
    8    7    6      0.11      0.00
    8    8    6     -0.14      0.00
   -6    9    6      0.05      0.00
   -5   10    6      0.11      0.00
    7   10    6      0.09      0.00
    6   11    6      0.04      0.00
   -3   12    6      0.31      0.00
    5   12    6      0.04      0.00
   -2   13    6      0.02      0.00
    3   13    6      0.11      0.00
    4   13    6      0.12      0.00
    0   -9    7     -0.68      0.00
    1   -9    7     -0.22      0.00
   -3   -8    7      0.05      0.00
   -2   -8    7      0.15      0.00
    3   -8    7      0.07      0.00
    4   -8    7     -0.06      0.00
   -4   -7    7      0.18      0.00
    5   -7    7     -0.05      0.00
   -5   -6    7     -0.18      0.00
    6   -6    7      0.00      0.00
   -6   -4    7      0.17      0.00
    7   -4    7      0.11      0.00
    8   -2    7      0.01      0.00
   -7   -1    7      0.01      0.00
   -7    0    7     -0.05      0.00
   -7    4    7     -0.16      0.00
   -7    5    7      0.26      0.00
    7    5    7      0.16      0.00
    8    5    7     -0.05      0.00
    7    6    7     -0.22      0.00
    8    6    7      0.01      0.00
    8    7    7     -0.03      0.00
   -6    8    7      0.11      0.00
    8    8    7      0.09      0.00
   -5   10    7     -0.06      0.00
    7   10    7     -0.13      0.00
   -4   11    7      0.24      0.00
    6   11    7      0.05      0.00
   -3   12    7     -0.33      0.00
    5   12    7      0.01      0.00
   -2   13    7      0.03      0.00
   -1   13    7      0.52      0.00
    3   13    7      0.01      0.00
    4   13    7     -0.11      0.00
   -1   -8    8     -0.13      0.00
    0   -8    8     -0.89      0.00
    1   -8    8     -0.18      0.00
    2   -8    8      0.11      0.00
   -3   -7    8      0.18      0.00
    4   -7    8     -0.15      0.00
   -4   -6    8      0.17      0.00
    5   -6    8      0.10      0.00
    6   -5    8     -0.09      0.00
   -5   -4    8      0.34      0.00
   -6   -3    8      0.15      0.00
    7   -3    8      0.05      0.00
   -6   -2    8     -0.20      0.00
    8   -1    8     -0.02      0.00
    8    0    8      0.14      0.00
   -7    1    8      0.07      0.00
   -7    2    8     -0.17      0.00
   -7    3    8      0.14      0.00
    8    5    8     -0.05      0.00
    8    6    8      0.09      0.00
   -6    7    8     -0.05      0.00
    8    7    8     -0.08      0.00
   -5    9    8     -0.04      0.00
    7    9    8     -0.32      0.00
   -4   11    8     -0.06      0.00
    6   11    8     -0.12      0.00
   -3   12    8      0.30      0.00
    5   12    8     -0.06      0.00
   -1   13    8     -0.34      0.00
    0   13    8     -0.94      0.00
    3   13    8     -0.11      0.00
   -1   -7    9     -0.15      0.00
    0   -7    9     -1.08      0.00
    1   -7    9     -0.08      0.00
    2   -7    9      0.04      0.00
   -3   -6    9      0.33      0.00
    4   -6    9     -0.17      0.00
   -4   -5    9      0.15      0.00
    5   -5    9      0.26      0.00
    6   -4    9     -0.04      0.00
   -5   -3    9      0.23      0.00
    7   -2    9     -0.09      0.00
   -6   -1    9     -0.09      0.00
   -6    0    9     -0.02      0.00
    8    0    9     -0.01      0.00
   -6    1    9      0.13      0.00
    8    1    9      0.09      0.00
    8    2    9     -0.16      0.00
    8    3    9      0.15      0.00
    8    4    9     -0.09      0.00
   -6    5    9     -0.07      0.00
    8    5    9      0.06      0.00
   -6    6    9      0.02      0.00
    8    6    9     -0.08      0.00
   -5    9    9      0.00      0.00
    7    9    9      0.25      0.00
   -4   10    9      0.02      0.00
   -3   11    9      0.50      0.00
    6   11    9      0.14      0.00
   -2   12    9     -0.13      0.00
    5   12    9      0.06      0.00
   -1   13    9      0.12      0.00
    0   13    9      0.71      0.00
    1   13    9     -0.43      0.00
    2   13    9      0.00      0.00
    3   13    9      0.08      0.00
   -1   -6   10     -0.03      0.00
    0   -6   10     -1.07      0.00
    1   -6   10      0.03      0.00
    2   -6   10     -0.12      0.00
   -2   -5   10      0.24      0.00
    4   -5   10     -0.11      0.00
   -3   -4   10     -0.60      0.00
    5   -4   10      0.17      0.00
   -4   -3   10     -0.10      0.00
    6   -3   10      0.12      0.00
   -5   -1   10     -0.14      0.00
    7   -1   10     -0.20      0.00
   -6    3   10      0.04      0.00
    8    3   10     -0.07      0.00
    8    4   10      0.05      0.00
    8    5   10     -0.01      0.00
   -5    7   10     -0.13      0.00
   -5    8   10      0.08      0.00
    7    8   10      0.07      0.00
   -4    9   10      0.01      0.00
   -4   10   10     -0.01      0.00
    6   10   10      0.14      0.00
   -3   11   10     -0.28      0.00
    5   11   10     -0.01      0.00
   -2   12   10      0.04      0.00
   -1   12   10     -0.10      0.00
    4   12   10     -0.09      0.00
    0   13   10     -0.47      0.00
    1   13   10      0.09      0.00
    2   13   10     -0.11      0.00
    0   -5   11     -0.87      0.00
    1   -5   11      0.05      0.00
    2   -5   11     -0.26      0.00
   -2   -4   11      0.18      0.00
    4   -4   11     -0.06      0.00
   -3   -3   11     -0.54      0.00
    5   -3   11     -0.09      0.00
   -4   -2   11     -0.06      0.00
    6   -2   11      0.20      0.00
   -4   -1   11     -0.04      0.00
    6   -1   11     -0.23      0.00
   -5    1   11      0.12      0.00
    7    1   11     -0.08      0.00
   -5    2   11     -0.01      0.00
    7    2   11      0.24      0.00
   -5    3   11     -0.08      0.00
   -5    4   11      0.05      0.00
   -5    5   11      0.03      0.00
   -5    6   11     -0.06      0.00
    7    6   11     -0.01      0.00
    7    7   11     -0.07      0.00
   -4    8   11     -0.03      0.00
   -4    9   11      0.02      0.00
    6    9   11      0.03      0.00
   -3   10   11     -0.05      0.00
    6   10   11     -0.08      0.00
   -2   11   11     -0.20      0.00
    5   11   11      0.09      0.00
   -1   12   11      0.19      0.00
    0   12   11     -0.36      0.00
    2   12   11     -0.42      0.00
    3   12   11      0.12      0.00
    4   12   11      0.04      0.00
    1   -4   12     -0.01      0.00
    2   -4   12     -0.29      0.00
   -1   -3   12     -0.16      0.00
    3   -3   12     -0.34      0.00
    4   -3   12     -0.08      0.00
   -2   -2   12     -0.12      0.00
    4   -2   12      0.17      0.00
    5   -2   12     -0.24      0.00
   -3   -1   12      0.55      0.00
    5   -1   12      0.28      0.00
    6    0   12     -0.13      0.00
   -4    1   12      0.13      0.00
    6    1   12      0.10      0.00
   -4    2   12     -0.20      0.00
   -4    3   12      0.23      0.00
    7    3   12      0.22      0.00
   -4    4   12     -0.20      0.00
    7    4   12     -0.12      0.00
   -4    5   12      0.11      0.00
    7    5   12     -0.01      0.00
   -4    6   12     -0.01      0.00
   -4    7   12     -0.04      0.00
    6    8   12     -0.10      0.00
   -3    9   12      0.01      0.00
    6    9   12      0.03      0.00
   -2   10   12     -0.31      0.00
    5   10   12      0.28      0.00
   -1   11   12      0.18      0.00
    3   11   12     -0.01      0.00
    4   11   12      0.04      0.00
    0   12   12      0.13      0.00
    1   12   12      0.25      0.00
    2   12   12      0.33      0.00
    0   -2   13      0.76      0.00
    1   -2   13      0.31      0.00
    2   -2   13      0.24      0.00
    3   -2   13     -0.38      0.00
   -2   -1   13      0.02      0.00
   -1   -1   13      0.08      0.00
    4   -1   13      0.18      0.00
   -2    0   13     -0.13      0.00
    5    0   13      0.20      0.00
   -3    1   13     -0.33      0.00
    5    1   13     -0.17      0.00
   -3    2   13      0.27      0.00
    6    2   13      0.05      0.00
   -3    3   13     -0.17      0.00
    6    3   13      0.00      0.00
   -3    4   13      0.10      0.00
    6    4   13     -0.04      0.00
   -3    5   13     -0.07      0.00
    6    5   13      0.02      0.00
   -3    6   13      0.02      0.00
    6    6   13      0.08      0.00
   -3    7   13      0.06      0.00
    6    7   13     -0.16      0.00
   -2    8   13      0.21      0.00
    5    8   13     -0.28      0.00
   -2    9   13     -0.19      0.00
    5    9   13      0.26      0.00
   -1   10   13     -0.08      0.00
    3   10   13      0.18      0.00
    4   10   13      0.08      0.00
    0   11   13      0.13      0.00
    1   11   13      0.42      0.00
    2   11   13      0.48      0.00
    3   11   13     -0.01      0.00
    0    0   14     -0.79      0.00
    1    0   14     -0.32      0.00
    2    0   14     -0.07      0.00
    3    0   14      0.38      0.00
   -1    1   14     -0.08      0.00
    0    1   14      1.06      0.00
    3    1   14     -0.39      0.00
    4    1   14      0.00      0.00
   -2    2   14      0.11      0.00
   -1    2   14      0.18      0.00
    4    2   14     -0.13      0.00
   -2    3   14     -0.02      0.00
    5    3   14      0.13      0.00
   -2    4   14     -0.06      0.00
    5    4   14     -0.01      0.00
   -2    5   14      0.04      0.00
    5    5   14     -0.16      0.00
   -2    6   14      0.01      0.00
    5    6   14      0.22      0.00
   -2    7   14     -0.02      0.00
   -1    7   14     -0.12      0.00
    5    7   14     -0.16      0.00
   -1    8   14      0.06      0.00
    4    8   14      0.21      0.00
   -1    9   14     -0.08      0.00
    0    9   14     -0.08      0.00
    1    9   14     -0.41      0.00
    2    9   14     -0.10      0.00
    3    9   14      0.25      0.00
    4    9   14     -0.06      0.00
    1   10   14      0.39      0.00
    2   10   14      0.17      0.00
    0    0    0      0.00      0.00
# SQUEEZE RESULTS (Version =  30715)
# Note: Data are Listed for all Voids in the P1 Unit Cell
# i.e. Centre of Gravity, Solvent Accessible Volume,
# Recovered number of Electrons in the Void and
# Details about the Squeezed Material
loop_
  _platon_squeeze_void_nr
  _platon_squeeze_void_average_x
  _platon_squeeze_void_average_y
  _platon_squeeze_void_average_z
  _platon_squeeze_void_volume
  _platon_squeeze_void_count_electrons
  _platon_squeeze_void_content
   1 -0.021  0.500  0.500       137        44 ' '
# Missing Reflections Below sin(th)/lambda = 0.25
loop_
  _platon_missing_refln_index_h
  _platon_missing_refln_index_k
  _platon_missing_refln_index_l
  _platon_missing_refln_theta
    2    0    1     5.822
    2    0    2     6.421
    0    3    2     5.951
_platon_squeeze_void_probe_radius                  1.20
_platon_squeeze_details
)
TITL 161248LT_0m_a.res in P-1
CELL    7.1482   10.6504   11.8975     67.72     80.07     84.55
SPGR P-1
# Solvent Accessible Volume =     142.5
# Electrons Found in S.A.V. =      44.3
# Note: Atoms in Void as Cxxx and Qxxx all others
C101 0.904 0.496 0.461 !       3.85 eA-3
C102 0.093 0.533 0.462 !       3.34 eA-3
C103 1.000 0.500 0.500 !       2.97 eA-3
C104 0.622 0.496 0.488 !       2.30 eA-3
Q105 0.150 0.030 0.139 !       0.53 eA-3
)
;
_shelx_fab_checksum              49918
loop_
_space_group_symop_operation_xyz
'x, y, z'
'-x, -y, -z'
loop_
_atom_site_label
_atom_site_type_symbol
_atom_site_fract_x
_atom_site_fract_y
_atom_site_fract_z
_atom_site_U_iso_or_equiv
_atom_site_adp_type
_atom_site_occupancy
_atom_site_site_symmetry_order
_atom_site_calc_flag
_atom_site_refinement_flags_posn
_atom_site_refinement_flags_adp
S1 S 0.16480(5) 0.34057(3) 0.15908(3) 0.01803(10) Uani 1 1 d . .
O1 O 0.31401(13) 0.14521(9) -0.07496(8) 0.0180(2) Uani 1 1 d . .
O2 O 0.26375(14) 0.46027(9) 0.07663(9) 0.0243(2) Uani 1 1 d . .
O3 O -0.03540(14) 0.35385(10) 0.19788(9) 0.0254(2) Uani 1 1 d . .
O4 O 0.03851(13) 0.05635(9) 0.27365(9) 0.0216(2) Uani 1 1 d . .
C1 C 0.5745(2) 0.11451(18) 0.60357(14) 0.0343(4) Uani 1 1 d . .
H14 H 0.5208 0.1581 0.6618 0.051 Uiso 1 1 calc R U
H3 H 0.7099 0.1338 0.5775 0.051 Uiso 1 1 calc R U
H1 H 0.5594 0.0162 0.6433 0.051 Uiso 1 1 calc R U
C2 C 0.4721(2) 0.16908(14) 0.49302(13) 0.0242(3) Uani 1 1 d . .
C3 C 0.5709(2) 0.23225(15) 0.37557(13) 0.0249(3) Uani 1 1 d . .
H4 H 0.7048 0.2397 0.3649 0.030 Uiso 1 1 calc R U
C4 C 0.47670(19) 0.28435(13) 0.27407(13) 0.0209(3) Uani 1 1 d . .
H5 H 0.5449 0.3288 0.1945 0.025 Uiso 1 1 calc R U
C5 C 0.28154(18) 0.27091(13) 0.28985(12) 0.0178(3) Uani 1 1 d . .
C6 C 0.20219(18) 0.21537(12) 0.09210(12) 0.0160(3) Uani 1 1 d . .
C7 C 0.28797(18) 0.24262(12) -0.02574(12) 0.0168(3) Uani 1 1 d . .
C8 C 0.25610(18) 0.01453(13) -0.00615(12) 0.0169(3) Uani 1 1 d . .
C9 C 0.28772(18) -0.07760(14) -0.06568(13) 0.0204(3) Uani 1 1 d . .
H6 H 0.3475 -0.0507 -0.1486 0.024 Uiso 1 1 calc R U
C10 C 0.22966(19) -0.20907(14) -0.00068(13) 0.0224(3) Uani 1 1 d . .
H2 H 0.2482 -0.2732 -0.0397 0.027 Uiso 1 1 calc R U
C11 C 0.16826(18) -0.02131(13) 0.11403(12) 0.0167(3) Uani 1 1 d . .
C12 C 0.11270(19) -0.15605(13) 0.17859(13) 0.0208(3) Uani 1 1 d . .
H8 H 0.0533 -0.1832 0.2617 0.025 Uiso 1 1 calc R U
C13 C 0.14394(19) -0.24879(13) 0.12193(13) 0.0227(3) Uani 1 1 d . .
H7 H 0.1072 -0.3400 0.1661 0.027 Uiso 1 1 calc R U
C14 C 0.12776(18) 0.08148(13) 0.17038(12) 0.0170(3) Uani 1 1 d . .
C15 C 0.3610(2) 0.37349(13) -0.12036(13) 0.0226(3) Uani 1 1 d . .
H10 H 0.4172 0.3593 -0.1960 0.034 Uiso 1 1 calc R U
H9 H 0.4578 0.4061 -0.0898 0.034 Uiso 1 1 calc R U
H11 H 0.2560 0.4409 -0.1374 0.034 Uiso 1 1 calc R U
C16 C 0.18024(19) 0.20590(13) 0.40584(13) 0.0212(3) Uani 1 1 d . .
H13 H 0.0470 0.1960 0.4160 0.025 Uiso 1 1 calc R U
C17 C 0.2765(2) 0.15575(14) 0.50626(13) 0.0242(3) Uani 1 1 d . .
H12 H 0.2080 0.1114 0.5857 0.029 Uiso 1 1 calc R U
loop_
_atom_site_aniso_label
_atom_site_aniso_U_11
_atom_site_aniso_U_22
_atom_site_aniso_U_33
_atom_site_aniso_U_23
_atom_site_aniso_U_13
_atom_site_aniso_U_12
S1 0.01911(18) 0.01390(16) 0.02173(18) -0.00732(13) -0.00390(13) 0.00102(12)
O1 0.0185(5) 0.0163(4) 0.0185(5) -0.0059(4) -0.0020(4) -0.0012(3)
O2 0.0327(6) 0.0139(4) 0.0255(5) -0.0054(4) -0.0057(4) -0.0027(4)
O3 0.0207(5) 0.0251(5) 0.0318(6) -0.0130(4) -0.0055(4) 0.0067(4)
O4 0.0227(5) 0.0214(5) 0.0201(5) -0.0078(4) 0.0016(4) -0.0060(4)
C1 0.0351(9) 0.0428(9) 0.0241(8) -0.0090(7) -0.0081(7) -0.0040(7)
C2 0.0266(8) 0.0254(7) 0.0212(7) -0.0087(6) -0.0045(6) -0.0025(6)
C3 0.0189(7) 0.0295(7) 0.0262(8) -0.0098(6) -0.0026(6) -0.0044(6)
C4 0.0214(7) 0.0213(7) 0.0196(7) -0.0077(5) 0.0007(5) -0.0049(5)
C5 0.0193(7) 0.0155(6) 0.0204(7) -0.0084(5) -0.0035(5) -0.0002(5)
C6 0.0139(6) 0.0142(6) 0.0204(7) -0.0064(5) -0.0049(5) 0.0011(5)
C7 0.0137(6) 0.0153(6) 0.0219(7) -0.0064(5) -0.0058(5) 0.0010(5)
C8 0.0123(6) 0.0160(6) 0.0219(7) -0.0057(5) -0.0057(5) 0.0011(5)
C9 0.0160(7) 0.0237(7) 0.0232(7) -0.0106(6) -0.0042(5) 0.0024(5)
C10 0.0187(7) 0.0215(7) 0.0326(8) -0.0158(6) -0.0079(6) 0.0046(5)
C11 0.0130(6) 0.0163(6) 0.0211(7) -0.0065(5) -0.0050(5) 0.0005(5)
C12 0.0188(7) 0.0184(6) 0.0236(7) -0.0058(5) -0.0034(5) -0.0008(5)
C13 0.0207(7) 0.0152(6) 0.0315(8) -0.0073(6) -0.0060(6) 0.0003(5)
C14 0.0139(6) 0.0169(6) 0.0204(7) -0.0062(5) -0.0053(5) -0.0002(5)
C15 0.0252(7) 0.0175(6) 0.0209(7) -0.0031(5) -0.0011(6) -0.0024(5)
C16 0.0183(7) 0.0226(7) 0.0242(7) -0.0116(6) 0.0016(5) -0.0034(5)
C17 0.0276(8) 0.0254(7) 0.0184(7) -0.0083(6) 0.0027(6) -0.0054(6)
loop_
_atom_type_symbol
_atom_type_description
_atom_type_scat_dispersion_real
_atom_type_scat_dispersion_imag
_atom_type_scat_source
C C 0.0033 0.0016 'International Tables Vol C Tables 4.2.6.8 and 6.1.1.4'
H H 0.0000 0.0000 'International Tables Vol C Tables 4.2.6.8 and 6.1.1.4'
O O 0.0106 0.0060 'International Tables Vol C Tables 4.2.6.8 and 6.1.1.4'
S S 0.1246 0.1234 'International Tables Vol C Tables 4.2.6.8 and 6.1.1.4'
loop_
_geom_angle_atom_site_label_1
_geom_angle_atom_site_label_2
_geom_angle_atom_site_label_3
_geom_angle
O3 S1 O2 118.28(6)
O3 S1 C5 109.15(6)
O2 S1 C5 107.24(6)
O3 S1 C6 108.58(6)
O2 S1 C6 108.68(6)
C5 S1 C6 103.98(6)
C7 O1 C8 120.78(10)
C2 C1 H14 109.5
C2 C1 H3 109.5
H14 C1 H3 109.5
C2 C1 H1 109.5
H14 C1 H1 109.5
H3 C1 H1 109.5
C3 C2 C17 118.62(13)
C3 C2 C1 120.83(13)
C17 C2 C1 120.55(13)
C4 C3 C2 120.93(13)
C4 C3 H4 119.5
C2 C3 H4 119.5
C3 C4 C5 119.32(13)
C3 C4 H5 120.3
C5 C4 H5 120.3
C4 C5 C16 120.84(12)
C4 C5 S1 118.30(10)
C16 C5 S1 120.85(10)
C7 C6 C14 121.92(11)
C7 C6 S1 122.43(10)
C14 C6 S1 115.60(9)
O1 C7 C6 121.27(11)
O1 C7 C15 109.38(11)
C6 C7 C15 129.33(12)
C11 C8 O1 121.50(11)
C11 C8 C9 122.22(12)
O1 C8 C9 116.27(12)
C10 C9 C8 118.18(13)
C10 C9 H6 120.9
C8 C9 H6 120.9
C9 C10 C13 120.76(12)
C9 C10 H2 119.6
C13 C10 H2 119.6
C8 C11 C12 118.48(12)
C8 C11 C14 120.17(11)
C12 C11 C14 121.30(12)
C13 C12 C11 120.22(13)
C13 C12 H8 119.9
C11 C12 H8 119.9
C12 C13 C10 120.11(12)
C12 C13 H7 119.9
C10 C13 H7 119.9
O4 C14 C6 123.50(12)
O4 C14 C11 122.33(12)
C6 C14 C11 114.17(11)
C7 C15 H10 109.5
C7 C15 H9 109.5
H10 C15 H9 109.5
C7 C15 H11 109.5
H10 C15 H11 109.5
H9 C15 H11 109.5
C17 C16 C5 119.00(13)
C17 C16 H13 120.5
C5 C16 H13 120.5
C16 C17 C2 121.27(13)
C16 C17 H12 119.4
C2 C17 H12 119.4
loop_
_geom_bond_atom_site_label_1
_geom_bond_atom_site_label_2
_geom_bond_distance
S1 O3 1.4367(10)
S1 O2 1.4393(10)
S1 C5 1.7670(13)
S1 C6 1.7745(13)
O1 C7 1.3566(15)
O1 C8 1.3811(15)
O4 C14 1.2251(16)
C1 C2 1.508(2)
C1 H14 0.9800
C1 H3 0.9800
C1 H1 0.9800
C2 C3 1.393(2)
C2 C17 1.395(2)
C3 C4 1.386(2)
C3 H4 0.9500
C4 C5 1.3889(19)
C4 H5 0.9500
C5 C16 1.3908(19)
C6 C7 1.3619(19)
C6 C14 1.4664(17)
C7 C15 1.4929(17)
C8 C11 1.3808(19)
C8 C9 1.3947(18)
C9 C10 1.3819(19)
C9 H6 0.9500
C10 C13 1.398(2)
C10 H2 0.9500
C11 C12 1.4051(18)
C11 C14 1.4701(17)
C12 C13 1.3750(19)
C12 H8 0.9500
C13 H7 0.9500
C15 H10 0.9800
C15 H9 0.9800
C15 H11 0.9800
C16 C17 1.384(2)
C16 H13 0.9500
C17 H12 0.9500
