#------------------------------------------------------------------------------
#$Date: 2019-11-04 10:18:09 +0200 (Mon, 04 Nov 2019) $
#$Revision: 222459 $
#$URL: file:///home/coder/svn-repositories/cod/cif/4/03/38/4033886.cif $
#------------------------------------------------------------------------------
#
# This file is available in the Crystallography Open Database (COD),
# http://www.crystallography.net/
#
# All data on this site have been placed in the public domain by the
# contributors.
#
data_4033886
loop_
_publ_author_name
'Qiao, Hong'
'Zhang, Shengjun'
'Li, Kangkang'
'Cao, Zhengqiang'
'Zeng, Fanlong'
_publ_section_title
;
 Palladium(II)/Lewis Acid Cocatalyzed Oxidative Annulation of
 2-Alkenylanilines and Propargylic Esters: An Access to
 Benzo[<i>b</i>]azepines.
;
_journal_issue                   17
_journal_name_full               'The Journal of organic chemistry'
_journal_page_first              10843
_journal_page_last               10851
_journal_paper_doi               10.1021/acs.joc.9b01406
_journal_volume                  84
_journal_year                    2019
_chemical_formula_moiety         'C32 N O2 S'
_chemical_formula_sum            'C32 N O2 S'
_chemical_formula_weight         462.39
_space_group_crystal_system      triclinic
_space_group_IT_number           2
_space_group_name_Hall           '-P 1'
_space_group_name_H-M_alt        'P -1'
_audit_creation_date             2019-04-11
_audit_creation_method
;
Olex2 1.2-beta
(compiled 2018.05.29 svn.r3508 for OlexSys, GUI svn.r5506)
;
_cell_angle_alpha                102.399(18)
_cell_angle_beta                 94.702(17)
_cell_angle_gamma                106.263(18)
_cell_formula_units_Z            2
_cell_length_a                   9.605(8)
_cell_length_b                   10.338(9)
_cell_length_c                   13.999(12)
_cell_measurement_reflns_used    419
_cell_measurement_temperature    296(2)
_cell_measurement_theta_max      17.96
_cell_measurement_theta_min      2.57
_cell_volume                     1288.3(19)
_computing_cell_refinement       'SAINT v7.68A (Bruker, 2009)'
_computing_data_reduction        'SAINT v7.68A (Bruker, 2009)'
_computing_molecular_graphics    'Olex2 (Dolomanov et al., 2009)'
_computing_publication_material  'Olex2 (Dolomanov et al., 2009)'
_computing_structure_refinement  'ShelXL (Sheldrick, 2015)'
_computing_structure_solution    'SHELXS-97 (Sheldrick, 2008)'
_diffrn_ambient_temperature      296.15
_diffrn_measured_fraction_theta_full 0.991
_diffrn_measured_fraction_theta_max 0.969
_diffrn_measurement_device_type  'Bruker APEX-II CCD'
_diffrn_measurement_method       '\f and \w scans'
_diffrn_radiation_monochromator  graphite
_diffrn_radiation_type           MoK\a
_diffrn_radiation_wavelength     0.71073
_diffrn_reflns_av_R_equivalents  0.0517
_diffrn_reflns_av_unetI/netI     0.1538
_diffrn_reflns_Laue_measured_fraction_full 0.991
_diffrn_reflns_Laue_measured_fraction_max 0.969
_diffrn_reflns_limit_h_max       9
_diffrn_reflns_limit_h_min       -11
_diffrn_reflns_limit_k_max       10
_diffrn_reflns_limit_k_min       -12
_diffrn_reflns_limit_l_max       17
_diffrn_reflns_limit_l_min       -16
_diffrn_reflns_number            7144
_diffrn_reflns_point_group_measured_fraction_full 0.991
_diffrn_reflns_point_group_measured_fraction_max 0.969
_diffrn_reflns_theta_full        25.242
_diffrn_reflns_theta_max         26.323
_diffrn_reflns_theta_min         1.507
_diffrn_standards_number         0
_exptl_absorpt_coefficient_mu    0.153
_exptl_absorpt_correction_T_max  0.7453
_exptl_absorpt_correction_T_min  0.6193
_exptl_absorpt_correction_type   multi-scan
_exptl_absorpt_process_details
'SADABS-2008/1 (Bruker,2008) was used for absorption correction. wR2(int) was 0.0553 before and 0.0431 after correction. The Ratio of minimum to maximum transmission is 0.8309. The \l/2 correction factor is 0.0015.'
_exptl_crystal_colour            'clear light colourless'
_exptl_crystal_colour_lustre     clear
_exptl_crystal_colour_modifier   light
_exptl_crystal_colour_primary    colourless
_exptl_crystal_density_diffrn    1.192
_exptl_crystal_density_method    'not measured'
_exptl_crystal_description       block
_exptl_crystal_F_000             462
_exptl_crystal_size_max          0.18
_exptl_crystal_size_mid          0.17
_exptl_crystal_size_min          0.15
_refine_diff_density_max         0.583
_refine_diff_density_min         -0.392
_refine_diff_density_rms         0.132
_refine_ls_extinction_method     none
_refine_ls_goodness_of_fit_ref   0.934
_refine_ls_hydrogen_treatment    undef
_refine_ls_matrix_type           full
_refine_ls_number_parameters     325
_refine_ls_number_reflns         5069
_refine_ls_number_restraints     0
_refine_ls_restrained_S_all      0.934
_refine_ls_R_factor_all          0.2187
_refine_ls_R_factor_gt           0.0984
_refine_ls_shift/su_max          0.000
_refine_ls_shift/su_mean         0.000
_refine_ls_structure_factor_coef Fsqd
_refine_ls_weighting_details
'w=1/[\s^2^(Fo^2^)+(0.1872P)^2^] where P=(Fo^2^+2Fc^2^)/3'
_refine_ls_weighting_scheme      calc
_refine_ls_wR_factor_gt          0.2557
_refine_ls_wR_factor_ref         0.3503
_reflns_Friedel_coverage         0.000
_reflns_number_gt                1908
_reflns_number_total             5069
_reflns_threshold_expression     'I > 2\s(I)'
_cod_data_source_file            jo9b01406_si_002.cif
_cod_data_source_block           xb1859_0m
_cod_original_cell_volume        1288.2(19)
_cod_database_code               4033886
_shelx_shelxl_version_number     2014/7
_shelx_space_group_comment
;
The symmetry employed for this shelxl refinement is uniquely defined
by the following loop, which should always be used as a source of
symmetry information in preference to the above space-group names.
They are only intended as comments.
;
_shelx_estimated_absorpt_t_max   0.977
_shelx_estimated_absorpt_t_min   0.973
_olex2_refinement_description
;
;
_shelx_res_file
;
    xb1859_0m.res created by SHELXL-2014/7

TITL xb1859_0m in P-1 P-1
CELL 0.71073 9.605 10.338 13.999 102.399 94.702 106.263
ZERR 2 0.008 0.009 0.012 0.018 0.017 0.018
LATT 1
SFAC C N O S
UNIT 64 2 4 2

L.S. 23
PLAN  20
SIZE 0.17 0.18 0.15
TEMP 23
fmap 2
acta
REM <olex2.extras>
REM <HklSrc "%.\\xb1859_0m.hkl">
REM </olex2.extras>

WGHT    0.187200
FVAR       0.22835
S1    4    0.774020    0.718142    0.392981    11.00000    0.06928    0.05493 =
         0.04264    0.00919   -0.00451    0.02789
O3    3    0.707706    0.687432    0.476481    11.00000    0.11991    0.06785 =
         0.03937    0.02280    0.00535    0.03183
O4    3    0.903351    0.683710    0.371108    11.00000    0.07112    0.08587 =
         0.06758   -0.00511   -0.01568    0.04484
N1    2    0.651337    0.635804    0.294874    11.00000    0.05507    0.04673 =
         0.03238    0.01159    0.00182    0.02193
C3    1    0.493717    0.806442    0.213182    11.00000    0.05358    0.04686 =
         0.04546    0.01243    0.00719    0.02414
C10   1    0.755014    0.496976    0.171616    11.00000    0.04246    0.04871 =
         0.04531    0.00766   -0.00055    0.01984
C13   1    0.699750    0.617916    0.199425    11.00000    0.04401    0.04520 =
         0.03771    0.00353    0.00283    0.01969
C16   1    0.691319    0.709818    0.144349    11.00000    0.04723    0.04324 =
         0.04737    0.01379    0.00625    0.01909
C17   1    0.495889    0.615334    0.299035    11.00000    0.05204    0.04675 =
         0.03847    0.01153    0.01082    0.02399
C18   1    0.614829    0.814073    0.168054    11.00000    0.05356    0.05249 =
         0.04627    0.01401    0.00206    0.02605
C21   1    0.424260    0.917062    0.210936    11.00000    0.05754    0.04677 =
         0.05154    0.01792    0.01401    0.02445
C24   1    0.425408    0.511000    0.344841    11.00000    0.06662    0.04496 =
         0.04977    0.01217    0.01617    0.02095
C25   1    0.422115    0.695250    0.260159    11.00000    0.05154    0.04540 =
         0.04077    0.01353    0.01265    0.02258
C26   1    0.752091    0.709182    0.050175    11.00000    0.05856    0.06008 =
         0.05053    0.02198    0.01512    0.03642
C29   1    0.851165    1.176728    0.412711    11.00000    0.06816    0.04696 =
         0.06386    0.00924   -0.00828    0.01130
C32   1    0.879414    0.504615    0.128911    11.00000    0.06935    0.07611 =
         0.07207    0.02057    0.01825    0.04009
C33   1    0.396680    0.995747    0.296834    11.00000    0.07591    0.07369 =
         0.05396    0.01454    0.01595    0.04954
C34   1    0.808157    0.896540    0.402189    11.00000    0.04822    0.05266 =
         0.03767    0.00152   -0.00629    0.01511
C36   1    0.274560    0.489508    0.352210    11.00000    0.07863    0.06236 =
         0.05916    0.01840    0.02567    0.02488
C39   1    0.273006    0.668061    0.267337    11.00000    0.05701    0.05669 =
         0.06054    0.02141    0.01773    0.01964
C41   1    0.718489    0.964309    0.452598    11.00000    0.08016    0.03947 =
         0.06082    0.00549    0.01001    0.02560
C45   1    0.742221    1.102145    0.456856    11.00000    0.07256    0.06267 =
         0.05743    0.01037    0.01304    0.01706
C46   1    0.386698    0.943231    0.120085    11.00000    0.08103    0.08373 =
         0.06290    0.03661    0.01283    0.04592
C47   1    0.677698    0.373462    0.191869    11.00000    0.07573    0.04960 =
         0.07705    0.01665    0.00975    0.02657
C51   1    0.876849    0.815689    0.049113    11.00000    0.08290    0.07253 =
         0.09084    0.04294    0.03564    0.03839
C52   1    0.726505    0.256621    0.164306    11.00000    0.09612    0.05887 =
         0.08996    0.00876    0.01967    0.04068
C53   1    0.198562    0.567174    0.312153    11.00000    0.07643    0.06965 =
         0.05889    0.02501    0.02268    0.03171
C54   1    0.938794    1.104712    0.363834    11.00000    0.06669    0.07060 =
         0.07781    0.01200    0.01164    0.00698
C56   1    0.918407    0.966412    0.358292    11.00000    0.05919    0.06011 =
         0.06637    0.01076    0.00173    0.00564
C57   1    0.332252    1.100400    0.292249    11.00000    0.08798    0.07643 =
         0.07443    0.02697    0.01816    0.04831
C58   1    0.295770    1.125050    0.203060    11.00000    0.08138    0.07144 =
         0.08307    0.03320    0.01586    0.04301
C60   1    0.319918    1.046128    0.115251    11.00000    0.09183    0.07723 =
         0.08255    0.03386    0.02599    0.05455
C63   1    0.675138    0.602853   -0.039724    11.00000    0.08127    0.11604 =
         0.05128    0.01647    0.01128    0.04109
C68   1    0.878919    1.330290    0.419351    11.00000    0.11313    0.04292 =
         0.10736    0.02168    0.00955    0.00412
C69   1    0.847710    0.262215    0.121922    11.00000    0.08371    0.07056 =
         0.08730    0.00834    0.01969    0.04049
C70   1    0.924329    0.385452    0.099179    11.00000    0.08637    0.07636 =
         0.10707    0.00977    0.01950    0.04888
HKLF 4

REM  xb1859_0m in P-1 P-1
REM R1 =  0.0984 for    1908 Fo > 4sig(Fo)  and  0.2187 for all    5069 data
REM    325 parameters refined using      0 restraints

END

WGHT      0.1872      0.0000

REM Highest difference peak  0.583,  deepest hole -0.392,  1-sigma level  0.132
Q1    1   0.0760  0.5337  0.3011  11.00000  0.05    0.58
Q2    1   0.2381  0.4174  0.3990  11.00000  0.05    0.50
Q3    1   0.6376  0.8811  0.1025  11.00000  0.05    0.49
Q4    1   0.6730  0.1603  0.1586  11.00000  0.05    0.45
Q5    1   0.4882  0.6998 -0.0130  11.00000  0.05    0.43
Q6    1   0.5693  0.2940  0.0370  11.00000  0.05    0.43
Q7    1   0.5753  0.3588  0.2179  11.00000  0.05    0.40
Q8    1   0.5518  0.5612  0.0127  11.00000  0.05    0.39
Q9    1   0.3493  1.0007 -0.0581  11.00000  0.05    0.39
Q10   1   0.7587  0.0333  0.1417  11.00000  0.05    0.38
Q11   1   0.5250  0.6073 -0.0200  11.00000  0.05    0.38
Q12   1   0.6223  0.1157  0.0785  11.00000  0.05    0.38
Q13   1   0.7452  0.4403  0.1178  11.00000  0.05    0.37
Q14   1   0.8811  1.0088  0.2030  11.00000  0.05    0.37
Q15   1   0.6963  0.1628  0.0841  11.00000  0.05    0.37
Q16   1   0.5629  0.5663 -0.0540  11.00000  0.05    0.36
Q17   1   0.8808  0.1764  0.1049  11.00000  0.05    0.36
Q18   1   0.9979  0.9324  0.3155  11.00000  0.05    0.36
Q19   1   1.0650  1.1988  0.3050  11.00000  0.05    0.36
Q20   1   0.6937  0.5841 -0.1046  11.00000  0.05    0.35
;
_shelx_res_checksum              87561
_shelx_hkl_file
;
   1   0   0   56.33    0.56
  -2   0   0  562.05    4.43
   2   0   0  552.94    2.49
  -3   0   0   40.55    1.63
  -3   0   0   40.08    1.52
   3   0   0   39.25    0.86
  -4   0   0    0.61    0.44
  -4   0   0    0.67    0.45
   4   0   0    0.55    0.26
  -5   0   0   47.16    2.26
  -5   0   0   46.25    2.10
  -6   0   0   14.75    1.72
  -6   0   0   13.54    1.59
  -7   0   0    0.30    0.72
  -7   0   0    0.19    0.62
  -8   0   0   -0.64    0.64
  -8   0   0   -0.15    0.74
  -9   0   0    0.95    1.02
  -9   0   0    0.07    0.78
 -10   0   0    1.34    1.11
 -10   0   0    0.98    1.22
 -11   0   0    1.30    1.42
 -11   0   0    2.57    1.38
 -11   1   0    1.41    1.42
 -10   1   0    2.21    1.23
 -10   1   0   -0.25    1.11
  -9   1   0    2.49    1.10
  -9   1   0    2.21    1.20
  -8   1   0   10.37    1.65
  -8   1   0    9.37    1.73
  -7   1   0    0.38    0.68
  -7   1   0    1.66    0.82
   6  -1   0    3.14    0.57
  -6   1   0    1.94    0.76
  -6   1   0    2.46    0.83
   5  -1   0    8.35    0.80
  -5   1   0    6.72    1.12
  -5   1   0    8.86    1.09
   4  -1   0    2.18    0.45
  -4   1   0    2.12    0.64
  -4   1   0    4.57    0.72
   3  -1   0   20.69    0.85
  -3   1   0   20.65    0.98
  -3   1   0   22.32    1.25
   2  -1   0    0.06    0.23
  -2   1   0    0.36    0.28
   1  -1   0   93.91    1.37
   0  -1   0   22.13    0.59
  -1  -1   0  167.49    2.27
  -1  -1   0  166.42    1.46
  -2  -1   0   91.98    1.05
  -2  -1   0   91.19    2.13
  -3  -1   0   78.45    2.39
   3   1   0   82.62    1.01
  -4  -1   0   62.31    2.37
  -5  -1   0    5.79    1.05
  -6  -1   0    1.33    0.71
  -6  -1   0    2.71    0.94
  -7  -1   0    1.54    0.89
  -7  -1   0    0.42    0.61
  -8  -1   0    1.81    0.97
  -8  -1   0    3.35    1.15
  -9  -1   0    0.51    0.91
  -9  -1   0    0.02    0.81
 -10  -1   0   -0.44    0.87
 -10  -1   0   -0.31    0.93
 -11  -1   0    0.95    1.08
 -11   2   0    0.86    1.45
 -10   2   0    0.12    1.12
  -9   2   0    4.28    1.46
  -9   2   0    1.43    0.91
  -8   2   0    0.47    0.81
  -8   2   0   -0.21    0.86
  -7   2   0    0.53    0.75
  -7   2   0    2.56    0.91
   6  -2   0    0.77    0.44
  -6   2   0    1.39    0.67
  -6   2   0    0.79    0.67
   5  -2   0    0.00    0.37
  -5   2   0    0.40    0.49
  -5   2   0    0.08    0.45
   4  -2   0   18.45    1.04
  -4   2   0   20.15    1.02
  -4   2   0   16.37    1.54
  -3   2   0   55.77    1.28
  -3   2   0   56.83    2.02
   2  -2   0  101.13    2.06
  -2   2   0  102.25    2.30
   1  -2   0   24.33    0.97
  -1   2   0   25.45    1.04
  -1  -2   0   13.45    1.04
  -1  -2   0   11.12    0.62
  -2  -2   0    3.14    0.40
  -2  -2   0    3.72    0.67
  -3  -2   0    5.55    0.48
  -3  -2   0    4.45    0.85
  -4  -2   0    0.27    0.22
  -4  -2   0   -0.01    0.48
  -5  -2   0    1.92    0.83
  -6  -2   0    0.07    0.68
  -7  -2   0   -0.27    0.55
  -8  -2   0    1.72    0.86
  -8  -2   0    0.60    0.81
  -9  -2   0   -0.06    0.76
  -9  -2   0    0.37    1.01
 -10  -2   0   -0.73    0.84
 -11   3   0    0.23    1.48
 -10   3   0    0.28    1.24
  -9   3   0   -0.48    0.91
  -8   3   0    0.15    0.90
   7  -3   0    5.56    1.03
  -7   3   0    5.75    1.06
  -7   3   0    6.42    1.40
   6  -3   0   37.43    1.72
  -6   3   0   33.49    1.64
  -6   3   0   31.23    2.21
   5  -3   0   85.38    2.51
  -5   3   0   81.87    3.13
  -5   3   0   84.43    2.10
   4  -3   0   28.37    1.44
  -4   3   0   31.69    1.79
  -4   3   0   29.07    1.03
   3  -3   0   34.73    1.54
  -3   3   0   37.36    1.77
   2  -3   0   75.63    2.06
  -2   3   0   76.17    2.29
   1  -3   0    7.15    0.81
   1  -3   0    8.07    0.65
  -1  -3   0    0.07    0.29
  -1  -3   0    1.08    0.48
  -2  -3   0    2.94    0.50
  -2  -3   0    1.64    0.55
  -3  -3   0   28.45    1.03
  -3  -3   0   24.65    1.61
  -4  -3   0    2.10    0.75
  -4  -3   0    4.27    0.51
  -5  -3   0    1.03    0.80
  -6  -3   0    1.46    0.86
  -7  -3   0    4.21    1.25
  -8  -3   0    1.59    0.99
  -9  -3   0    0.81    1.00
 -10  -3   0   -0.03    0.89
 -11   4   0    1.79    1.57
 -10   4   0    1.22    1.34
  -9   4   0   -0.58    0.90
  -8   4   0   -0.38    0.94
   7  -4   0    8.94    1.24
  -7   4   0    9.11    1.67
  -6   4   0   28.77    2.14
   5  -4   0   24.44    1.51
  -5   4   0   22.28    2.09
  -5   4   0   24.37    1.02
   4  -4   0   39.73    1.83
  -4   4   0   40.10    2.15
   3  -4   0  201.30    3.92
  -3   4   0  210.22    4.41
   2  -4   0    1.21    0.47
   2  -4   0    1.02    0.32
  -2   4   0    1.30    0.64
   1  -4   0   59.71    1.62
   1  -4   0   58.48    2.01
   0  -4   0    3.83    0.69
  -1  -4   0   25.62    1.29
  -1  -4   0   24.61    1.45
  -2  -4   0   33.67    1.81
  -2  -4   0   32.22    1.39
  -3  -4   0    2.80    0.57
  -3  -4   0    3.57    0.95
  -4  -4   0   -0.22    0.37
  -5  -4   0    2.65    1.03
  -6  -4   0    9.79    1.65
  -7  -4   0    0.95    0.92
  -8  -4   0    2.70    1.25
  -9  -4   0   -0.49    0.77
 -11   5   0   -1.10    1.23
 -10   5   0    2.03    1.45
  -9   5   0    3.82    1.51
   8  -5   0    1.54    0.86
  -8   5   0    0.30    1.03
   7  -5   0    0.09    0.42
  -7   5   0    2.54    1.15
   6  -5   0   32.48    1.97
  -6   5   0   31.23    2.73
   5  -5   0    2.35    0.78
  -5   5   0    0.63    0.74
   4  -5   0    5.73    1.01
  -4   5   0    5.62    1.16
   3  -5   0   10.44    0.64
   3  -5   0   10.92    1.32
  -3   5   0   14.84    1.71
   2  -5   0  164.92    2.65
   2  -5   0  161.69    3.81
   1  -5   0    1.61    0.51
   1  -5   0    1.77    0.60
  -1  -5   0    6.10    1.02
  -1  -5   0    6.75    0.98
  -2  -5   0   14.12    1.31
  -2  -5   0   14.46    1.63
  -3  -5   0    2.89    0.66
  -3  -5   0    2.79    0.90
  -4  -5   0   10.15    1.71
  -5  -5   0    5.11    1.42
  -6  -5   0   11.83    2.01
  -7  -5   0    0.33    0.85
  -8  -5   0   -0.29    0.86
 -11   6   0    0.69    1.50
 -10   6   0    0.67    1.29
  -9   6   0   -1.35    0.97
   8  -6   0   21.13    2.17
  -8   6   0   17.82    2.49
   7  -6   0    6.01    1.30
  -7   6   0    8.06    1.76
   6  -6   0    9.93    1.54
  -6   6   0    7.99    1.58
   5  -6   0   23.49    2.17
  -5   6   0   25.91    2.53
   4  -6   0    8.35    1.33
  -4   6   0    6.04    1.30
   3  -6   0   14.46    1.61
   3  -6   0   14.83    0.88
   2  -6   0   -0.02    0.37
   2  -6   0   -0.49    0.37
   1  -6   0    5.27    1.00
   1  -6   0    4.29    0.86
   0  -6   0   10.71    1.36
  -1  -6   0    2.81    0.77
  -1  -6   0    2.55    0.83
  -2  -6   0    2.18    0.94
  -2  -6   0    2.46    0.75
  -3  -6   0    6.70    1.41
  -4  -6   0    6.85    1.55
  -5  -6   0    1.03    1.03
  -6  -6   0    0.87    1.09
  -7  -6   0    2.27    1.36
  -8  -6   0   -0.43    0.90
 -11   7   0   -0.53    1.40
 -10   7   0    0.18    1.28
   9  -7   0    1.64    1.04
  -9   7   0    1.69    1.46
   8  -7   0    1.06    0.89
  -8   7   0    0.89    1.20
   7  -7   0    5.97    1.31
  -7   7   0    4.94    1.53
   6  -7   0    6.53    1.39
  -6   7   0    7.30    1.71
   5  -7   0   19.00    2.09
  -5   7   0   15.87    2.15
   4  -7   0   37.94    2.36
   3  -7   0    0.49    0.59
   2  -7   0    2.56    0.75
   2  -7   0    1.86    0.80
   1  -7   0    8.69    1.18
   1  -7   0    9.39    1.48
   0  -7   0   -0.03    0.36
   0  -7   0    0.15    0.54
  -1  -7   0    0.61    0.70
  -1  -7   0    2.26    0.75
  -2  -7   0    6.99    1.16
  -2  -7   0    8.80    1.55
  -3  -7   0    2.24    1.03
  -4  -7   0   -0.56    0.85
  -5  -7   0    0.10    0.96
  -6  -7   0    0.20    0.97
 -11   8   0    0.19    1.57
 -10   8   0    1.14    1.49
   9  -8   0    0.39    1.02
  -9   8   0    0.11    1.20
   8  -8   0    0.89    0.93
  -8   8   0    1.53    1.36
   7  -8   0    0.99    0.91
  -7   8   0    0.56    1.14
   6  -8   0   -0.40    0.66
  -6   8   0    0.52    1.02
   5  -8   0    8.08    1.53
   4  -8   0    2.40    0.97
   3  -8   0    1.39    0.82
   2  -8   0    1.67    0.83
   1  -8   0    9.96    1.38
   1  -8   0   10.43    1.59
   0  -8   0    0.21    0.57
   0  -8   0    1.27    0.80
  -1  -8   0    8.35    1.45
  -1  -8   0    7.09    1.29
  -2  -8   0    0.85    0.70
  -2  -8   0    0.60    0.74
  -3  -8   0    4.54    1.42
  -4  -8   0   -0.11    0.98
  -5  -8   0    2.63    1.48
  -6  -8   0   -0.17    1.18
 -10   9   0   -0.23    1.21
   9  -9   0    0.28    1.04
  -9   9   0    2.94    1.65
   8  -9   0    0.86    1.05
  -8   9   0    0.51    1.11
   7  -9   0    1.34    0.96
  -7   9   0    1.59    1.35
   6  -9   0    0.05    0.81
   5  -9   0   -0.63    0.71
   4  -9   0    3.31    1.12
   3  -9   0    1.40    0.97
   2  -9   0    2.67    1.04
   1  -9   0    0.32    0.69
   0  -9   0    9.55    1.64
   0  -9   0   10.80    1.65
  -1  -9   0    2.34    1.00
  -1  -9   0    0.92    0.95
  -2  -9   0    0.92    1.00
  -3  -9   0    0.76    1.10
  -4  -9   0    0.71    1.16
  -5  -9   0    0.28    1.24
   9 -10   0    1.14    1.26
  -9  10   0    2.23    1.56
   8 -10   0    4.38    1.53
  -8  10   0    1.59    1.43
   7 -10   0    0.46    1.01
   6 -10   0    7.46    1.78
   5 -10   0    0.18    0.94
   4 -10   0    1.76    1.02
   3 -10   0    0.25    0.75
   2 -10   0    0.97    0.85
   1 -10   0    1.45    0.91
   0 -10   0   11.69    1.88
  -1 -10   0    0.97    0.99
  -2 -10   0    0.15    1.05
  -3 -10   0    0.34    1.21
   8 -11   0   -0.19    1.10
   7 -11   0    1.31    1.26
   6 -11   0    1.41    1.26
   5 -11   0    1.59    1.11
   4 -11   0   -0.08    0.76
   3 -11   0    7.91    1.74
   2 -11   0    0.47    0.89
   1 -11   0    3.68    1.27
   0 -11   0    0.15    0.89
   6 -12   0   -0.49    1.11
   5 -12   0    0.92    0.93
   4 -12   0    2.99    1.35
   3 -12   0   -0.62    0.63
   2 -12   0    0.48    0.94
   1 -12   0    1.04    1.10
   1 -12   1    0.53    1.00
   2 -12   1    2.46    1.25
   4 -12   1   -0.28    0.75
   5 -12   1   -0.22    0.79
   6 -12   1    2.05    1.32
   0 -11   1    0.49    0.91
   1 -11   1    2.81    1.19
   2 -11   1    0.80    0.90
   3 -11   1    0.98    0.93
   4 -11   1   -0.50    0.82
   5 -11   1    2.87    1.25
   6 -11   1    0.51    1.08
   7 -11   1    1.46    1.28
   8 -11   1    0.95    1.31
  -4 -10   1    0.77    1.35
  -3 -10   1    2.45    1.44
  -2 -10   1    0.16    0.89
  -1 -10   1    1.68    1.18
  -1 -10   1    5.36    1.39
   0 -10   1    0.64    0.79
   1 -10   1    1.28    0.90
   2 -10   1    5.71    1.42
   3 -10   1    1.64    1.06
   4 -10   1    0.05    0.73
   5 -10   1    0.69    0.90
   6 -10   1    2.33    1.13
   7 -10   1    0.59    0.98
   8 -10   1    0.95    1.07
  -9  10  -1   -0.04    1.39
   9 -10   1    2.07    1.30
  -5  -9   1    0.30    1.23
  -4  -9   1    3.21    1.48
  -3  -9   1    1.94    1.04
  -2  -9   1   -0.11    0.91
  -1  -9   1    2.28    0.93
  -1  -9   1    2.36    1.14
   0  -9   1   -0.09    0.44
   0  -9   1    0.13    0.64
   1  -9   1   29.12    2.74
   2  -9   1   -0.26    0.64
   3  -9   1    0.41    0.67
   4  -9   1    2.53    1.00
   5  -9   1    0.88    0.91
   6  -9   1   -0.46    0.73
  -7   9  -1    1.16    1.20
   7  -9   1    0.57    0.81
  -8   9  -1    0.06    1.30
   8  -9   1    0.77    0.92
  -9   9  -1    0.01    1.21
   9  -9   1    0.80    1.06
 -10   9  -1   -0.19    1.41
  -6  -8   1   -1.06    1.07
  -5  -8   1    1.15    1.28
  -4  -8   1    1.30    1.09
  -3  -8   1    0.22    0.97
  -2  -8   1    1.72    0.80
  -2  -8   1    2.20    1.08
  -1  -8   1    0.89    0.77
  -1  -8   1    0.41    0.62
   0  -8   1   -0.06    0.56
   0  -8   1   -0.01    0.44
   1  -8   1    1.38    0.73
   1  -8   1    2.01    0.87
   2  -8   1    1.86    0.86
   3  -8   1    0.17    0.65
   4  -8   1    1.20    0.81
   5  -8   1   13.47    1.93
  -6   8  -1    0.21    0.96
   6  -8   1    0.05    0.76
  -7   8  -1   18.08    2.62
   7  -8   1   18.44    2.27
  -8   8  -1    0.62    1.19
   8  -8   1    0.29    0.88
  -9   8  -1   -0.56    1.21
   9  -8   1    0.45    0.96
 -10   8  -1   -1.40    1.09
 -11   8  -1   -0.02    1.48
  -7  -7   1   -0.82    1.07
  -6  -7   1    2.59    1.40
  -5  -7   1   -1.06    0.75
  -4  -7   1    3.16    1.29
  -3  -7   1   -1.08    0.72
  -2  -7   1   -0.40    0.62
  -2  -7   1    0.61    0.63
  -1  -7   1    0.59    0.59
  -1  -7   1   -0.38    0.61
   0  -7   1   -0.39    0.43
   1  -7   1    2.29    0.76
   1  -7   1    0.14    0.55
   2  -7   1   10.67    1.23
   2  -7   1   10.35    1.49
   3  -7   1    1.16    0.73
   4  -7   1    7.40    1.35
  -5   7  -1    0.76    0.94
   5  -7   1   -0.40    0.60
  -6   7  -1   10.12    1.89
   6  -7   1   12.59    1.81
  -7   7  -1    1.39    1.10
   7  -7   1    1.01    0.81
  -8   7  -1   -0.18    1.04
   8  -7   1    0.56    0.81
  -9   7  -1   -0.41    1.13
   9  -7   1    0.63    0.97
 -10   7  -1   -0.02    1.33
 -11   7  -1    0.12    1.52
  -8  -6   1    0.85    1.02
  -7  -6   1   -0.72    0.67
  -6  -6   1    2.84    1.29
  -5  -6   1    8.76    1.71
  -4  -6   1    7.78    1.62
  -3  -6   1    5.28    1.23
  -2  -6   1   17.51    1.59
  -2  -6   1   15.43    1.82
  -1  -6   1    0.69    0.61
  -1  -6   1    0.59    0.53
   0  -6   1    6.15    1.03
   0  -6   1    0.91    0.58
   1  -6   1   26.55    1.73
   1  -6   1   23.30    1.46
   2  -6   1    0.25    0.53
   2  -6   1    0.85    0.52
   3  -6   1    7.72    1.21
   3  -6   1    6.54    0.80
  -4   6  -1    0.38    0.81
   4  -6   1    1.20    0.73
  -5   6  -1    2.56    1.04
   5  -6   1    0.70    0.74
  -6   6  -1    3.29    1.21
   6  -6   1    1.75    0.85
  -7   6  -1    4.39    1.44
   7  -6   1    3.83    1.11
  -8   6  -1   14.06    2.26
   8  -6   1   11.71    1.74
  -9   6  -1   10.09    2.12
 -10   6  -1    0.47    1.36
 -11   6  -1   -1.22    1.25
  -9  -5   1    1.02    1.15
  -8  -5   1    0.57    0.93
  -7  -5   1    1.07    0.96
  -6  -5   1    0.90    0.88
  -5  -5   1    1.12    0.90
  -4  -5   1    0.34    0.69
  -3  -5   1    2.40    0.61
  -3  -5   1    2.17    0.86
  -2  -5   1   24.28    1.37
  -2  -5   1   22.33    2.00
  -1  -5   1    8.57    1.21
  -1  -5   1    8.38    1.05
   0  -5   1   18.65    1.30
   1  -5   1   24.13    1.32
   1  -5   1   23.11    1.44
   2  -5   1  179.32    4.00
   2  -5   1  174.02    2.93
  -3   5  -1   50.32    2.43
   3  -5   1   44.78    2.17
   3  -5   1   51.03    1.47
  -4   5  -1   26.26    1.91
   4  -5   1   27.25    1.74
  -5   5  -1   35.19    2.32
   5  -5   1   37.54    2.12
  -6   5  -1    2.30    1.05
   6  -5   1    2.47    0.87
  -7   5  -1    4.08    1.37
  -8   5  -1    1.94    1.11
   8  -5   1    4.33    1.16
  -9   5  -1    3.96    1.47
 -10   5  -1   -0.54    1.04
 -11   5  -1    0.70    1.48
  -9  -4   1    1.44    1.13
  -8  -4   1    0.95    1.02
  -7  -4   1   -0.69    0.69
  -6  -4   1    8.68    1.66
  -5  -4   1    4.03    1.13
  -4  -4   1    1.07    0.63
  -3  -4   1    2.61    0.82
  -3  -4   1    2.62    0.53
  -2  -4   1    0.24    0.37
  -2  -4   1   -0.37    0.41
  -1  -4   1   46.50    1.97
  -1  -4   1   48.67    1.71
   0  -4   1   22.48    1.25
   0  -4   1   19.26    1.18
   1  -4   1   20.76    1.06
   1  -4   1   19.17    1.53
   2  -4   1   23.77    1.41
   2  -4   1   22.88    0.98
  -3   4  -1  164.51    3.96
   3  -4   1  170.80    3.69
  -4   4  -1   -0.22    0.46
   4  -4   1    0.33    0.46
  -5   4  -1    2.69    0.87
  -5   4  -1    1.67    0.48
   5  -4   1    0.86    0.59
  -6   4  -1   17.87    1.19
  -6   4  -1   13.94    1.81
  -7   4  -1    0.29    0.80
   7  -4   1    0.88    0.65
  -8   4  -1    2.42    1.23
  -9   4  -1    0.32    1.10
 -10   4  -1    1.91    1.45
 -11   4  -1   -0.36    1.36
 -10  -3   1    0.60    1.04
 -10  -3   1    3.00    1.39
  -9  -3   1    0.00    0.89
  -9  -3   1    0.21    1.00
  -8  -3   1   -0.08    0.81
  -7  -3   1    0.95    0.91
  -6  -3   1    1.23    0.85
  -5  -3   1    1.81    0.91
  -4  -3   1    2.71    0.83
  -4  -3   1    3.25    0.39
  -3  -3   1   76.79    2.73
  -3  -3   1   75.95    1.52
  -2  -3   1    8.90    1.13
  -2  -3   1   10.35    0.81
  -1  -3   1  102.45    2.09
  -1  -3   1  104.86    2.58
   0  -3   1   20.27    1.08
   0  -3   1   20.58    1.04
   1  -3   1   50.09    1.33
   1  -3   1   48.62    1.67
  -2   3  -1    1.85    0.58
   2  -3   1    0.49    0.41
  -3   3  -1   -0.09    0.36
   3  -3   1    0.89    0.48
  -4   3  -1  101.54    2.13
  -4   3  -1  104.43    3.12
   4  -3   1  100.04    2.59
  -5   3  -1    2.88    0.85
  -5   3  -1    4.67    0.74
   5  -3   1    3.86    0.77
  -6   3  -1   -0.16    0.62
  -6   3  -1    0.08    0.51
   6  -3   1    0.37    0.54
  -7   3  -1    1.72    0.80
  -7   3  -1    5.40    1.37
   7  -3   1    4.91    0.97
  -8   3  -1   17.40    2.41
  -8   3  -1   22.08    2.13
  -9   3  -1   -0.57    0.93
 -10   3  -1   -0.11    1.11
 -11   3  -1   -1.09    1.26
 -10  -2   1    0.58    0.88
 -10  -2   1   -0.50    1.05
  -9  -2   1    0.64    0.97
  -9  -2   1   -0.54    0.69
  -8  -2   1    0.24    0.75
  -8  -2   1   -0.27    0.75
  -7  -2   1    0.06    0.69
  -6  -2   1    1.31    0.84
  -5  -2   1   10.21    1.44
  -4  -2   1    1.66    0.66
  -3  -2   1    2.13    0.25
  -3  -2   1    1.62    0.58
  -2  -2   1  232.85    2.17
  -2  -2   1  235.19    3.84
  -1  -2   1  105.31    1.70
  -1  -2   1  102.38    2.23
   0  -2   1   92.90    1.72
   0  -2   1   93.94    1.70
   1  -2   1   85.49    1.78
  -2   2  -1    0.02    0.34
  -2   2  -1   -0.02    0.20
   2  -2   1    0.05    0.37
  -3   2  -1   12.60    0.77
  -3   2  -1   15.75    1.14
  -4   2  -1   45.25    1.61
  -4   2  -1   46.01    2.03
   4  -2   1   48.04    1.65
  -5   2  -1    0.99    0.52
  -5   2  -1    0.53    0.56
   5  -2   1    0.25    0.42
  -6   2  -1    0.47    0.57
  -6   2  -1   -0.11    0.60
   6  -2   1    1.31    0.55
  -7   2  -1    5.17    1.27
  -7   2  -1    9.18    1.41
  -8   2  -1    0.91    1.01
  -8   2  -1   -0.46    0.67
  -9   2  -1   12.78    1.91
  -9   2  -1    9.69    2.03
 -10   2  -1    0.53    1.20
 -11   2  -1    4.44    1.79
 -11  -1   1   -0.26    1.26
 -11  -1   1    1.29    1.14
 -10  -1   1    0.48    1.11
 -10  -1   1    0.27    0.86
  -9  -1   1    0.02    0.82
  -9  -1   1   -0.49    0.84
  -8  -1   1    2.67    1.08
  -8  -1   1    1.56    0.93
  -7  -1   1    0.68    0.71
  -7  -1   1    0.33    0.78
  -6  -1   1    7.54    1.30
  -5  -1   1    0.48    0.51
  -4  -1   1    3.17    0.72
  -3  -1   1    0.41    0.42
  -2  -1   1   34.34    1.34
  -1  -1   1  129.27    1.26
  -1  -1   1  125.10    1.96
   0  -1   1  311.22    2.36
   1  -1   1   33.66    0.91
  -2   1  -1  103.06    1.80
  -2   1  -1  105.78    2.05
   2  -1   1  101.96    1.75
  -3   1  -1    8.35    0.85
  -3   1  -1    7.93    0.89
   3  -1   1    8.84    0.78
  -4   1  -1   35.21    1.74
  -4   1  -1   38.12    1.66
   4  -1   1   37.72    1.31
  -5   1  -1   -0.07    0.47
  -5   1  -1    0.85    0.57
   5  -1   1   -0.10    0.38
  -6   1  -1    0.32    0.58
  -6   1  -1    1.16    0.68
   6  -1   1    0.70    0.47
  -7   1  -1    4.94    1.28
  -7   1  -1    6.32    1.30
  -8   1  -1    1.74    0.95
  -8   1  -1    3.31    1.24
  -9   1  -1   -0.03    0.95
  -9   1  -1    0.14    0.76
 -10   1  -1    3.05    1.25
 -10   1  -1    3.33    1.52
 -11   1  -1   -1.04    1.34
 -11   0   1   -0.46    1.20
 -10   0   1    0.58    0.89
 -10   0   1    1.02    1.07
  -9   0   1   -0.04    0.88
  -9   0   1   -0.15    0.74
  -8   0   1    2.97    1.13
  -8   0   1    5.04    1.27
  -7   0   1    7.25    1.41
  -7   0   1    5.12    1.19
  -6   0   1    2.78    0.88
  -6   0   1    3.49    0.94
  -5   0   1    0.15    0.43
  -5   0   1   -0.11    0.43
   4   0  -1  150.76    1.45
  -4   0   1  150.74    3.64
  -4   0   1  150.96    3.19
   3   0  -1   39.78    0.71
  -3   0   1   41.46    1.46
   2   0  -1  165.00    1.31
  -2   0   1  168.09    2.33
   1   0  -1  286.05    1.73
   0   0  -1   -0.21    0.05
  -1   0  -1   41.68    0.86
  -2   0  -1  402.11    3.75
  -2   0  -1  405.88    4.08
   2   0   1  418.09    2.93
  -3   0  -1   14.16    1.17
   3   0   1   11.94    0.67
  -4   0  -1    5.83    0.90
  -4   0  -1    4.88    0.84
   4   0   1    5.79    0.60
  -5   0  -1   10.56    1.34
  -5   0  -1    8.49    1.18
   5   0   1    9.61    0.81
  -6   0  -1    8.86    1.34
  -6   0  -1    9.16    1.40
  -7   0  -1    0.58    0.73
  -7   0  -1    0.78    0.79
  -8   0  -1    3.61    1.27
  -8   0  -1    2.24    1.08
  -9   0  -1    0.79    0.87
  -9   0  -1   -0.33    0.96
 -10   0  -1    0.27    0.91
 -10   0  -1    0.65    1.12
 -11   0  -1    0.57    1.02
 -11   1   1   -0.60    1.12
 -10   1   1    3.17    1.43
  -9   1   1    1.94    0.97
  -9   1   1    2.95    1.31
  -8   1   1    4.97    1.37
  -8   1   1    5.80    1.28
  -7   1   1    5.81    1.32
  -7   1   1    1.92    0.81
   6  -1  -1   17.35    0.88
  -6   1   1   17.16    1.88
  -6   1   1   19.28    1.70
   5  -1  -1    2.27    0.42
  -5   1   1    1.69    0.67
  -5   1   1    2.69    0.67
   4  -1  -1   38.09    1.12
  -4   1   1   36.26    1.46
  -4   1   1   36.81    1.84
   3  -1  -1    0.05    0.21
  -3   1   1    0.02    0.35
  -3   1   1   -0.04    0.31
   2  -1  -1   24.52    0.82
  -2   1   1   24.52    1.10
   1  -1  -1   95.53    1.50
   0  -1  -1   79.79    1.35
  -1  -1  -1  347.03    2.79
  -1  -1  -1  344.62    3.48
  -2  -1  -1  114.41    1.67
  -2  -1  -1  115.57    2.48
  -3  -1  -1   51.89    1.98
  -3  -1  -1   49.92    1.15
  -4  -1  -1    6.57    1.07
   4   1   1    8.97    0.67
  -5  -1  -1   39.41    2.16
   5   1   1   37.47    1.14
  -6  -1  -1    1.17    0.67
  -6  -1  -1    1.33    0.77
  -7  -1  -1    1.09    0.78
  -7  -1  -1    0.78    0.79
  -8  -1  -1    0.20    0.79
  -8  -1  -1    1.56    0.99
  -9  -1  -1   -0.98    0.88
  -9  -1  -1    0.87    0.91
 -10  -1  -1    0.35    1.02
 -11   2   1   -0.10    1.26
 -10   2   1    0.54    1.00
  -9   2   1    3.28    1.33
  -8   2   1   -0.50    0.77
  -8   2   1    0.17    0.70
  -7   2   1   12.81    1.85
  -7   2   1   12.35    1.51
   6  -2  -1    0.23    0.34
  -6   2   1    0.48    0.65
  -6   2   1    0.28    0.52
   5  -2  -1   18.44    1.03
  -5   2   1   21.36    1.96
  -5   2   1   20.61    1.19
   4  -2  -1    8.55    0.86
  -4   2   1    7.75    1.10
  -4   2   1    8.09    0.74
  -3   2   1    9.63    1.08
   2  -2  -1   19.48    0.95
  -2   2   1   17.61    1.04
   1  -2  -1  371.51    3.78
  -1   2   1  365.11    3.75
   0  -2  -1   45.34    1.20
  -1  -2  -1  120.31    2.08
  -1  -2  -1  124.86    2.51
  -2  -2  -1   29.53    1.46
  -2  -2  -1   28.75    1.01
  -3  -2  -1   10.38    0.65
  -3  -2  -1   12.67    1.33
  -4  -2  -1    9.48    0.72
  -4  -2  -1    7.81    1.18
  -5  -2  -1   11.51    1.56
  -6  -2  -1    1.47    0.84
  -7  -2  -1   -0.32    0.60
  -7  -2  -1   -0.04    0.57
  -8  -2  -1    0.70    0.82
  -8  -2  -1    1.18    0.93
  -9  -2  -1    0.69    0.98
 -10  -2  -1    1.53    1.23
 -11   3   1    1.14    1.35
 -10   3   1   -0.56    1.10
  -9   3   1   -0.11    0.95
  -8   3   1    0.14    0.97
   7  -3  -1   -0.25    0.48
  -7   3   1   -0.57    0.60
   6  -3  -1   15.09    1.34
  -6   3   1   16.80    1.94
   5  -3  -1   31.29    1.52
  -5   3   1   32.01    1.21
  -5   3   1   27.45    1.90
   4  -3  -1   27.93    1.38
  -4   3   1   28.24    1.77
   3  -3  -1   12.80    1.13
  -3   3   1   13.55    1.32
   2  -3  -1    8.98    0.96
  -2   3   1    9.68    1.07
   1  -3  -1   18.29    1.09
   1  -3  -1   19.47    0.80
   0  -3  -1   48.16    1.62
   0  -3  -1   40.95    1.40
  -1  -3  -1    9.53    0.91
  -2  -3  -1    3.33    0.77
  -2  -3  -1    2.55    0.50
  -3  -3  -1    0.51    0.52
  -3  -3  -1    0.21    0.30
  -4  -3  -1    4.56    1.02
  -4  -3  -1    4.36    0.62
  -5  -3  -1    0.92    0.73
  -6  -3  -1    0.53    0.74
  -7  -3  -1    6.17    1.46
  -8  -3  -1    2.58    1.18
  -9  -3  -1    1.75    1.20
 -11   4   1   -0.83    1.25
 -10   4   1    4.73    1.71
  -9   4   1    0.27    1.13
  -8   4   1    2.46    1.30
   7  -4  -1   13.88    1.49
  -7   4   1   18.79    2.34
   6  -4  -1    0.64    0.41
  -6   4   1    3.46    1.09
   5  -4  -1    0.03    0.43
  -5   4   1    1.72    0.76
   4  -4  -1    2.73    0.71
  -4   4   1    2.44    0.79
   3  -4  -1    8.85    1.08
  -3   4   1    9.43    1.28
   2  -4  -1   88.76    2.59
  -2   4   1   87.37    2.72
   1  -4  -1   27.88    1.48
   1  -4  -1   30.32    1.19
   0  -4  -1   38.72    1.56
   0  -4  -1   35.41    1.61
  -1  -4  -1   81.66    2.35
  -1  -4  -1   81.93    2.63
  -2  -4  -1    1.56    0.68
  -2  -4  -1    0.60    0.41
  -3  -4  -1    8.29    1.30
  -3  -4  -1   10.14    1.00
  -4  -4  -1    2.95    0.91
  -5  -4  -1    0.70    0.75
  -6  -4  -1    2.07    0.95
  -7  -4  -1   -0.52    0.62
  -8  -4  -1    1.54    1.15
  -9  -4  -1    0.32    1.00
 -11   5   1   -0.58    1.22
 -10   5   1    2.02    1.46
  -9   5   1    5.46    1.73
   8  -5  -1   22.66    2.13
  -8   5   1   24.46    2.85
  -7   5   1    4.27    1.37
   6  -5  -1    0.52    0.59
  -6   5   1   -0.06    0.56
   5  -5  -1    6.47    1.12
  -5   5   1    6.31    1.31
   4  -5  -1   -0.38    0.35
  -4   5   1    0.35    0.60
   3  -5  -1   11.03    1.36
  -3   5   1    8.88    1.36
   2  -5  -1   10.43    1.32
   2  -5  -1   10.27    0.86
   1  -5  -1   -0.29    0.33
   1  -5  -1    0.18    0.45
   0  -5  -1   55.82    2.09
   0  -5  -1   52.54    2.18
  -1  -5  -1   17.85    1.70
  -1  -5  -1   26.72    1.56
  -2  -5  -1   20.96    1.37
  -2  -5  -1   17.20    1.82
  -3  -5  -1    1.14    0.79
  -3  -5  -1    0.56    0.47
  -4  -5  -1   -0.12    0.73
  -5  -5  -1    0.73    0.80
  -6  -5  -1    4.58    1.36
  -7  -5  -1    0.52    0.97
  -8  -5  -1   -0.45    0.76
 -11   6   1    0.94    1.30
 -10   6   1    1.69    1.14
  -9   6   1    3.51    1.29
   8  -6  -1   14.30    1.87
  -8   6   1   12.33    2.18
   7  -6  -1    1.61    0.87
  -7   6   1    2.75    1.16
   6  -6  -1    6.52    1.28
  -6   6   1    4.50    1.39
   5  -6  -1    0.61    0.58
  -5   6   1    0.57    0.89
   4  -6  -1    1.60    0.79
  -4   6   1    0.91    0.90
   3  -6  -1   22.04    2.06
   2  -6  -1    3.96    0.70
   2  -6  -1    5.70    1.10
   1  -6  -1   -0.15    0.40
   1  -6  -1   -0.12    0.40
   0  -6  -1    2.38    0.75
   0  -6  -1    1.36    0.67
  -1  -6  -1    5.72    1.14
  -1  -6  -1    3.95    0.91
  -2  -6  -1    2.07    0.85
  -2  -6  -1    2.55    0.77
  -3  -6  -1    6.70    1.07
  -3  -6  -1    4.69    1.26
  -4  -6  -1    5.73    1.49
  -5  -6  -1    1.44    1.09
  -6  -6  -1   -0.43    0.94
  -7  -6  -1    0.74    1.19
  -8  -6  -1    0.48    1.25
 -11   7   1   -0.29    1.39
 -10   7   1    1.74    1.41
   9  -7  -1    2.33    1.13
  -9   7   1    2.43    1.49
   8  -7  -1    0.26    0.79
  -8   7   1    2.41    1.28
   7  -7  -1    6.06    1.37
  -7   7   1    7.11    1.72
   6  -7  -1    0.58    0.83
  -6   7   1    1.23    1.07
   5  -7  -1   36.14    2.43
  -5   7   1   43.71    2.92
   4  -7  -1   12.50    1.77
  -4   7   1   11.82    1.85
   3  -7  -1   36.81    2.34
   2  -7  -1    6.27    1.23
   1  -7  -1    0.26    0.54
   1  -7  -1   -0.03    0.46
   0  -7  -1    1.22    0.72
   0  -7  -1    1.15    0.70
  -1  -7  -1    0.35    0.52
  -1  -7  -1   -0.71    0.64
  -2  -7  -1    0.56    0.75
  -2  -7  -1    0.54    0.63
  -3  -7  -1   -0.06    0.80
  -4  -7  -1    0.21    0.94
  -5  -7  -1    0.25    1.03
  -6  -7  -1    0.01    0.98
  -7  -7  -1    0.10    1.13
 -11   8   1   -0.79    1.51
 -10   8   1   -0.05    1.33
   9  -8  -1    0.27    1.01
  -9   8   1   -0.92    0.90
   8  -8  -1   -0.72    0.79
  -8   8   1    0.68    1.18
   7  -8  -1   -0.44    0.71
  -7   8   1   -0.66    0.77
   6  -8  -1    2.24    1.03
  -6   8   1    0.72    1.14
   5  -8  -1   20.03    2.40
  -5   8   1   14.72    2.20
   4  -8  -1    4.01    1.19
   3  -8  -1    2.14    0.92
   2  -8  -1   11.99    1.81
   1  -8  -1    0.85    0.74
   0  -8  -1    3.85    1.07
   0  -8  -1    4.37    1.11
  -1  -8  -1   12.87    1.80
  -1  -8  -1   14.73    1.82
  -2  -8  -1    1.77    1.12
  -2  -8  -1    1.52    0.78
  -3  -8  -1   -0.31    0.89
  -4  -8  -1    0.16    0.97
  -5  -8  -1    0.22    1.14
  -6  -8  -1    0.00    1.25
 -10   9   1   -1.24    1.17
   9  -9  -1    0.68    1.12
  -9   9   1    0.19    1.15
   8  -9  -1   -0.55    0.88
  -8   9   1    1.01    1.27
   7  -9  -1    1.82    1.16
  -7   9   1    1.18    1.12
   6  -9  -1    0.17    0.74
   5  -9  -1    3.77    1.23
   4  -9  -1    0.50    0.66
   3  -9  -1    5.45    1.38
   2  -9  -1   -0.71    0.54
   1  -9  -1    4.61    1.24
   0  -9  -1    7.39    1.48
  -1  -9  -1   -0.29    0.91
  -1  -9  -1    0.87    0.84
  -2  -9  -1   -0.37    0.96
  -3  -9  -1    0.98    1.07
  -4  -9  -1    0.30    1.06
  -5  -9  -1   -0.76    1.08
   9 -10  -1    0.24    1.20
  -9  10   1    0.94    1.36
   8 -10  -1    0.33    1.09
  -8  10   1   -0.63    0.99
   7 -10  -1    0.25    0.96
   6 -10  -1    0.25    0.91
   5 -10  -1    0.30    0.89
   4 -10  -1    4.50    1.40
   3 -10  -1    0.16    0.72
   2 -10  -1    0.55    0.77
   1 -10  -1    1.60    0.95
   0 -10  -1    3.28    1.15
  -1 -10  -1    0.89    0.98
  -2 -10  -1    1.21    1.13
  -3 -10  -1   -0.94    1.05
   8 -11  -1    0.89    1.32
   7 -11  -1    1.11    1.19
   6 -11  -1    2.25    1.35
   5 -11  -1    2.64    1.22
   4 -11  -1   -0.36    0.76
   3 -11  -1   -0.14    0.80
   2 -11  -1    1.07    0.98
   1 -11  -1    6.23    1.59
   0 -11  -1    2.42    1.25
   5 -12  -1    1.19    1.12
   4 -12  -1    2.37    1.27
   3 -12  -1    1.26    1.10
   2 -12  -1    3.20    1.27
   1 -12  -1    1.31    1.25
   1 -12   2    2.18    1.27
   2 -12   2    0.09    0.90
   3 -12   2    0.12    0.90
   4 -12   2    0.99    0.97
   5 -12   2   -1.08    0.54
   6 -12   2    4.67    1.64
  -2 -11   2    0.57    1.35
   0 -11   2    1.26    1.05
   1 -11   2   -0.27    0.71
   2 -11   2   -0.44    0.73
   3 -11   2    0.69    1.00
   4 -11   2    3.24    1.22
   5 -11   2    1.78    1.06
   6 -11   2    6.00    1.72
   7 -11   2    0.74    1.11
   8 -11   2    0.31    1.19
  -4 -10   2   -0.74    1.25
  -3 -10   2    0.52    1.19
  -2 -10   2    0.44    1.11
  -1 -10   2   -0.55    0.90
  -1 -10   2    0.31    0.76
   0 -10   2    0.61    0.76
   1 -10   2    2.60    1.05
   2 -10   2   10.17    1.75
   3 -10   2    4.16    1.29
   4 -10   2    0.23    0.68
   5 -10   2    7.25    1.61
   6 -10   2   -0.39    0.80
   7 -10   2    0.46    0.93
   8 -10   2    0.28    1.04
  -9  10  -2    0.70    1.42
   9 -10   2    0.71    1.10
  -5  -9   2   -0.53    1.20
  -4  -9   2    0.95    1.24
  -3  -9   2    2.72    1.34
  -2  -9   2   -0.23    0.91
  -1  -9   2   -1.10    0.78
  -1  -9   2   -0.35    0.64
   0  -9   2    5.92    1.32
   0  -9   2    4.57    1.22
   1  -9   2    8.62    1.49
   1  -9   2    8.49    1.51
   2  -9   2    0.90    0.72
   3  -9   2    0.99    0.88
   4  -9   2    2.46    1.09
   5  -9   2    3.35    1.23
   6  -9   2   15.14    2.20
   7  -9   2    0.52    0.93
  -8   9  -2    0.40    1.30
   8  -9   2    1.05    0.95
  -9   9  -2   -0.30    1.34
   9  -9   2    0.51    1.06
 -10   9  -2    0.97    1.59
  -6  -8   2    0.26    1.17
  -5  -8   2   -0.06    0.82
  -4  -8   2    0.33    1.03
  -3  -8   2    0.12    0.92
  -2  -8   2    0.65    0.90
  -2  -8   2    0.79    0.71
  -1  -8   2    7.30    1.42
  -1  -8   2    3.49    0.99
   0  -8   2    0.60    0.65
   0  -8   2    0.32    0.73
   1  -8   2   25.41    2.15
   1  -8   2   23.69    2.30
   2  -8   2    0.25    0.64
   2  -8   2    1.37    0.75
   3  -8   2    9.57    1.60
   4  -8   2    8.86    1.62
   5  -8   2    5.98    1.44
  -6   8  -2   10.59    2.03
   6  -8   2   12.97    1.94
  -7   8  -2    9.57    2.13
   7  -8   2   12.41    1.90
  -8   8  -2    0.38    1.20
   8  -8   2   -0.11    0.83
  -9   8  -2    1.10    1.46
 -10   8  -2   -1.35    1.27
 -11   8  -2   -1.52    1.43
  -7  -7   2    0.95    1.26
  -6  -7   2    3.15    1.61
  -5  -7   2    0.75    1.15
  -4  -7   2   -0.21    0.85
  -3  -7   2    4.05    1.30
  -2  -7   2    3.87    1.00
  -2  -7   2    4.22    1.13
  -1  -7   2    2.32    0.84
  -1  -7   2    2.30    0.91
   0  -7   2    0.59    0.68
   0  -7   2    0.18    0.62
   1  -7   2   -0.05    0.51
   1  -7   2    1.10    0.67
   2  -7   2   15.34    1.46
   2  -7   2   17.43    1.91
   3  -7   2   13.92    1.79
   3  -7   2   12.05    1.23
   4  -7   2   20.95    2.29
  -5   7  -2   14.46    2.06
   5  -7   2   12.48    1.79
  -6   7  -2   11.80    2.05
   6  -7   2   11.80    1.75
  -7   7  -2    1.18    1.10
   7  -7   2    1.48    0.87
  -8   7  -2    2.04    1.33
   8  -7   2    3.21    1.17
  -9   7  -2    0.55    1.25
   9  -7   2   -0.51    0.77
 -10   7  -2    3.86    1.71
 -11   7  -2    1.13    1.58
  -8  -6   2    1.22    1.00
  -7  -6   2    1.68    1.18
  -6  -6   2    2.35    1.17
  -5  -6   2   15.12    2.18
  -4  -6   2    1.21    0.96
  -3  -6   2    5.91    1.37
  -2  -6   2   14.19    1.79
  -2  -6   2   14.39    1.41
  -1  -6   2    1.22    0.72
  -1  -6   2    0.81    0.63
   0  -6   2    0.02    0.53
   0  -6   2    3.44    0.87
   1  -6   2    3.45    0.81
   1  -6   2    3.58    0.91
   2  -6   2    2.41    0.66
   2  -6   2    2.71    0.86
   3  -6   2   10.91    1.08
   3  -6   2    8.23    1.30
  -4   6  -2    3.22    1.09
   4  -6   2    3.22    1.03
  -5   6  -2   26.46    2.60
   5  -6   2   30.84    2.55
  -6   6  -2    7.30    1.55
   6  -6   2    9.25    1.58
  -7   6  -2   -0.78    0.88
   7  -6   2   -0.17    0.73
  -8   6  -2    1.83    1.30
   8  -6   2    3.24    1.14
  -9   6  -2    1.38    1.31
 -10   6  -2   -0.96    1.06
 -11   6  -2    0.04    1.29
  -9  -5   2    0.40    1.02
  -8  -5   2   -0.56    0.83
  -7  -5   2    3.10    1.28
  -6  -5   2   15.01    2.16
  -5  -5   2    0.60    0.80
  -4  -5   2   -0.06    0.65
  -3  -5   2    1.92    0.83
  -3  -5   2    2.58    0.64
  -2  -5   2    7.49    1.26
  -2  -5   2    6.96    0.93
  -1  -5   2    1.18    0.55
  -1  -5   2    1.57    0.68
   0  -5   2    8.43    1.17
   0  -5   2    8.88    1.12
   1  -5   2  139.19    3.08
   1  -5   2  141.32    3.51
   2  -5   2   -0.28    0.26
   2  -5   2    0.10    0.48
   3  -5   2   -0.34    0.41
  -4   5  -2    9.74    1.43
   4  -5   2   11.61    1.45
  -5   5  -2    8.79    1.49
   5  -5   2    8.99    1.32
  -6   5  -2    8.32    1.54
   6  -5   2    7.92    1.35
  -7   5  -2    3.95    1.30
   7  -5   2    2.56    0.97
  -8   5  -2   13.63    2.16
   8  -5   2   14.31    1.89
  -9   5  -2   -0.87    0.91
 -10   5  -2    1.56    1.13
 -11   5  -2    2.46    1.38
  -9  -4   2   -0.49    0.80
  -8  -4   2    0.87    1.04
  -7  -4   2   -0.04    0.79
  -6  -4   2    4.02    1.26
  -5  -4   2    7.00    1.32
  -4  -4   2    3.54    1.02
  -3  -4   2    0.95    0.64
  -3  -4   2    0.47    0.36
  -2  -4   2    0.59    0.39
  -2  -4   2    0.73    0.53
  -1  -4   2   79.40    2.58
  -1  -4   2   81.46    2.23
   0  -4   2   69.31    2.15
   0  -4   2   70.25    2.20
   1  -4   2   86.51    2.40
   1  -4   2   78.01    2.06
   2  -4   2   94.81    2.67
  -3   4  -2    0.14    0.51
   3  -4   2    0.84    0.54
  -4   4  -2    1.86    0.77
   4  -4   2    1.54    0.68
  -5   4  -2    2.68    0.64
  -5   4  -2    1.94    0.86
   5  -4   2    3.57    0.85
  -6   4  -2    0.91    0.55
  -6   4  -2   -0.15    0.55
   6  -4   2    0.37    0.29
  -7   4  -2   12.44    1.84
  -7   4  -2   12.29    1.42
   7  -4   2   13.85    1.57
  -8   4  -2   23.43    2.63
  -9   4  -2    2.12    1.23
 -10   4  -2   -0.23    1.20
 -11   4  -2   -1.08    1.22
 -10  -3   2    2.33    1.25
 -10  -3   2    0.39    1.15
  -9  -3   2    0.15    0.95
  -9  -3   2    0.39    0.99
  -8  -3   2   -0.12    0.76
  -7  -3   2   11.43    1.89
  -6  -3   2    0.40    0.72
  -5  -3   2   -0.01    0.58
  -4  -3   2   13.95    1.65
  -3  -3   2   -0.10    0.25
  -3  -3   2    0.46    0.52
  -2  -3   2   -0.23    0.38
  -2  -3   2    0.58    0.35
  -1  -3   2  122.62    2.28
  -1  -3   2  117.27    2.78
   0  -3   2   -0.72    0.31
   0  -3   2    0.16    0.31
   1  -3   2  213.43    3.43
  -2   3  -2    7.62    0.99
   2  -3   2    7.25    0.91
  -3   3  -2    3.85    0.76
  -3   3  -2    4.33    0.62
   3  -3   2    4.71    0.83
  -4   3  -2   -0.16    0.37
  -4   3  -2   -0.02    0.31
   4  -3   2    0.44    0.48
  -5   3  -2   32.97    1.98
  -5   3  -2   34.63    1.64
  -6   3  -2    9.74    1.24
  -6   3  -2    9.12    1.47
   6  -3   2    7.89    1.14
  -7   3  -2   13.89    1.92
  -7   3  -2   15.53    1.70
   7  -3   2   13.36    1.40
  -8   3  -2    1.87    1.12
  -8   3  -2    2.26    0.98
  -9   3  -2    5.62    1.75
 -10   3  -2    0.76    1.33
 -11   3  -2   -0.20    1.36
 -10  -2   2   -0.55    0.95
 -10  -2   2    0.51    1.05
  -9  -2   2   -0.27    0.78
  -9  -2   2    1.51    1.07
  -8  -2   2    0.38    0.78
  -8  -2   2   -0.74    0.64
  -7  -2   2    8.81    1.60
  -6  -2   2    1.50    0.89
  -5  -2   2    4.20    0.99
  -4  -2   2   51.80    2.32
  -3  -2   2    2.84    0.70
  -3  -2   2    2.52    0.28
  -2  -2   2  119.00    1.71
  -2  -2   2  121.49    2.83
  -1  -2   2    5.68    0.73
  -1  -2   2    5.42    0.60
   0  -2   2  371.70    3.64
   1  -2   2   61.65    1.69
  -2   2  -2  102.43    2.31
  -2   2  -2  102.06    2.00
   2  -2   2  101.85    2.27
  -3   2  -2   34.21    1.55
  -3   2  -2   34.05    1.37
   3  -2   2   37.21    1.49
  -4   2  -2    5.21    0.91
  -4   2  -2    7.08    0.91
   4  -2   2    6.57    0.88
  -5   2  -2   -0.26    0.37
  -5   2  -2   -0.30    0.50
   5  -2   2   -0.33    0.41
  -6   2  -2   21.63    2.07
  -6   2  -2   18.81    1.76
   6  -2   2   19.31    1.54
  -7   2  -2   -0.65    0.63
  -7   2  -2    1.37    0.90
  -8   2  -2   16.76    2.24
  -8   2  -2   14.47    1.96
  -9   2  -2   -0.07    0.76
  -9   2  -2    1.11    1.15
 -10   2  -2    4.52    1.71
 -10   2  -2    2.43    1.19
 -11   2  -2   -1.15    1.39
 -11  -1   2   -0.39    0.94
 -11  -1   2   -0.80    1.13
 -10  -1   2    0.87    1.06
 -10  -1   2    0.86    1.05
  -9  -1   2   -0.21    0.76
  -9  -1   2   -0.30    0.75
  -8  -1   2    2.00    0.89
  -8  -1   2    0.56    0.89
  -7  -1   2    0.98    0.82
  -7  -1   2    0.43    0.67
  -6  -1   2    1.45    0.82
  -5  -1   2    0.23    0.55
  -4  -1   2   86.87    2.69
  -3  -1   2    2.66    0.63
  -2  -1   2   98.43    1.25
  -2  -1   2  102.41    2.24
  -1  -1   2  144.71    2.26
  -1  -1   2  143.19    1.72
   0  -1   2  147.37    1.95
  -1   1  -2   33.39    1.06
   1  -1   2   34.90    1.09
  -2   1  -2  236.41    2.94
  -2   1  -2  232.39    3.14
  -3   1  -2   38.26    1.54
   3  -1   2   38.95    1.36
  -4   1  -2    4.10    0.78
   4  -1   2    6.54    0.77
  -5   1  -2    0.45    0.49
  -5   1  -2    0.03    0.35
   5  -1   2    0.16    0.46
  -6   1  -2    0.85    0.65
  -6   1  -2   -0.17    0.52
   6  -1   2    0.64    0.54
  -7   1  -2    2.18    0.88
  -7   1  -2    8.42    1.47
  -8   1  -2    0.47    0.92
  -8   1  -2   -0.24    0.68
  -9   1  -2    2.60    1.29
  -9   1  -2    4.55    1.37
 -10   1  -2    1.25    1.11
 -10   1  -2    0.62    1.35
 -11   1  -2    1.20    1.23
 -11   0   2    0.49    1.17
 -10   0   2    3.04    1.21
 -10   0   2    0.48    1.03
  -9   0   2   -0.12    0.85
  -9   0   2    1.27    0.90
  -8   0   2    3.62    1.20
  -8   0   2    1.75    0.86
  -7   0   2    1.08    0.75
  -7   0   2    0.20    0.70
  -6   0   2    3.32    0.88
  -6   0   2    6.77    1.27
   5   0  -2    0.15    0.19
  -5   0   2    0.09    0.48
  -5   0   2    0.41    0.45
   4   0  -2    0.35    0.19
  -4   0   2   -0.33    0.34
   3   0  -2    7.94    0.46
  -3   0   2   10.49    0.95
   2   0  -2    0.11    0.17
  -2   0   2    0.32    0.29
   1   0  -2    0.00    0.06
   0   0  -2  140.33    1.93
  -1   0  -2  189.33    2.30
  -1   0  -2  187.09    2.58
  -2   0  -2  135.94    2.62
  -2   0  -2  139.18    2.06
   2   0   2  138.86    2.15
  -3   0  -2   11.97    1.19
  -3   0  -2   13.29    0.89
   3   0   2   12.03    0.78
  -4   0  -2   -0.19    0.44
  -4   0  -2    0.17    0.39
   4   0   2    0.46    0.39
  -5   0  -2    0.54    0.39
  -5   0  -2    1.57    0.73
   5   0   2    1.90    0.56
  -6   0  -2   11.15    1.60
  -7   0  -2    0.37    0.65
  -7   0  -2    0.26    0.76
  -8   0  -2    6.11    1.46
  -8   0  -2    8.40    1.68
  -9   0  -2    0.38    1.12
  -9   0  -2    1.31    0.86
 -10   0  -2    0.38    0.92
 -11   0  -2    1.61    1.37
 -11   1   2   -0.19    1.17
 -10   1   2    0.25    1.02
  -9   1   2    7.36    1.44
  -9   1   2    6.02    1.63
  -8   1   2    3.13    1.20
  -8   1   2    3.19    1.08
  -7   1   2    4.34    1.02
  -7   1   2    2.79    1.06
   6  -1  -2    1.94    0.44
  -6   1   2    1.48    0.75
  -6   1   2    2.32    0.75
   5  -1  -2   40.17    1.27
  -5   1   2   44.52    1.81
  -5   1   2   40.93    2.23
   4  -1  -2    0.39    0.24
  -4   1   2    0.62    0.38
  -4   1   2    0.35    0.44
   3  -1  -2   10.15    0.66
  -3   1   2   12.55    0.75
  -3   1   2   10.44    1.09
  -2   1   2    2.01    0.47
   1  -1  -2  360.93    3.46
  -1   1   2  364.00    3.25
  -1  -1  -2  444.54    3.88
  -2  -1  -2    0.55    0.39
  -2  -1  -2    0.84    0.33
  -3  -1  -2   11.63    0.71
  -3  -1  -2   12.80    1.28
  -4  -1  -2   -0.14    0.42
   4   1   2    0.09    0.32
  -5  -1  -2   50.28    2.25
  -5  -1  -2   48.61    2.47
   5   1   2   51.79    1.57
  -6  -1  -2    8.02    1.26
  -6  -1  -2    7.14    1.40
  -7  -1  -2    2.44    1.03
  -7  -1  -2    5.20    1.14
  -8  -1  -2    0.01    0.68
  -8  -1  -2    0.59    0.80
  -9  -1  -2   -0.65    0.69
 -10  -1  -2    1.07    0.89
 -11   2   2   -1.18    1.14
 -10   2   2    1.15    1.21
  -9   2   2    1.20    1.09
  -8   2   2    4.81    1.39
  -7   2   2    0.38    0.72
  -7   2   2   -0.66    0.62
   6  -2  -2    0.31    0.35
  -6   2   2    0.50    0.64
  -6   2   2    0.32    0.52
   5  -2  -2   45.02    1.61
  -5   2   2   43.57    1.57
  -5   2   2   42.67    2.32
   4  -2  -2    2.16    0.48
  -4   2   2    1.54    0.65
  -4   2   2    2.05    0.43
  -3   2   2  103.77    2.78
   2  -2  -2   29.49    1.24
  -2   2   2   32.21    1.42
   1  -2  -2  230.21    3.28
  -1   2   2  231.09    3.00
   0  -2  -2   86.08    1.99
  -1  -2  -2   26.81    1.28
  -1  -2  -2   26.92    1.12
  -2  -2  -2   28.16    1.13
  -2  -2  -2   28.23    1.50
  -3  -2  -2   17.35    1.63
  -3  -2  -2   13.51    0.85
  -4  -2  -2   11.16    0.92
  -4  -2  -2   10.47    1.41
  -5  -2  -2    5.26    1.14
  -6  -2  -2    0.26    0.65
  -6  -2  -2    0.23    0.58
  -7  -2  -2    5.09    1.28
  -7  -2  -2    7.05    1.34
  -8  -2  -2   -0.72    0.67
  -9  -2  -2    0.00    0.91
 -10  -2  -2    3.30    1.50
 -11   3   2    0.27    1.34
 -10   3   2   -0.66    1.09
  -9   3   2   -0.95    0.88
  -8   3   2   -0.51    0.86
   7  -3  -2    9.31    1.15
  -7   3   2    5.15    1.33
   6  -3  -2    5.63    0.93
  -6   3   2    7.96    0.94
  -6   3   2    8.20    1.47
   5  -3  -2    2.54    0.63
  -5   3   2    1.85    0.47
  -5   3   2    0.55    0.66
   4  -3  -2   14.59    1.29
  -4   3   2   11.25    1.43
   3  -3  -2   18.74    1.18
  -3   3   2   18.12    1.30
   2  -3  -2    4.89    0.77
  -2   3   2    5.40    0.83
   1  -3  -2   59.98    1.44
   1  -3  -2   61.82    1.98
  -1   3   2   59.32    1.85
   0  -3  -2    2.48    0.55
   0  -3  -2    2.89    0.52
  -1  -3  -2    3.51    0.64
  -1  -3  -2    4.35    0.76
  -2  -3  -2   27.76    1.28
  -2  -3  -2   24.48    1.55
  -3  -3  -2   16.64    1.00
  -3  -3  -2   23.20    1.97
  -4  -3  -2   23.30    1.20
  -4  -3  -2   21.05    2.09
  -5  -3  -2    0.77    0.73
  -6  -3  -2    9.60    1.67
  -7  -3  -2    1.78    1.00
  -8  -3  -2    3.18    1.26
  -9  -3  -2    0.40    0.96
 -11   4   2   -0.88    1.18
 -10   4   2   -0.46    0.97
  -9   4   2    0.45    1.16
  -8   4   2    2.47    1.40
   7  -4  -2   -0.33    0.41
  -7   4   2    0.21    0.87
  -6   4   2   22.16    2.37
   5  -4  -2    6.04    1.02
  -5   4   2    7.28    1.32
   4  -4  -2    2.50    0.71
  -4   4   2    3.46    0.91
   3  -4  -2    3.86    0.80
  -3   4   2    1.95    0.74
   2  -4  -2   13.53    1.35
  -2   4   2   13.36    1.35
   1  -4  -2   33.85    1.66
   1  -4  -2   29.14    1.22
   0  -4  -2   11.32    1.21
   0  -4  -2   12.70    1.18
  -1  -4  -2   12.34    1.31
  -1  -4  -2   15.99    1.40
  -2  -4  -2    9.83    1.09
  -2  -4  -2   11.95    1.45
  -3  -4  -2   25.08    1.36
  -3  -4  -2   24.56    2.17
  -4  -4  -2   -0.46    0.62
  -5  -4  -2    6.07    1.41
  -6  -4  -2    0.06    0.69
  -7  -4  -2    0.96    0.94
  -8  -4  -2    0.62    0.97
  -9  -4  -2   -0.53    0.98
 -11   5   2    0.28    1.40
 -10   5   2   -0.80    1.04
  -9   5   2    3.34    1.53
   8  -5  -2   -0.45    0.65
  -8   5   2    0.61    0.99
  -7   5   2   10.37    1.82
   6  -5  -2   11.36    1.48
  -6   5   2   17.90    2.17
   5  -5  -2    6.58    1.16
  -5   5   2    7.15    1.36
   4  -5  -2    9.79    1.34
  -4   5   2   10.63    1.56
   3  -5  -2    3.13    0.78
  -3   5   2    4.13    1.01
   2  -5  -2    0.55    0.53
   2  -5  -2    0.28    0.33
   1  -5  -2   -0.38    0.33
   1  -5  -2   -0.10    0.39
   0  -5  -2   30.05    1.62
   0  -5  -2   30.15    1.72
  -1  -5  -2    1.31    0.62
  -1  -5  -2    1.10    0.60
  -2  -5  -2   22.76    1.48
  -2  -5  -2   22.47    2.05
  -3  -5  -2    5.44    1.22
  -3  -5  -2    8.01    1.07
  -4  -5  -2    3.76    1.21
  -5  -5  -2   -0.11    0.74
  -6  -5  -2    0.30    0.92
  -7  -5  -2    2.06    1.20
  -8  -5  -2    2.45    1.28
 -11   6   2   -0.16    1.44
 -10   6   2   -0.04    1.22
  -9   6   2    0.97    1.28
   8  -6  -2   -0.46    0.70
  -8   6   2   -0.14    0.46
   7  -6  -2    8.38    1.46
  -7   6   2   11.51    1.99
   6  -6  -2    8.51    1.46
  -6   6   2    8.74    1.70
   5  -6  -2    0.30    0.58
  -5   6   2   -0.31    0.77
   4  -6  -2   13.38    1.71
  -4   6   2   13.76    1.86
   3  -6  -2   21.29    2.05
  -3   6   2   21.04    2.10
   2  -6  -2    0.20    0.43
   2  -6  -2    2.92    0.61
   1  -6  -2    0.25    0.49
   1  -6  -2    0.43    0.53
   0  -6  -2   -0.18    0.43
   0  -6  -2   -0.04    0.41
  -1  -6  -2   10.35    1.35
  -1  -6  -2   10.52    1.44
  -2  -6  -2   12.80    1.73
  -2  -6  -2    9.83    1.29
  -3  -6  -2    9.38    1.24
  -3  -6  -2   10.10    1.73
  -4  -6  -2    0.91    0.99
  -5  -6  -2    7.15    1.72
  -6  -6  -2    1.72    1.25
  -7  -6  -2    1.22    1.24
 -11   7   2   -0.30    1.37
 -10   7   2   -0.81    1.08
  -9   7   2   -0.38    1.02
   8  -7  -2    2.39    1.12
  -8   7   2    2.32    1.35
   7  -7  -2    7.59    1.54
  -7   7   2    4.73    1.50
   6  -7  -2    0.49    0.74
  -6   7   2   -0.25    0.82
   5  -7  -2   14.01    1.88
  -5   7   2   12.87    1.99
   4  -7  -2    8.32    1.49
  -4   7   2    7.58    1.60
   3  -7  -2   24.71    2.41
   2  -7  -2    2.66    0.92
   1  -7  -2    4.00    0.92
   1  -7  -2    6.13    1.28
   0  -7  -2   12.27    1.51
   0  -7  -2   15.59    1.79
  -1  -7  -2   22.35    2.17
  -1  -7  -2   18.53    1.92
  -2  -7  -2    3.42    0.94
  -2  -7  -2    1.01    0.90
  -3  -7  -2   -0.01    0.76
  -4  -7  -2    0.20    0.93
  -5  -7  -2    0.53    1.09
  -6  -7  -2    2.50    1.42
 -10   8   2   -0.13    1.09
   9  -8  -2    0.19    0.98
  -9   8   2   -1.14    0.90
   8  -8  -2    1.78    1.10
  -8   8   2    3.18    1.49
   7  -8  -2    1.91    1.06
  -7   8   2    0.11    1.06
   6  -8  -2    5.42    1.41
  -6   8   2    5.28    1.60
   5  -8  -2    3.28    1.16
  -5   8   2    5.10    1.46
   4  -8  -2    2.89    1.07
   3  -8  -2    8.84    1.61
   2  -8  -2    3.39    1.07
   1  -8  -2    2.35    0.96
   0  -8  -2   16.38    1.96
   0  -8  -2   17.91    1.94
  -1  -8  -2    0.35    0.63
  -1  -8  -2    0.19    0.76
  -2  -8  -2    5.30    1.22
  -2  -8  -2    6.53    1.54
  -3  -8  -2    0.07    0.90
  -4  -8  -2    0.64    1.08
  -5  -8  -2   -0.04    1.03
 -10   9   2   -0.86    1.17
   9  -9  -2    0.82    1.15
  -9   9   2    0.88    1.47
   8  -9  -2    2.22    1.20
  -8   9   2    2.87    1.40
   7  -9  -2    0.28    0.91
  -7   9   2    0.44    1.16
   6  -9  -2    1.59    1.14
  -6   9   2    2.12    1.35
   5  -9  -2    0.77    0.95
   4  -9  -2    6.96    1.55
   3  -9  -2   -0.25    0.51
   2  -9  -2    1.51    0.85
   1  -9  -2    0.16    0.60
   0  -9  -2    3.17    1.03
  -1  -9  -2    0.40    0.79
  -1  -9  -2    0.50    0.89
  -2  -9  -2    0.04    1.01
  -3  -9  -2    1.34    1.23
  -4  -9  -2    0.31    1.14
   9 -10  -2    2.58    1.50
  -9  10   2   -0.08    1.27
   8 -10  -2    0.72    1.01
  -8  10   2   -0.01    1.21
   7 -10  -2    1.09    1.17
   6 -10  -2   -0.09    0.97
   5 -10  -2    1.38    1.04
   4 -10  -2    0.78    0.86
   3 -10  -2    4.90    1.36
   2 -10  -2    0.15    0.76
   1 -10  -2    1.57    0.99
   0 -10  -2    0.31    0.81
  -1 -10  -2    0.25    0.87
  -3 -10  -2   -0.45    1.17
   8 -11  -2    2.38    1.60
   7 -11  -2    1.03    1.29
   6 -11  -2    0.71    1.21
   5 -11  -2    1.46    0.96
   4 -11  -2    1.59    1.07
   3 -11  -2    1.91    1.02
   2 -11  -2   -0.07    0.83
   1 -11  -2    0.77    0.97
   0 -11  -2    0.02    0.94
   3 -12  -2    0.46    0.95
   2 -12  -2    3.84    1.46
   1 -12   3    0.29    1.07
   2 -12   3    0.51    0.96
   3 -12   3    3.02    1.31
   4 -12   3    1.95    1.14
   5 -12   3    4.22    1.53
   6 -12   3   -0.13    1.02
  -3 -11   3    1.02    1.47
  -2 -11   3    1.03    1.29
  -1 -11   3    0.07    1.17
   0 -11   3    0.07    0.92
   1 -11   3   -1.00    0.67
   2 -11   3    5.93    1.49
   3 -11   3    1.21    1.05
   4 -11   3    4.47    1.40
   5 -11   3    0.43    0.92
   6 -11   3    6.53    1.74
   7 -11   3    1.75    1.29
   8 -11   3    0.53    1.20
  -4 -10   3    1.59    1.42
  -3 -10   3    0.48    1.15
  -2 -10   3   -0.12    1.01
  -1 -10   3   -0.48    0.73
  -1 -10   3    1.23    1.13
   0 -10   3    0.53    0.98
   0 -10   3   -0.06    0.72
   1 -10   3    0.98    0.83
   2 -10   3    2.71    1.12
   3 -10   3    3.74    1.30
   4 -10   3    0.15    0.64
   5 -10   3    2.49    1.22
   6 -10   3    1.23    1.04
   7 -10   3    1.21    1.09
   8 -10   3    0.38    1.00
   9 -10   3    0.29    1.09
  -5  -9   3   -0.71    1.19
  -4  -9   3    4.16    1.55
  -3  -9   3   -0.04    1.06
  -2  -9   3    0.88    1.05
  -1  -9   3    0.39    0.90
  -1  -9   3    0.86    0.75
   0  -9   3   -0.03    0.62
   0  -9   3   -0.18    0.67
   1  -9   3    6.76    1.30
   1  -9   3    3.60    1.04
   2  -9   3   22.19    2.39
   3  -9   3    4.78    1.36
   4  -9   3    0.72    0.75
   5  -9   3    5.73    1.51
   6  -9   3    1.08    1.04
   7  -9   3    0.26    0.92
  -8   9  -3    0.74    1.36
   8  -9   3    0.67    1.02
  -9   9  -3    0.46    1.36
   9  -9   3   -0.22    0.98
 -10   9  -3    0.73    1.65
  -6  -8   3   -1.11    1.09
  -5  -8   3    0.42    1.15
  -4  -8   3    1.38    1.15
  -3  -8   3    1.39    1.07
  -2  -8   3    0.72    0.64
  -2  -8   3    2.03    1.10
  -1  -8   3    1.91    0.82
  -1  -8   3    1.38    0.88
   0  -8   3    3.92    1.08
   0  -8   3    4.59    1.11
   1  -8   3   17.93    1.83
   1  -8   3   28.48    2.48
   2  -8   3   48.59    2.33
   2  -8   3   46.59    2.67
   3  -8   3    2.73    1.06
   4  -8   3   25.11    2.55
   5  -8   3    1.67    1.06
   6  -8   3   41.76    3.43
  -7   8  -3    0.45    1.20
   7  -8   3    1.13    0.98
  -8   8  -3   -0.10    1.20
   8  -8   3    2.39    1.19
  -9   8  -3    0.34    1.22
   9  -8   3    1.60    1.12
 -10   8  -3   -0.11    1.25
  -7  -7   3   -0.95    1.06
  -6  -7   3   -1.18    0.91
  -5  -7   3    1.75    1.17
  -4  -7   3   -0.69    0.78
  -3  -7   3    1.11    1.02
  -2  -7   3    4.18    1.19
  -2  -7   3    5.16    0.99
  -1  -7   3    3.26    1.04
  -1  -7   3    2.86    0.86
   0  -7   3    2.92    0.95
   0  -7   3    3.03    0.96
   1  -7   3    2.07    0.88
   1  -7   3    0.07    0.33
   2  -7   3    0.41    0.54
   2  -7   3   -0.88    0.46
   3  -7   3   14.07    1.35
   3  -7   3   10.91    1.59
   4  -7   3   -0.30    0.65
   5  -7   3   32.15    2.81
  -6   7  -3    0.31    1.05
   6  -7   3    1.61    1.03
  -7   7  -3    6.73    1.75
   7  -7   3    8.28    1.55
  -8   7  -3   -0.40    1.07
   8  -7   3    0.18    0.96
  -9   7  -3    1.41    1.33
   9  -7   3    1.28    1.17
 -10   7  -3    2.19    1.57
 -11   7  -3    2.15    1.65
  -8  -6   3   -1.44    0.75
  -7  -6   3    1.17    0.90
  -6  -6   3    2.50    1.26
  -5  -6   3    0.82    0.92
  -4  -6   3    0.72    0.94
  -3  -6   3    7.54    1.46
  -2  -6   3    2.20    0.94
  -2  -6   3    4.99    0.95
  -1  -6   3    2.72    0.82
  -1  -6   3    3.54    1.02
   0  -6   3   40.31    2.09
   0  -6   3   41.54    2.14
   1  -6   3   -0.08    0.25
   1  -6   3    0.58    0.62
   2  -6   3    9.23    1.11
   2  -6   3    7.21    1.25
   3  -6   3   43.89    2.29
   4  -6   3   25.48    2.25
   5  -6   3   22.63    2.22
  -6   6  -3   15.49    2.16
   6  -6   3   16.43    1.95
  -7   6  -3    1.24    1.08
   7  -6   3   -1.12    0.63
  -8   6  -3    1.44    1.20
   8  -6   3    0.49    0.87
  -9   6  -3   -0.05    1.08
 -10   6  -3   -1.21    0.98
 -11   6  -3   -0.33    1.39
  -9  -5   3    0.42    1.04
  -8  -5   3   -0.82    0.78
  -7  -5   3    1.92    1.06
  -6  -5   3    1.61    0.96
  -5  -5   3    0.53    0.84
  -4  -5   3    0.99    0.83
  -3  -5   3    4.31    0.77
  -3  -5   3    3.75    1.03
  -2  -5   3    2.26    0.66
  -2  -5   3    2.19    0.81
  -1  -5   3   38.67    1.81
  -1  -5   3   46.08    2.22
   0  -5   3   17.41    1.62
   0  -5   3   20.73    1.71
   2  -5   3    5.22    0.98
   3  -5   3    6.04    1.08
  -4   5  -3   10.06    1.48
   4  -5   3    6.04    1.13
  -5   5  -3    0.51    0.73
   5  -5   3    1.27    0.74
  -6   5  -3    5.84    1.34
   6  -5   3    5.34    1.20
  -7   5  -3    3.29    1.19
   7  -5   3    1.86    0.98
  -8   5  -3    2.10    1.10
   8  -5   3    4.00    1.19
  -9   5  -3    0.47    1.15
 -10   5  -3    3.16    1.58
 -11   5  -3   -0.24    1.33
  -9  -4   3    0.79    1.14
  -8  -4   3    0.04    0.85
  -7  -4   3    9.76    1.84
  -6  -4   3   14.21    1.96
  -5  -4   3    0.44    0.77
  -4  -4   3    0.16    0.67
  -3  -4   3    2.22    0.79
  -3  -4   3    2.78    0.56
  -2  -4   3   10.85    1.07
  -2  -4   3    8.01    1.18
  -1  -4   3   37.52    1.58
  -1  -4   3   37.19    1.85
   0  -4   3   28.45    1.49
   0  -4   3   32.70    1.55
   1  -4   3    2.45    0.71
   2  -4   3   12.43    1.30
  -3   4  -3   23.14    1.58
   3  -4   3   21.27    1.46
  -4   4  -3   67.74    2.77
   4  -4   3   67.42    2.53
  -5   4  -3    4.47    0.86
  -5   4  -3    6.87    1.27
   5  -4   3    5.32    1.04
  -6   4  -3    0.18    0.72
  -6   4  -3    0.77    0.56
   6  -4   3    0.34    0.67
  -7   4  -3    0.94    0.88
  -7   4  -3    1.24    0.76
   7  -4   3    0.48    0.70
  -8   4  -3   19.64    2.37
  -8   4  -3   21.70    2.10
  -9   4  -3   -0.24    1.03
 -10   4  -3    0.89    1.29
 -11   4  -3   -0.83    1.25
 -10  -3   3    0.93    1.19
 -10  -3   3    0.75    1.05
  -9  -3   3    0.67    1.00
  -8  -3   3    1.36    1.03
  -7  -3   3    2.71    1.14
  -6  -3   3    5.96    1.33
  -5  -3   3    3.62    1.06
  -4  -3   3    4.02    1.04
  -3  -3   3    8.19    1.25
  -3  -3   3    8.64    0.76
  -2  -3   3   24.38    1.11
  -2  -3   3   23.30    1.46
  -1  -3   3    1.88    0.58
  -1  -3   3    1.67    0.53
   0  -3   3   76.57    2.10
   1  -3   3   13.73    1.20
   2  -3   3   48.67    1.88
  -3   3  -3   -0.06    0.44
  -3   3  -3    0.51    0.38
   3  -3   3    0.08    0.45
  -4   3  -3   21.19    1.53
  -4   3  -3   20.38    1.25
   4  -3   3   18.64    1.58
  -5   3  -3   18.10    1.59
  -5   3  -3   16.23    1.65
  -6   3  -3   16.55    1.85
  -6   3  -3   16.94    1.70
   6  -3   3   16.58    1.63
  -7   3  -3   53.36    2.69
  -7   3  -3   49.75    2.85
   7  -3   3   51.11    2.34
  -8   3  -3    7.49    1.61
  -8   3  -3    9.37    1.62
  -9   3  -3    1.27    1.22
  -9   3  -3   -0.05    0.78
 -10   3  -3    0.02    1.20
 -10  -2   3    0.77    1.13
 -10  -2   3   -0.38    0.92
  -9  -2   3   -0.27    0.72
  -9  -2   3    1.59    1.01
  -8  -2   3    2.90    1.12
  -7  -2   3   -0.97    0.58
  -6  -2   3    0.13    0.73
  -5  -2   3   -0.98    0.41
  -4  -2   3    5.97    1.09
  -3  -2   3    0.36    0.33
  -3  -2   3    0.30    0.46
  -2  -2   3   10.85    0.80
  -2  -2   3    8.79    1.04
  -1  -2   3   47.19    1.69
  -1  -2   3   45.58    1.37
   0  -2   3    4.47    0.70
   1  -2   3  260.14    3.57
  -2   2  -3    4.50    0.68
   2  -2   3    4.51    0.71
  -3   2  -3    2.74    0.58
   3  -2   3    2.25    0.61
  -4   2  -3    0.73    0.49
  -4   2  -3   -0.31    0.22
   4  -2   3   -0.12    0.12
  -5   2  -3    0.87    0.63
  -5   2  -3   -0.13    0.48
   5  -2   3    0.07    0.51
  -6   2  -3    0.35    0.63
  -6   2  -3    1.15    0.72
   6  -2   3    0.48    0.66
  -7   2  -3    7.36    1.40
  -7   2  -3    8.65    1.55
  -8   2  -3    1.07    0.85
  -8   2  -3    1.20    1.06
  -9   2  -3    6.48    1.75
  -9   2  -3    4.13    1.41
 -10   2  -3    1.32    1.21
 -11  -1   3    1.05    1.33
 -11  -1   3   -0.03    1.06
 -10  -1   3   -0.57    0.88
 -10  -1   3    0.36    0.91
  -9  -1   3    3.14    1.14
  -9  -1   3    1.06    1.02
  -8  -1   3    0.27    0.81
  -8  -1   3   -0.81    0.60
  -7  -1   3    0.31    0.78
  -6  -1   3    2.07    0.82
  -5  -1   3   11.38    1.44
  -4  -1   3   15.45    1.44
  -4  -1   3   15.60    0.55
  -3  -1   3   -0.18    0.23
  -3  -1   3    0.31    0.44
  -2  -1   3   88.25    1.58
  -2  -1   3   87.99    2.16
  -1  -1   3    6.53    0.65
   0  -1   3    7.14    0.72
  -1   1  -3  279.10    3.50
   1  -1   3  271.92    3.40
  -2   1  -3   93.55    2.29
  -2   1  -3   92.49    1.89
   2  -1   3   95.05    2.15
  -3   1  -3    1.84    0.52
  -3   1  -3    2.68    0.62
  -4   1  -3   21.84    1.33
  -4   1  -3   19.79    1.66
   4  -1   3   20.40    1.23
  -5   1  -3   15.09    1.59
  -5   1  -3   12.67    1.42
   5  -1   3   12.55    1.19
  -6   1  -3    4.60    1.09
  -6   1  -3    4.36    0.97
   6  -1   3    4.14    0.87
  -7   1  -3   -0.25    0.40
  -7   1  -3    2.23    0.98
  -8   1  -3    3.95    1.22
  -9   1  -3    0.06    0.93
  -9   1  -3    1.19    0.97
 -10   1  -3    0.25    0.89
 -11   1  -3   -0.54    1.11
 -11   0   3   -0.32    1.18
 -10   0   3   -0.16    0.84
 -10   0   3    2.03    1.11
  -9   0   3    2.11    1.11
  -9   0   3    0.03    0.81
  -8   0   3   -0.47    0.71
  -8   0   3   -0.46    0.66
  -7   0   3    0.61    0.66
  -7   0   3    1.83    0.87
  -6   0   3   -0.24    0.56
  -6   0   3   -0.34    0.48
   5   0  -3    3.09    0.43
  -5   0   3    2.57    0.74
   4   0  -3    3.34    0.45
  -4   0   3    2.84    0.66
   3   0  -3   48.85    1.27
  -3   0   3   47.70    1.61
   2   0  -3   48.58    1.32
  -2   0   3   47.01    1.41
   1   0  -3  291.21    3.29
   0   0  -3    0.26    0.24
   0   0  -3   -0.05    0.20
  -1   0  -3  772.57    5.64
  -1   0  -3  783.51    6.14
  -2   0  -3  459.26    5.29
  -2   0  -3  456.02    4.62
  -3   0  -3   28.35    1.20
  -3   0  -3   26.94    1.51
   3   0   3   27.68    1.24
  -4   0  -3   18.00    1.66
  -4   0  -3   20.06    1.25
   4   0   3   17.55    1.12
  -5   0  -3   47.23    2.12
   5   0   3   46.48    1.77
  -6   0  -3   -0.19    0.50
  -6   0  -3    2.76    0.90
  -7   0  -3   27.05    2.57
  -7   0  -3   25.87    2.39
  -8   0  -3   -0.90    0.56
  -9   0  -3    0.11    0.88
 -10   0  -3   -0.20    0.98
 -11   1   3    0.44    1.23
 -10   1   3    0.35    1.08
  -9   1   3    9.33    1.89
  -8   1   3    5.02    1.19
  -8   1   3    5.29    1.47
  -7   1   3   19.76    1.85
  -7   1   3   19.33    2.24
   6  -1  -3    1.69    0.46
  -6   1   3    1.43    0.68
  -6   1   3    0.53    0.69
   5  -1  -3    0.12    0.29
  -5   1   3    0.91    0.50
  -5   1   3   -0.26    0.41
   4  -1  -3    2.22    0.45
  -4   1   3    1.47    0.61
  -4   1   3    3.05    0.59
   3  -1  -3   17.31    0.92
  -3   1   3   14.16    1.30
  -3   1   3   17.23    0.87
   2  -1  -3   15.26    0.86
  -2   1   3   16.22    1.00
   1  -1  -3  161.72    2.70
  -1   1   3  161.08    2.29
   0  -1  -3   48.85    1.46
   0  -1  -3   53.88    1.57
  -1  -1  -3  127.45    2.48
  -1  -1  -3  130.87    2.68
  -2  -1  -3  167.07    2.90
  -3  -1  -3    0.09    0.30
  -3  -1  -3    0.24    0.40
  -3  -1  -3    0.32    0.33
  -4  -1  -3    8.70    1.35
  -4  -1  -3   13.24    1.22
   4   1   3   10.89    1.06
  -5  -1  -3    0.43    0.70
  -5  -1  -3   -0.32    0.42
   5   1   3    0.45    0.49
  -6  -1  -3    4.90    1.30
  -6  -1  -3    9.59    1.35
  -7  -1  -3   -0.06    0.78
  -8  -1  -3    1.67    1.00
  -9  -1  -3   -0.18    0.70
 -10  -1  -3    0.27    1.03
 -11   2   3    0.09    1.12
 -10   2   3    6.23    1.79
  -9   2   3    5.80    1.61
  -8   2   3    3.29    1.36
  -7   2   3    0.66    0.62
  -7   2   3    0.00    0.70
   6  -2  -3    2.06    0.56
  -6   2   3    1.77    0.82
  -6   2   3    2.02    0.64
   5  -2  -3    0.78    0.42
  -5   2   3    1.54    0.51
  -5   2   3    1.19    0.69
   4  -2  -3   56.40    1.87
  -4   2   3   54.15    2.41
  -4   2   3   53.55    1.41
   3  -2  -3    0.40    0.34
  -3   2   3    0.39    0.45
   2  -2  -3    5.96    0.80
  -2   2   3    6.88    0.85
   1  -2  -3   13.42    0.92
   1  -2  -3   14.85    0.76
  -1   2   3   14.33    0.89
  -1  -2  -3  191.12    3.51
  -1  -2  -3  191.34    3.30
  -2  -2  -3    0.12    0.39
  -2  -2  -3    0.37    0.34
  -3  -2  -3   57.27    1.84
  -3  -2  -3   58.14    2.48
  -4  -2  -3    0.39    0.40
  -4  -2  -3    0.53    0.61
  -5  -2  -3    9.48    1.57
  -6  -2  -3   11.95    1.81
  -7  -2  -3    1.47    1.02
  -8  -2  -3    1.80    1.04
  -9  -2  -3    2.05    1.28
 -10  -2  -3    0.15    1.12
 -11   3   3   -0.49    1.26
 -10   3   3   -0.79    1.06
  -9   3   3    1.36    1.22
  -8   3   3    7.74    1.76
   7  -3  -3    2.24    0.67
  -7   3   3    4.21    1.24
   6  -3  -3    0.43    0.41
  -6   3   3    0.58    0.68
  -5   3   3   36.22    1.15
  -5   3   3   34.91    2.21
   4  -3  -3    7.37    1.00
  -4   3   3    7.19    1.15
   3  -3  -3    0.14    0.30
  -3   3   3   -0.01    0.40
   2  -3  -3    0.36    0.34
  -2   3   3    0.86    0.51
   1  -3  -3   24.31    1.39
   1  -3  -3   24.85    1.07
  -1   3   3   25.61    1.26
   0  -3  -3   10.60    1.12
   0  -3  -3    7.60    0.89
  -1  -3  -3    9.89    1.13
  -1  -3  -3   11.85    1.14
  -2  -3  -3   73.89    2.24
  -2  -3  -3   78.68    2.79
  -3  -3  -3   30.60    1.98
  -3  -3  -3   31.42    1.49
  -4  -3  -3   13.47    1.71
  -4  -3  -3   15.32    1.31
  -5  -3  -3   20.01    2.25
  -6  -3  -3    0.30    0.75
  -7  -3  -3    4.71    1.44
  -8  -3  -3    2.33    1.24
  -9  -3  -3    0.95    1.10
 -11   4   3   -0.57    1.39
 -10   4   3    0.00    1.14
  -9   4   3    0.75    1.10
  -8   4   3    2.01    1.13
   7  -4  -3   12.85    1.52
  -7   4   3   14.14    2.19
   6  -4  -3    0.38    0.35
  -6   4   3    0.53    0.83
   5  -4  -3   10.94    1.35
  -5   4   3   10.43    1.55
   4  -4  -3   -0.12    0.32
  -4   4   3   -0.31    0.50
   3  -4  -3   21.32    1.80
  -3   4   3   19.82    1.79
   2  -4  -3    0.18    0.31
   2  -4  -3    0.13    0.25
  -2   4   3   -0.09    0.51
   1  -4  -3    1.58    0.58
   1  -4  -3    0.41    0.38
   0  -4  -3   25.15    1.42
   0  -4  -3   21.26    1.41
  -1  -4  -3    0.15    0.44
  -1  -4  -3    0.12    0.40
  -2  -4  -3   27.26    1.53
  -2  -4  -3   28.11    1.84
  -3  -4  -3   10.22    1.16
  -3  -4  -3    7.43    1.29
  -4  -4  -3   13.99    1.87
  -5  -4  -3   -0.24    0.64
  -6  -4  -3    2.19    1.16
  -7  -4  -3    0.00    0.88
  -8  -4  -3    0.48    0.96
 -11   5   3   -0.34    1.38
 -10   5   3    0.20    1.32
  -9   5   3   -0.14    0.95
   8  -5  -3    6.10    1.30
  -8   5   3    7.12    1.77
   7  -5  -3    1.80    0.81
  -7   5   3    1.90    1.06
   6  -5  -3   -0.46    0.51
  -6   5   3   -0.09    0.86
   5  -5  -3    9.17    1.38
  -5   5   3    9.47    1.52
   4  -5  -3    0.10    0.47
  -4   5   3   -0.02    0.65
   3  -5  -3   25.54    2.15
  -3   5   3   28.78    1.92
   2  -5  -3   12.10    0.85
   2  -5  -3   11.52    1.40
  -2   5   3   12.97    1.46
   1  -5  -3   64.79    2.13
   1  -5  -3   68.03    2.68
   0  -5  -3   10.18    1.32
   0  -5  -3   11.38    1.30
  -1  -5  -3   52.12    2.31
  -1  -5  -3   51.30    2.36
  -2  -5  -3    3.24    0.97
  -2  -5  -3    1.82    0.66
  -3  -5  -3    4.83    1.21
  -3  -5  -3    4.03    0.89
  -4  -5  -3   -0.08    0.79
  -5  -5  -3    6.00    1.49
  -6  -5  -3    0.60    1.04
  -7  -5  -3   -0.27    0.98
  -8  -5  -3    1.18    1.32
 -11   6   3   -0.71    1.35
 -10   6   3   -0.90    1.04
  -9   6   3    9.45    2.06
   8  -6  -3    2.48    1.07
  -8   6   3    2.10    1.31
   7  -6  -3   54.58    2.96
  -7   6   3   61.19    3.52
   6  -6  -3    1.37    0.79
  -6   6   3    1.94    1.03
   5  -6  -3    0.41    0.66
  -5   6   3    0.88    0.86
   4  -6  -3   16.21    1.93
  -4   6   3   14.62    1.87
   3  -6  -3    1.79    0.80
  -3   6   3    3.13    1.11
   2  -6  -3    5.99    1.17
   1  -6  -3    0.30    0.53
   1  -6  -3    0.04    0.45
   0  -6  -3    9.90    1.35
   0  -6  -3   10.86    1.50
  -1  -6  -3   -0.11    0.55
  -1  -6  -3    0.11    0.46
  -2  -6  -3   13.56    1.53
  -2  -6  -3   11.39    1.61
  -3  -6  -3    0.13    0.74
  -3  -6  -3    0.21    0.51
  -4  -6  -3    5.07    1.43
  -5  -6  -3   -0.21    0.86
  -6  -6  -3    1.54    1.25
  -7  -6  -3   -0.02    1.10
 -11   7   3   -1.44    1.36
 -10   7   3   -0.04    1.30
  -9   7   3   -0.38    1.11
   8  -7  -3    2.29    1.09
  -8   7   3    1.57    1.17
   7  -7  -3    2.14    1.03
  -7   7   3    1.21    1.06
   6  -7  -3   23.21    2.50
  -6   7   3   23.96    2.68
   5  -7  -3   -0.19    0.63
  -5   7   3    0.34    0.96
   4  -7  -3    1.14    0.83
  -4   7   3    0.43    0.93
   3  -7  -3    8.16    1.43
   2  -7  -3   12.40    1.73
   1  -7  -3   23.45    2.27
   0  -7  -3    2.43    0.88
   0  -7  -3    3.94    0.99
  -1  -7  -3   25.71    2.32
  -1  -7  -3   27.48    2.42
  -2  -7  -3    4.91    1.10
  -2  -7  -3    6.17    1.42
  -3  -7  -3    3.65    1.30
  -4  -7  -3    1.15    1.10
  -5  -7  -3   -0.29    1.00
  -6  -7  -3   -0.79    1.01
 -10   8   3    0.28    1.41
   9  -8  -3   -0.20    1.12
  -9   8   3    0.32    1.21
   8  -8  -3    1.87    1.16
  -8   8   3    0.91    1.20
   7  -8  -3    5.11    1.47
  -7   8   3    6.10    1.72
   6  -8  -3    2.47    1.13
  -6   8   3    3.91    1.41
   5  -8  -3    9.37    1.76
  -5   8   3    8.80    1.84
   4  -8  -3    0.97    0.85
   3  -8  -3    1.74    0.86
   2  -8  -3    0.86    0.83
   1  -8  -3    0.06    0.62
   0  -8  -3    2.83    0.95
  -1  -8  -3    8.41    1.53
  -1  -8  -3    8.00    1.48
  -2  -8  -3    1.61    1.05
  -2  -8  -3    0.32    0.74
  -3  -8  -3    0.81    1.08
  -4  -8  -3    1.53    1.17
  -5  -8  -3    0.19    1.19
 -10   9   3    3.24    1.76
   9  -9  -3    0.71    1.33
  -9   9   3   -0.58    1.11
   8  -9  -3    3.58    1.45
  -8   9   3    2.70    1.52
   7  -9  -3    0.85    1.11
  -7   9   3    1.96    1.27
   6  -9  -3   -0.19    0.84
  -6   9   3   -0.50    0.93
   5  -9  -3    0.63    0.92
   4  -9  -3    1.06    0.78
   3  -9  -3   -0.07    0.62
   2  -9  -3    2.69    1.07
   1  -9  -3    0.59    0.78
   0  -9  -3    0.69    0.72
  -1  -9  -3   -0.12    0.73
  -2  -9  -3   -0.16    1.05
  -3  -9  -3   -0.38    1.07
  -4  -9  -3   -0.13    1.34
   9 -10  -3    1.65    1.53
  -9  10   3    1.81    1.63
   8 -10  -3    0.77    1.31
  -8  10   3   -0.18    1.18
   7 -10  -3    0.25    1.14
   6 -10  -3    0.80    1.11
   5 -10  -3    3.21    1.44
   4 -10  -3    0.13    0.67
   3 -10  -3    0.02    0.77
   2 -10  -3    0.81    0.88
   1 -10  -3    5.24    1.40
   0 -10  -3    0.54    0.83
  -1 -10  -3    3.83    1.39
   7 -11  -3    0.69    1.38
   6 -11  -3    0.52    1.26
   5 -11  -3    0.04    0.80
   4 -11  -3    1.19    1.06
   3 -11  -3    0.33    0.93
   2 -11  -3    3.38    1.35
   1 -11  -3   -0.41    0.88
   0 -11  -3    0.52    1.03
   1 -12   4    0.80    1.15
   2 -12   4    0.29    0.91
   3 -12   4    0.08    0.77
   4 -12   4    2.52    1.20
   5 -12   4    1.02    1.01
   6 -12   4    2.41    1.46
  -3 -11   4   -0.50    1.15
  -2 -11   4   -0.76    1.14
  -1 -11   4   -0.36    1.27
   0 -11   4   -0.05    0.79
   1 -11   4    0.96    0.95
   2 -11   4   -0.65    0.66
   3 -11   4    1.04    0.92
   4 -11   4    0.01    0.76
   5 -11   4    0.20    0.83
   6 -11   4   -0.50    1.04
   7 -11   4   -0.09    1.08
   8 -11   4    0.14    1.08
  -4 -10   4    0.20    1.22
  -3 -10   4    1.09    1.25
  -2 -10   4   -0.53    1.12
  -1 -10   4    3.67    1.19
  -1 -10   4    0.68    1.05
   0 -10   4    0.35    0.72
   0 -10   4    0.05    0.91
   1 -10   4    0.93    0.80
   1 -10   4   -0.19    0.64
   2 -10   4    4.85    1.38
   3 -10   4    2.87    1.15
   4 -10   4    3.06    1.21
   5 -10   4    1.73    1.17
   6 -10   4    3.24    1.34
   7 -10   4    0.19    1.05
   8 -10   4    0.04    1.05
   9 -10   4    0.44    1.19
  -5  -9   4    1.12    1.30
  -4  -9   4    2.48    1.37
  -3  -9   4    1.18    1.24
  -2  -9   4   -0.07    0.92
  -1  -9   4    1.06    0.96
  -1  -9   4    0.82    0.78
   0  -9   4    1.89    0.89
   0  -9   4    2.58    1.11
   1  -9   4   15.69    2.02
   2  -9   4   25.65    2.62
   2  -9   4   23.94    2.18
   3  -9   4    1.55    0.99
   4  -9   4   -0.16    0.70
   5  -9   4    2.46    1.22
   6  -9   4    4.05    1.39
   7  -9   4    0.75    1.09
   8  -9   4    1.48    1.18
  -9   9  -4    1.12    1.48
   9  -9   4    0.25    1.15
 -10   9  -4   -0.14    1.44
  -6  -8   4   -0.90    1.11
  -5  -8   4    0.86    1.09
  -4  -8   4   -0.65    0.99
  -3  -8   4    1.03    0.98
  -2  -8   4    2.35    1.02
  -1  -8   4    2.30    1.07
  -1  -8   4    2.26    0.93
   0  -8   4    0.72    0.78
   0  -8   4    0.48    0.68
   1  -8   4    4.92    1.20
   1  -8   4    2.72    0.91
   2  -8   4    1.15    0.87
   2  -8   4    0.65    0.68
   3  -8   4   14.29    1.97
   3  -8   4   14.04    1.53
   4  -8   4    0.41    0.84
   5  -8   4    9.20    1.72
   6  -8   4   -0.16    0.75
  -7   8  -4   -0.08    1.04
   7  -8   4    0.34    0.97
  -8   8  -4    3.48    1.50
   8  -8   4    3.82    1.40
  -9   8  -4    1.53    1.52
   9  -8   4    2.10    1.32
 -10   8  -4    0.92    1.41
  -7  -7   4    0.46    1.08
  -6  -7   4   -0.37    0.99
  -5  -7   4   -0.59    0.93
  -4  -7   4    1.33    1.01
  -2  -7   4    2.18    1.01
  -2  -7   4    0.39    0.70
  -1  -7   4    5.22    1.15
  -1  -7   4    3.09    0.98
   0  -7   4    1.58    0.82
   0  -7   4    1.72    0.89
   1  -7   4   21.75    1.98
   1  -7   4   18.44    1.92
   2  -7   4    2.56    0.77
   2  -7   4    0.96    0.79
   3  -7   4    0.87    0.79
   3  -7   4    1.11    0.61
   4  -7   4    0.09    0.74
   5  -7   4   -0.04    0.81
  -6   7  -4   -0.73    0.84
   6  -7   4   -0.24    0.86
  -7   7  -4    2.43    1.26
   7  -7   4    1.15    1.00
  -8   7  -4    3.67    1.56
   8  -7   4    3.99    1.27
  -9   7  -4    1.98    1.39
   9  -7   4    1.56    1.19
 -10   7  -4    0.61    1.34
 -11   7  -4   -0.36    1.42
  -8  -6   4    0.58    0.73
  -7  -6   4    0.28    0.92
  -6  -6   4    2.06    1.16
  -5  -6   4    1.03    1.00
  -4  -6   4    5.63    1.39
  -3  -6   4   13.32    1.89
  -2  -6   4    6.18    1.11
  -2  -6   4    6.22    1.30
  -1  -6   4    8.44    1.23
  -1  -6   4   11.14    1.55
   0  -6   4    1.00    0.64
   0  -6   4    2.67    0.83
   1  -6   4    3.32    0.80
   1  -6   4    3.84    0.95
   2  -6   4    0.83    0.69
   3  -6   4    7.75    1.36
   4  -6   4    8.40    1.43
  -5   6  -4    1.13    1.02
   5  -6   4    0.79    0.88
  -6   6  -4    0.87    0.98
   6  -6   4   -0.04    0.82
  -7   6  -4    1.42    1.14
   7  -6   4    2.47    1.10
  -8   6  -4   10.05    1.93
   8  -6   4   14.04    1.92
  -9   6  -4    5.68    1.71
 -10   6  -4    0.61    1.32
 -11   6  -4    0.17    1.62
  -9  -5   4   -0.06    1.01
  -8  -5   4   -0.21    0.81
  -7  -5   4    0.10    0.76
  -6  -5   4    1.28    1.01
  -5  -5   4    3.83    1.26
  -4  -5   4    0.18    0.66
  -3  -5   4    0.71    0.59
  -3  -5   4    0.35    0.67
  -2  -5   4    7.78    1.06
  -2  -5   4   11.28    1.57
  -1  -5   4    0.02    0.55
  -1  -5   4    0.28    0.46
   0  -5   4   75.24    2.66
   1  -5   4    2.87    0.83
   2  -5   4    2.22    0.83
   3  -5   4   11.62    1.47
   4  -5   4    3.30    0.96
  -5   5  -4   -0.16    0.73
   5  -5   4    1.29    0.87
  -6   5  -4    0.46    0.78
   6  -5   4    1.52    0.91
  -7   5  -4   11.53    1.81
  -7   5  -4   11.17    1.51
   7  -5   4   10.62    1.65
  -8   5  -4    3.16    1.30
   8  -5   4    0.88    0.77
  -9   5  -4    6.42    1.72
 -10   5  -4   -0.19    1.21
 -11   5  -4    1.44    1.63
  -9  -4   4    0.27    0.96
  -8  -4   4    0.76    0.98
  -7  -4   4    2.51    1.10
  -6  -4   4    1.38    1.02
  -5  -4   4   19.67    2.34
  -4  -4   4    7.56    1.41
  -3  -4   4    0.67    0.60
  -3  -4   4    2.47    0.61
  -2  -4   4    7.77    0.95
  -2  -4   4    7.84    1.21
  -1  -4   4   96.21    2.57
  -1  -4   4   98.53    2.98
   0  -4   4   46.00    1.92
   0  -4   4   44.16    1.94
   1  -4   4    3.48    0.79
   2  -4   4    2.54    0.75
   3  -4   4   16.58    1.64
  -4   4  -4    1.12    0.69
   4  -4   4   -0.06    0.52
  -5   4  -4    4.83    1.12
  -5   4  -4    3.58    0.82
   5  -4   4    4.65    1.09
  -6   4  -4    0.77    0.66
  -6   4  -4    0.77    0.78
   6  -4   4   -0.62    0.60
  -7   4  -4    7.18    1.28
  -7   4  -4    3.94    1.20
   7  -4   4    6.29    1.26
  -8   4  -4    0.39    1.07
  -8   4  -4    1.77    0.92
  -9   4  -4    2.13    1.23
 -10   4  -4    0.47    1.23
 -10  -3   4    0.29    1.10
 -10  -3   4    1.99    1.22
  -9  -3   4    1.42    1.07
  -8  -3   4    0.50    0.93
  -7  -3   4   18.67    2.23
  -6  -3   4   18.39    2.13
  -5  -3   4    0.41    0.70
  -4  -3   4    0.19    0.36
  -4  -3   4   -0.19    0.55
  -3  -3   4    2.55    0.81
  -3  -3   4    1.98    0.53
  -2  -3   4    0.66    0.48
  -2  -3   4    0.90    0.57
  -1  -3   4   12.05    1.24
  -1  -3   4   13.06    1.15
   0  -3   4    5.69    0.87
   1  -3   4   10.29    1.14
   2  -3   4   15.22    1.39
  -3   3  -4   47.56    1.88
  -3   3  -4   45.32    1.98
   3  -3   4   43.83    1.97
  -4   3  -4    6.35    0.97
  -4   3  -4    7.56    1.12
   4  -3   4    6.55    1.11
  -5   3  -4    3.72    0.92
  -5   3  -4    3.12    0.80
   5  -3   4    4.26    0.97
  -6   3  -4   15.99    1.80
  -6   3  -4   16.70    1.79
   6  -3   4   14.64    1.63
  -7   3  -4   15.05    1.91
  -7   3  -4   11.18    1.63
   7  -3   4   11.04    1.51
  -8   3  -4    7.00    1.50
  -8   3  -4    7.45    1.54
  -9   3  -4   -0.17    0.91
  -9   3  -4    0.05    0.86
 -10  -2   4   -0.52    0.76
 -10  -2   4    0.84    1.14
  -9  -2   4    0.63    0.93
  -9  -2   4   -0.04    0.81
  -8  -2   4    1.06    0.88
  -7  -2   4    5.72    1.32
  -6  -2   4    2.65    1.06
  -5  -2   4    8.18    1.33
  -4  -2   4    0.10    0.54
  -4  -2   4    0.58    0.37
  -3  -2   4   23.36    1.56
  -3  -2   4   24.40    1.03
  -2  -2   4   11.45    1.20
  -2  -2   4   13.82    0.90
  -1  -2   4   -0.25    0.36
   0  -2   4    6.10    0.84
   1  -2   4   23.22    1.31
  -2   2  -4   11.49    1.11
   2  -2   4   11.43    1.18
  -3   2  -4    4.88    0.78
  -3   2  -4    4.28    0.77
   3  -2   4    5.11    0.85
  -4   2  -4   -0.17    0.38
  -4   2  -4    0.06    0.41
   4  -2   4    0.16    0.50
  -5   2  -4   19.91    1.75
  -5   2  -4   19.58    1.83
   5  -2   4   21.20    1.70
  -6   2  -4    2.79    0.90
  -6   2  -4    2.40    0.86
   6  -2   4    2.76    0.90
  -7   2  -4   12.50    1.77
  -7   2  -4   18.91    2.04
  -8   2  -4   -0.04    0.80
  -8   2  -4   -0.04    0.62
  -9   2  -4    1.21    0.96
 -10   2  -4    1.99    1.33
 -11  -1   4   -0.47    1.08
 -10  -1   4    0.58    0.91
 -10  -1   4    1.24    1.17
  -9  -1   4    1.23    1.00
  -9  -1   4    0.75    0.96
  -8  -1   4    0.35    0.82
  -8  -1   4    0.28    0.84
  -7  -1   4    2.11    0.92
  -6  -1   4    4.04    1.08
  -5  -1   4    2.78    0.80
  -4  -1   4    1.46    0.40
  -4  -1   4    2.21    0.71
   3   1  -4    5.18    0.62
  -3  -1   4    4.54    0.80
   2   1  -4    2.62    0.51
  -2  -1   4    2.44    0.62
   1   1  -4   13.40    1.07
   0  -1   4    2.59    0.58
  -1   1  -4    1.47    0.47
   1  -1   4    1.54    0.54
  -2   1  -4    7.74    0.73
  -2   1  -4    5.73    0.84
   2  -1   4    7.81    0.95
  -3   1  -4    1.07    0.52
  -3   1  -4    0.43    0.39
   3  -1   4    0.72    0.48
  -4   1  -4   30.97    1.52
  -4   1  -4   29.61    1.78
   4  -1   4   32.61    1.57
  -5   1  -4    0.40    0.62
  -5   1  -4    0.57    0.61
   5  -1   4    0.79    0.60
  -6   1  -4   19.77    2.10
  -6   1  -4   24.23    1.80
   6  -1   4   23.81    1.57
  -7   1  -4    2.66    1.02
  -7   1  -4    2.72    1.00
  -8   1  -4    1.23    0.95
  -9   1  -4    0.26    0.93
 -10   1  -4    1.20    1.17
 -11   0   4   -0.29    1.09
 -10   0   4    0.25    0.99
  -9   0   4    0.81    0.92
  -9   0   4    0.68    1.01
  -8   0   4   -0.06    0.76
  -8   0   4    1.13    0.90
  -7   0   4    5.19    1.31
  -7   0   4    6.97    1.26
  -6   0   4    3.46    1.05
  -6   0   4    2.19    0.85
   5   0  -4    0.07    0.29
  -5   0   4   -0.39    0.40
   4   0  -4   16.94    0.92
  -4   0   4   18.63    1.25
   3   0  -4   10.69    0.92
  -3   0   4   10.98    1.02
   2   0  -4   -0.07    0.12
   1   0  -4   42.46    1.49
   0   0  -4  201.66    3.29
   0   0  -4  198.76    3.12
  -1   0  -4  994.26    7.32
  -1   0  -4 1000.00    7.68
  -2   0  -4   59.66    2.10
  -2   0  -4   56.53    1.86
  -3   0  -4  115.50    3.24
  -3   0  -4  111.84    2.17
  -4   0  -4    5.87    0.84
  -4   0  -4    7.72    1.23
   4   0   4    6.39    0.90
  -5   0  -4    2.57    0.77
  -5   0  -4    1.40    0.80
   5   0   4    2.86    0.73
  -6   0  -4   10.59    1.64
  -6   0  -4   10.22    1.39
  -7   0  -4    5.92    1.39
  -8   0  -4    0.91    0.92
  -9   0  -4   -0.24    0.84
 -10   0  -4    0.41    1.01
 -11   1   4   -0.59    0.98
 -10   1   4    4.66    1.64
  -9   1   4    5.38    1.58
  -8   1   4   11.13    1.59
  -8   1   4    9.71    1.80
  -7   1   4    9.60    1.67
  -7   1   4    7.14    1.22
   6  -1  -4    3.94    0.68
  -6   1   4    5.17    1.19
  -6   1   4    3.13    0.81
   5  -1  -4   73.62    2.03
  -5   1   4   69.13    2.19
  -5   1   4   70.80    3.03
   4  -1  -4   13.16    1.10
  -4   1   4   13.11    1.08
  -4   1   4   16.34    1.67
  -3   1   4    4.55    0.83
  -3   1   4    3.30    0.55
   2  -1  -4    5.61    0.76
  -2   1   4    6.29    0.79
   1  -1  -4    7.61    0.88
  -1   1   4    7.04    0.68
   0  -1  -4    6.01    0.75
   0  -1  -4    8.09    0.93
  -1  -1  -4   83.23    2.27
  -1  -1  -4   80.73    2.34
  -2  -1  -4    1.11    0.45
  -2  -1  -4    0.71    0.45
  -3  -1  -4   33.13    1.19
  -3  -1  -4   33.06    1.84
  -3  -1  -4   33.59    1.47
  -4  -1  -4    5.05    0.85
  -4  -1  -4    4.26    0.98
  -4  -1  -4    6.01    0.82
  -5  -1  -4    8.97    1.14
  -5  -1  -4   11.00    1.64
   5   1   4    8.96    1.11
  -6  -1  -4    0.94    0.82
  -7  -1  -4    1.24    0.88
  -8  -1  -4   -0.92    0.63
  -9  -1  -4    1.36    1.19
 -10  -1  -4    1.23    1.17
 -11   2   4    2.54    1.43
 -10   2   4   -0.44    0.89
  -9   2   4    1.35    1.09
  -8   2   4   -0.80    0.72
  -7   2   4    0.53    0.74
   6  -2  -4    0.34    0.43
  -6   2   4    1.70    0.61
  -6   2   4    0.53    0.61
   5  -2  -4    5.24    0.83
  -5   2   4    5.39    1.15
  -5   2   4    3.77    0.68
   4  -2  -4    0.10    0.16
  -4   2   4   -0.22    0.42
  -4   2   4   -0.21    0.30
   3  -2  -4    0.83    0.40
  -3   2   4    0.25    0.46
   2  -2  -4   45.77    1.79
  -2   2   4   47.10    1.76
   1  -2  -4  127.98    2.39
   1  -2  -4  123.22    2.88
  -1   2   4  125.93    2.31
  -1  -2  -4   16.86    1.13
  -1  -2  -4   17.59    1.24
  -2  -2  -4   40.01    1.98
  -2  -2  -4   40.61    1.72
  -3  -2  -4   -0.59    0.35
  -3  -2  -4    0.08    0.41
  -4  -2  -4    1.82    0.63
  -4  -2  -4    2.06    0.79
  -5  -2  -4    2.65    1.00
  -6  -2  -4    1.15    0.87
  -7  -2  -4    1.38    0.72
  -8  -2  -4    0.83    0.94
  -9  -2  -4    0.49    0.92
 -11   3   4    3.34    1.78
 -10   3   4    2.28    1.38
  -9   3   4    2.09    1.24
  -8   3   4    1.24    1.01
   7  -3  -4    0.90    0.59
  -7   3   4    1.66    1.00
   6  -3  -4    0.77    0.45
  -6   3   4   -0.47    0.58
  -5   3   4   11.38    1.63
   4  -3  -4   36.08    1.81
  -4   3   4   34.57    2.02
   3  -3  -4    1.00    0.47
  -3   3   4    1.21    0.60
   2  -3  -4   18.73    0.87
   2  -3  -4   20.46    1.66
   1  -3  -4    3.32    0.60
   1  -3  -4    4.25    0.81
  -1   3   4    2.48    0.59
   0  -3  -4    4.55    0.80
  -1  -3  -4   51.13    2.12
  -1  -3  -4   46.07    1.96
  -2  -3  -4    2.17    0.62
  -2  -3  -4    1.47    0.72
  -3  -3  -4    0.57    0.48
  -3  -3  -4    1.30    0.71
  -4  -3  -4    0.24    0.39
  -4  -3  -4    2.23    0.91
  -5  -3  -4    1.09    0.93
  -6  -3  -4    0.11    0.77
  -7  -3  -4    0.45    0.75
  -8  -3  -4    1.44    0.71
  -9  -3  -4   -0.61    0.95
 -11   4   4    0.32    1.36
 -10   4   4    3.24    1.58
  -9   4   4   -0.07    0.72
  -8   4   4    5.23    1.45
   7  -4  -4   12.43    1.53
  -7   4   4   13.27    2.06
   6  -4  -4    0.25    0.46
  -6   4   4    0.16    0.81
   5  -4  -4    1.59    0.65
  -5   4   4    2.28    0.98
   4  -4  -4    1.85    0.67
  -4   4   4    2.83    0.88
   3  -4  -4    1.16    0.58
  -3   4   4    2.33    0.78
   2  -4  -4   16.09    0.90
   2  -4  -4   19.08    1.78
  -2   4   4   13.38    1.37
   1  -4  -4    0.77    0.47
   1  -4  -4    0.91    0.51
   0  -4  -4   63.91    2.27
   0  -4  -4   63.26    2.45
  -1  -4  -4    7.85    1.16
  -1  -4  -4    6.10    0.97
  -2  -4  -4   72.30    2.59
  -2  -4  -4   67.06    2.93
  -3  -4  -4   -0.18    0.59
  -3  -4  -4    0.37    0.50
  -4  -4  -4    2.10    0.73
  -4  -4  -4    2.97    1.08
  -5  -4  -4    0.72    0.93
  -6  -4  -4    0.29    0.99
  -7  -4  -4   -0.22    0.95
  -8  -4  -4   -0.51    0.99
 -11   5   4    0.09    1.37
 -10   5   4   -0.59    1.00
  -9   5   4    1.87    1.32
   8  -5  -4   15.05    1.89
  -8   5   4   12.07    2.17
   7  -5  -4    3.37    1.03
  -7   5   4    3.28    1.31
   6  -5  -4    0.82    0.70
  -6   5   4    1.52    1.01
   5  -5  -4    0.39    0.64
  -5   5   4    0.71    0.71
   4  -5  -4    0.69    0.65
  -4   5   4   -0.94    0.59
   3  -5  -4    0.35    0.52
  -3   5   4   -0.19    0.64
   2  -5  -4    9.99    1.39
   2  -5  -4   11.86    1.04
  -2   5   4   12.12    1.45
   1  -5  -4    0.62    0.56
   1  -5  -4    0.60    0.50
   0  -5  -4    5.26    1.05
   0  -5  -4    4.62    0.93
  -1  -5  -4   24.59    2.03
  -1  -5  -4   21.02    1.98
  -2  -5  -4    1.75    0.67
  -2  -5  -4    0.94    0.81
  -3  -5  -4    8.80    1.24
  -3  -5  -4   10.56    1.71
  -4  -5  -4    1.98    1.11
  -5  -5  -4   -0.11    0.83
  -6  -5  -4    0.05    0.95
  -7  -5  -4    5.35    1.83
 -11   6   4   -0.97    1.24
 -10   6   4   -0.51    1.21
  -9   6   4   -0.53    0.99
   8  -6  -4    0.58    0.90
  -8   6   4   -0.42    0.80
   7  -6  -4   23.67    2.44
  -7   6   4   16.28    2.27
   6  -6  -4    8.26    1.53
  -6   6   4   10.47    1.84
   5  -6  -4   15.37    1.97
  -5   6   4   12.44    1.88
   4  -6  -4    5.34    1.24
  -4   6   4    4.37    1.23
   3  -6  -4    1.08    0.71
  -3   6   4    1.25    0.91
   2  -6  -4    4.22    1.09
   1  -6  -4    8.66    1.37
   1  -6  -4    3.64    0.80
   0  -6  -4    0.51    0.67
   0  -6  -4    1.11    0.64
  -1  -6  -4    7.72    1.28
  -1  -6  -4    9.88    1.53
  -2  -6  -4    0.28    0.52
  -2  -6  -4    0.37    0.75
  -3  -6  -4   -0.39    0.65
  -3  -6  -4    0.19    0.61
  -4  -6  -4    4.16    1.39
  -5  -6  -4    0.26    1.04
  -6  -6  -4    0.87    1.18
  -7  -6  -4    0.89    1.31
 -11   7   4    0.23    1.43
 -10   7   4   -1.01    1.13
  -9   7   4   -1.30    0.99
   8  -7  -4    2.06    1.22
  -8   7   4    1.63    1.23
   7  -7  -4    2.47    1.07
  -7   7   4    4.57    1.49
   6  -7  -4    1.72    1.00
  -6   7   4    3.11    1.29
   5  -7  -4    0.41    0.71
  -5   7   4    0.18    0.84
   4  -7  -4   65.70    3.35
  -4   7   4   61.79    3.28
   3  -7  -4    0.59    0.71
   2  -7  -4    5.81    1.32
   1  -7  -4    2.40    0.93
   0  -7  -4   -0.44    0.60
   0  -7  -4    0.80    0.71
  -1  -7  -4    4.49    1.21
  -1  -7  -4    2.95    0.97
  -2  -7  -4    1.85    0.89
  -2  -7  -4    1.12    1.00
  -3  -7  -4    0.39    0.97
  -4  -7  -4    0.49    1.02
  -5  -7  -4    0.24    1.12
  -6  -7  -4   -0.68    1.10
 -10   8   4   -0.56    1.30
   9  -8  -4    0.66    1.21
  -9   8   4    0.59    1.18
   8  -8  -4    4.52    1.51
  -8   8   4    4.26    1.63
   7  -8  -4    5.22    1.51
  -7   8   4    4.41    1.54
   6  -8  -4    0.85    0.90
  -6   8   4    0.88    1.07
   5  -8  -4    2.52    1.11
  -5   8   4    0.81    1.02
   4  -8  -4    3.48    1.28
   3  -8  -4   -0.23    0.52
   2  -8  -4    0.42    0.74
   1  -8  -4    0.83    0.73
   0  -8  -4    2.38    0.98
  -1  -8  -4   -0.45    0.78
  -1  -8  -4    0.51    0.69
  -2  -8  -4    2.61    1.24
  -2  -8  -4    1.90    0.97
  -3  -8  -4    0.36    1.07
  -4  -8  -4   -0.05    1.12
  -5  -8  -4    0.97    1.43
   9  -9  -4    1.08    1.47
  -9   9   4   -0.13    1.25
   8  -9  -4   -0.83    1.01
  -8   9   4    0.05    1.14
   7  -9  -4    0.98    1.05
  -7   9   4    3.28    1.53
   6  -9  -4    0.26    0.93
  -6   9   4   -1.33    0.87
   5  -9  -4   -0.09    0.90
   4  -9  -4    1.59    0.96
   3  -9  -4    7.76    1.71
   2  -9  -4    2.76    1.17
   1  -9  -4    1.36    0.94
   0  -9  -4   11.78    1.96
  -1  -9  -4    1.00    0.92
  -3  -9  -4    0.73    1.32
   8 -10  -4    1.23    1.47
  -8  10   4    0.46    1.33
   7 -10  -4   -0.29    1.05
   6 -10  -4   -0.17    1.09
   5 -10  -4    2.49    1.31
   4 -10  -4    1.00    0.93
   3 -10  -4    2.91    1.32
   2 -10  -4    0.09    0.84
   1 -10  -4    1.35    1.08
   0 -10  -4   -0.72    0.75
  -1 -10  -4    2.63    1.34
   6 -11  -4    0.29    1.28
   5 -11  -4    0.00    0.84
   4 -11  -4   -0.18    0.83
   3 -11  -4   -0.52    0.73
   2 -11  -4    1.92    1.25
   1 -11  -4    0.74    1.16
   1 -12   5    0.19    0.99
   2 -12   5    0.98    1.02
   3 -12   5    0.32    0.93
   4 -12   5    3.96    1.40
   5 -12   5    0.83    0.91
   6 -12   5    1.34    1.31
  -3 -11   5   -0.24    1.34
  -2 -11   5    2.78    1.63
  -1 -11   5    0.85    1.24
   0 -11   5    2.08    1.33
   0 -11   5    2.52    1.12
   1 -11   5   -0.41    0.79
   2 -11   5    1.52    1.02
   3 -11   5    0.38    0.92
   4 -11   5    0.97    0.87
   5 -11   5    2.85    1.27
   6 -11   5    0.63    1.17
   7 -11   5    0.50    1.24
   8 -11   5    0.07    1.07
  -4 -10   5   -1.51    1.04
  -3 -10   5   -0.73    1.24
  -2 -10   5   -0.74    0.97
  -1 -10   5    0.04    0.99
   0 -10   5    1.11    0.90
   0 -10   5    0.56    1.01
   1 -10   5   -0.71    0.49
   1 -10   5   -0.58    0.94
   2 -10   5    3.86    1.31
   3 -10   5    2.21    1.16
   4 -10   5    2.20    1.19
   5 -10   5    1.05    1.13
   6 -10   5    1.85    1.21
   7 -10   5    1.93    1.33
   8 -10   5    1.59    1.37
   9 -10   5    0.03    1.24
  -5  -9   5   -0.60    1.09
  -4  -9   5    0.17    1.23
  -3  -9   5    0.98    1.16
  -2  -9   5    8.30    1.78
  -1  -9   5   -0.46    0.82
  -1  -9   5   -0.18    0.69
   0  -9   5    3.58    1.24
   0  -9   5    2.10    1.04
   1  -9   5    0.68    0.85
   1  -9   5    0.62    0.73
   2  -9   5   29.90    2.90
   2  -9   5   29.31    2.46
   3  -9   5    3.82    1.25
   4  -9   5    2.86    1.19
   5  -9   5    2.39    1.18
   6  -9   5    0.39    0.93
   7  -9   5    1.94    1.18
   8  -9   5   -0.33    1.09
   9  -9   5    1.92    1.43
 -10   9  -5   -0.04    1.52
  -6  -8   5    0.75    1.18
  -5  -8   5    2.72    1.44
  -4  -8   5    1.20    1.13
  -3  -8   5    0.73    1.05
  -2  -8   5    0.35    0.94
  -1  -8   5    0.05    0.80
  -1  -8   5   -1.12    0.59
   0  -8   5    0.65    0.80
   0  -8   5   -0.01    0.68
   1  -8   5    1.29    0.90
   1  -8   5    3.30    0.98
   2  -8   5   25.84    2.52
   3  -8   5   19.12    2.24
   3  -8   5   20.66    1.94
   4  -8   5    1.16    0.98
   5  -8   5    2.93    1.26
   6  -8   5    5.41    1.53
   7  -8   5    1.11    1.07
  -8   8  -5   11.28    2.24
   8  -8   5   15.45    2.33
  -9   8  -5    1.42    1.44
   9  -8   5   -0.80    1.01
 -10   8  -5    2.79    1.82
  -7  -7   5    0.10    1.00
  -6  -7   5    0.46    1.18
  -5  -7   5   -0.21    0.98
  -4  -7   5    2.31    1.17
  -3  -7   5    0.40    0.93
  -2  -7   5    1.82    0.92
  -2  -7   5    1.91    1.05
  -1  -7   5   19.33    2.14
   0  -7   5    0.15    0.65
   0  -7   5   -0.34    0.62
   1  -7   5   -0.49    0.42
   1  -7   5    0.53    0.68
   2  -7   5   -0.36    0.40
   2  -7   5    0.17    0.77
   3  -7   5    0.28    0.66
   4  -7   5    2.98    1.10
   5  -7   5    3.55    1.20
   6  -7   5    0.88    0.96
  -7   7  -5   29.10    3.09
   7  -7   5   25.60    2.56
  -8   7  -5   -0.84    1.00
   8  -7   5   -0.50    0.87
  -9   7  -5    7.68    1.97
   9  -7   5    5.82    1.57
 -10   7  -5    2.52    1.67
  -8  -6   5    1.23    1.23
  -7  -6   5   -0.11    0.86
  -6  -6   5    2.08    1.15
  -5  -6   5   -0.30    0.81
  -4  -6   5    7.64    1.60
  -3  -6   5    9.42    1.69
  -2  -6   5    6.07    1.09
  -2  -6   5    5.69    1.27
  -1  -6   5   11.29    1.41
  -1  -6   5   14.30    1.75
   0  -6   5    0.50    0.57
   0  -6   5    0.67    0.72
   1  -6   5    1.39    0.77
   1  -6   5    1.92    0.70
   2  -6   5    2.52    0.94
   3  -6   5    2.19    0.96
   4  -6   5    0.10    0.72
   5  -6   5   -0.31    0.77
  -6   6  -5    4.48    1.36
   6  -6   5    3.04    1.20
  -7   6  -5    0.69    1.03
   7  -6   5    0.60    0.94
  -8   6  -5   12.73    2.19
   8  -6   5   13.23    1.99
  -9   6  -5    1.78    1.37
 -10   6  -5    1.51    1.38
  -9  -5   5    2.09    1.00
  -8  -5   5    0.32    1.01
  -7  -5   5    0.30    0.76
  -6  -5   5   -0.29    0.79
  -5  -5   5   -0.04    0.73
  -4  -5   5   -0.40    0.66
  -3  -5   5    1.20    0.82
  -3  -5   5    1.12    0.60
  -2  -5   5    4.52    0.90
  -2  -5   5    4.75    1.10
  -1  -5   5   26.95    1.64
  -1  -5   5   28.44    1.86
   0  -5   5    5.31    1.01
   0  -5   5    4.73    0.99
   1  -5   5    1.33    0.73
   2  -5   5   46.28    2.33
   3  -5   5   32.27    2.02
   4  -5   5   28.14    2.34
  -5   5  -5   18.58    2.04
   5  -5   5   19.52    2.12
  -6   5  -5   23.80    2.41
   6  -5   5   24.18    2.35
  -7   5  -5    3.71    1.03
  -7   5  -5    2.64    1.12
   7  -5   5    2.10    1.13
  -8   5  -5    5.30    1.56
  -9   5  -5    0.09    1.12
 -10   5  -5    2.19    1.56
  -9  -4   5    1.60    1.18
  -8  -4   5    0.32    0.81
  -7  -4   5    9.39    1.83
  -6  -4   5   -0.31    0.75
  -5  -4   5    4.90    1.27
  -4  -4   5    6.56    1.40
  -3  -4   5    3.40    0.76
  -3  -4   5    3.09    0.97
  -2  -4   5    2.68    0.79
  -2  -4   5    2.72    0.74
  -1  -4   5   17.64    1.53
  -1  -4   5   17.54    1.65
   0  -4   5    4.36    0.94
   1  -4   5    3.81    0.93
   2  -4   5    6.31    1.10
   3  -4   5    8.23    1.27
  -4   4  -5    0.34    0.61
   4  -4   5    1.62    0.81
  -5   4  -5   -0.20    0.45
  -5   4  -5    0.29    0.73
   5  -4   5   -0.49    0.64
  -6   4  -5    0.21    0.62
  -6   4  -5   -0.47    0.67
   6  -4   5    1.43    0.87
  -7   4  -5   32.24    2.76
  -7   4  -5   33.53    2.24
  -8   4  -5    5.10    1.41
  -8   4  -5    3.09    1.06
  -9   4  -5    2.83    1.13
 -10  -3   5    1.43    1.28
 -10  -3   5   -0.23    1.00
  -9  -3   5    1.81    1.21
  -8  -3   5    0.31    0.81
  -7  -3   5    1.17    0.92
  -6  -3   5    4.08    1.21
  -5  -3   5    2.28    0.99
  -4  -3   5    0.52    0.64
  -4  -3   5    0.17    0.47
  -3  -3   5    0.75    0.59
  -3  -3   5    0.15    0.48
  -2  -3   5    9.20    1.26
  -2  -3   5    9.65    1.04
  -1  -3   5   56.89    1.99
   0  -3   5    2.10    0.68
   1  -3   5    5.35    0.94
   2  -3   5    8.09    1.15
   3  -3   5   30.83    1.79
  -4   3  -5    3.43    0.84
  -4   3  -5    2.73    0.78
   4  -3   5    2.76    0.83
  -5   3  -5    0.70    0.58
  -5   3  -5   -0.03    0.63
   5  -3   5    0.56    0.71
  -6   3  -5    3.86    1.01
  -6   3  -5    5.88    1.17
  -7   3  -5   -0.12    0.57
  -7   3  -5    0.61    0.74
   7  -3   5    0.23    0.91
  -8   3  -5    1.88    0.88
  -8   3  -5    0.73    0.89
  -9   3  -5    5.31    1.46
 -10   3  -5    1.76    1.15
 -10  -2   5    0.51    0.92
 -10  -2   5    0.23    0.99
  -9  -2   5    1.74    1.05
  -9  -2   5    0.70    0.95
  -8  -2   5    0.77    0.90
  -7  -2   5    4.83    1.28
  -6  -2   5   -0.43    0.67
  -5  -2   5    1.07    0.81
  -4  -2   5    3.86    0.92
  -4  -2   5    2.50    0.57
  -3  -2   5   31.19    1.32
  -3  -2   5   30.65    1.78
  -2  -2   5   53.55    2.14
  -2  -2   5   53.90    1.78
  -1  -2   5   41.70    1.67
   0  -2   5   86.33    2.45
   1  -2   5    0.50    0.51
  -2   2  -5  121.19    3.10
   2  -2   5  123.38    3.08
  -3   2  -5    3.27    0.71
  -3   2  -5    5.60    0.96
   3  -2   5    4.83    0.95
  -4   2  -5    2.14    0.71
  -4   2  -5    2.62    0.74
   4  -2   5    4.22    0.93
  -5   2  -5    3.96    0.99
  -5   2  -5    3.69    0.90
  -6   2  -5    0.26    0.65
  -6   2  -5   -0.74    0.49
   6  -2   5   -0.08    0.66
  -7   2  -5   12.91    1.71
  -7   2  -5   13.10    1.87
  -8   2  -5   -0.22    0.74
  -9   2  -5    4.94    1.43
 -10   2  -5    2.43    1.30
 -11  -1   5    0.51    1.19
 -10  -1   5    0.26    0.95
 -10  -1   5    0.47    1.00
  -9  -1   5   -0.66    0.72
  -9  -1   5   -0.04    0.81
  -8  -1   5    0.14    0.65
  -8  -1   5   -0.19    0.69
  -7  -1   5    0.72    0.75
  -6  -1   5    0.49    0.75
  -5  -1   5    1.05    0.72
   4   1  -5   -0.07    0.31
  -4  -1   5    0.03    0.45
   3   1  -5    3.84    0.62
  -3  -1   5    2.04    0.65
   2   1  -5    0.38    0.26
   1   1  -5   14.76    1.24
   0   1  -5    1.19    0.46
   0  -1   5    0.12    0.44
  -1   1  -5  125.60    2.99
   1  -1   5  123.70    2.92
  -2   1  -5   70.96    2.40
   2  -1   5   66.50    2.25
  -3   1  -5   96.63    3.02
  -3   1  -5   94.91    2.19
   3  -1   5   94.92    2.77
  -4   1  -5   19.10    1.91
  -4   1  -5   18.67    1.24
   4  -1   5    9.68    1.21
  -5   1  -5    5.86    1.21
  -5   1  -5    7.30    1.06
   5  -1   5    6.54    1.11
  -6   1  -5    4.83    1.17
  -6   1  -5    3.08    0.96
   6  -1   5    3.92    0.98
  -7   1  -5   10.59    1.74
  -8   1  -5    2.46    1.13
  -9   1  -5    1.30    1.03
 -10   1  -5    0.92    1.22
 -11   0   5    0.26    1.09
 -10   0   5   -0.09    0.97
  -9   0   5   -0.48    0.79
  -9   0   5   -0.16    0.76
  -8   0   5    1.98    1.06
  -8   0   5    1.21    0.93
  -7   0   5    0.91    0.80
  -7   0   5   -0.30    0.65
  -6   0   5    1.58    0.82
  -6   0   5    2.16    0.82
   5   0  -5    0.84    0.39
  -5   0   5    0.53    0.56
   4   0  -5   53.68    1.79
  -4   0   5   53.57    2.05
   3   0  -5    0.35    0.33
  -3   0   5   -0.29    0.37
   2   0  -5   16.34    1.32
   1   0  -5   25.26    1.34
   0   0  -5   10.25    1.08
  -1   0  -5    4.05    0.74
  -1   0  -5    3.23    0.66
  -2   0  -5   27.68    1.48
  -2   0  -5   26.29    1.58
  -3   0  -5   73.69    2.74
  -3   0  -5   71.27    1.62
   3   0   5   70.32    2.39
  -4   0  -5    2.05    0.76
  -4   0  -5    2.92    0.66
   4   0   5    1.94    0.56
  -5   0  -5    0.37    0.62
   5   0   5    1.60    0.71
  -6   0  -5    3.82    1.17
  -7   0  -5    0.31    0.74
  -8   0  -5   -0.60    0.73
  -9   0  -5    2.20    1.30
 -10   0  -5    0.35    1.09
 -11   1   5    0.95    1.34
 -10   1   5    0.00    0.99
  -9   1   5    5.40    1.57
  -8   1   5    0.48    0.83
  -7   1   5   -0.61    0.63
  -7   1   5   -0.07    0.67
   6  -1  -5    5.98    0.83
  -6   1   5    7.18    1.37
  -6   1   5    6.94    1.11
   5  -1  -5   11.55    1.12
  -5   1   5   12.28    1.62
  -5   1   5   13.95    1.33
   4  -1  -5    1.39    0.49
  -4   1   5    1.44    0.65
  -4   1   5    0.66    0.45
   3  -1  -5   38.37    1.64
  -3   1   5   36.12    1.80
   2  -1  -5   57.68    2.02
  -2   1   5   58.41    1.94
   1  -1  -5    3.65    0.70
  -1   1   5    3.08    0.51
   0  -1  -5   11.19    1.10
   0  -1  -5   12.10    1.23
  -1  -1  -5    0.55    0.43
  -1  -1  -5    0.85    0.44
  -2  -1  -5    2.79    0.75
  -2  -1  -5    1.35    0.54
  -3  -1  -5   14.80    1.36
  -3  -1  -5   13.78    1.60
  -3  -1  -5   14.31    0.77
  -4  -1  -5   26.02    1.57
  -4  -1  -5   25.47    2.34
  -5  -1  -5   10.49    1.65
   5   1   5   13.06    1.44
  -6  -1  -5    6.06    1.46
  -7  -1  -5    2.04    0.98
  -8  -1  -5    1.24    0.96
  -9  -1  -5   -0.50    0.83
 -11   2   5    0.66    1.30
 -10   2   5    0.44    1.17
  -9   2   5    3.46    1.43
  -8   2   5   10.75    1.93
  -7   2   5    1.61    1.02
   6  -2  -5    9.58    1.15
  -6   2   5   12.39    1.82
   5  -2  -5   42.11    1.86
  -5   2   5   40.68    2.44
  -5   2   5   41.72    1.61
   4  -2  -5    0.12    0.32
  -4   2   5    0.31    0.36
  -4   2   5    0.07    0.48
   3  -2  -5    0.09    0.32
  -3   2   5    0.01    0.42
   2  -2  -5   40.93    1.86
  -2   2   5   42.32    1.70
   1  -2  -5    2.81    0.61
   1  -2  -5    2.40    0.66
  -1   2   5    2.10    0.49
   0  -2  -5   48.11    2.00
   0  -2  -5   50.61    1.96
  -1  -2  -5   40.18    1.93
  -1  -2  -5   39.11    1.83
  -2  -2  -5    2.90    0.71
  -2  -2  -5    3.03    0.82
  -3  -2  -5    1.86    0.80
  -3  -2  -5    0.36    0.50
  -4  -2  -5    2.16    0.89
  -4  -2  -5    2.95    0.76
  -5  -2  -5    0.47    0.77
  -5  -2  -5    0.05    0.58
  -6  -2  -5    0.74    0.83
  -7  -2  -5    0.92    0.89
  -8  -2  -5    0.45    0.92
  -9  -2  -5    0.54    1.06
 -11   3   5   -0.18    1.02
 -10   3   5    0.70    1.16
  -9   3   5    0.52    0.90
  -8   3   5   -0.61    0.72
   7  -3  -5   -0.04    0.46
  -7   3   5   -0.18    0.73
   6  -3  -5   13.75    1.51
  -6   3   5   15.03    1.96
   5  -3  -5    1.34    0.58
  -5   3   5    1.39    0.80
   4  -3  -5    0.14    0.40
  -4   3   5    0.10    0.31
  -4   3   5    0.79    0.63
   3  -3  -5    0.52    0.49
  -3   3   5    0.69    0.55
   2  -3  -5    9.18    0.87
   2  -3  -5    9.97    1.25
  -2   3   5    8.22    1.03
   1  -3  -5   26.75    1.64
   1  -3  -5   23.96    1.30
  -1   3   5   28.22    1.34
  -1  -3  -5   30.61    1.79
  -1  -3  -5   23.03    1.50
  -2  -3  -5    3.47    0.82
  -2  -3  -5    2.86    0.87
  -3  -3  -5    2.59    0.92
  -3  -3  -5    1.97    0.69
  -4  -3  -5    0.16    0.51
  -4  -3  -5   -0.54    0.64
  -5  -3  -5   -0.65    0.66
  -6  -3  -5    0.38    0.93
  -7  -3  -5    2.32    1.12
  -8  -3  -5    1.90    1.16
 -11   4   5    0.61    1.25
 -10   4   5    0.99    1.19
  -9   4   5    1.49    1.21
  -8   4   5    0.43    0.93
   7  -4  -5   29.45    2.00
  -7   4   5   19.82    2.39
   6  -4  -5    0.76    0.66
  -6   4   5    0.06    0.86
   5  -4  -5    9.90    1.40
  -5   4   5    7.17    1.37
   4  -4  -5    1.99    0.73
  -4   4   5    1.35    0.81
   3  -4  -5    0.72    0.54
  -3   4   5    1.20    0.70
   2  -4  -5   18.02    1.07
   2  -4  -5   19.49    1.87
  -2   4   5   19.37    1.40
   1  -4  -5    4.34    0.81
   1  -4  -5    3.35    0.82
   0  -4  -5    2.90    0.81
   0  -4  -5    2.18    0.60
  -1  -4  -5   15.37    1.65
  -1  -4  -5   16.68    1.73
  -2  -4  -5   27.81    2.35
  -2  -4  -5   26.81    1.72
  -3  -4  -5    2.37    0.80
  -3  -4  -5    3.69    0.87
  -4  -4  -5   16.80    1.66
  -4  -4  -5   13.84    1.95
  -5  -4  -5    0.63    0.79
  -6  -4  -5    0.55    0.79
  -7  -4  -5   -1.10    0.71
  -8  -4  -5    3.14    1.49
 -11   5   5   -0.93    1.19
 -10   5   5    0.23    1.25
  -9   5   5    0.72    1.08
   8  -5  -5    0.74    0.90
  -8   5   5    0.02    0.97
   7  -5  -5    9.63    1.62
  -7   5   5   10.00    1.89
   6  -5  -5   39.48    2.44
  -6   5   5   37.68    2.62
   5  -5  -5   15.92    1.89
  -5   5   5   18.41    2.11
   4  -5  -5   14.68    1.84
  -4   5   5   12.94    1.68
   3  -5  -5    0.69    0.67
  -3   5   5    1.14    0.76
   2  -5  -5    3.29    0.91
   2  -5  -5    3.18    0.68
  -2   5   5    3.16    0.92
   1  -5  -5    0.31    0.49
   1  -5  -5   -0.58    0.37
   0  -5  -5    3.05    0.89
   0  -5  -5    4.72    0.99
  -1  -5  -5    5.57    1.09
  -1  -5  -5    4.93    1.09
  -2  -5  -5    0.62    0.55
  -2  -5  -5    1.19    0.76
  -3  -5  -5    4.29    1.24
  -3  -5  -5    3.92    0.93
  -4  -5  -5    0.47    0.84
  -5  -5  -5    0.49    0.94
  -6  -5  -5    0.49    0.89
  -7  -5  -5    4.88    1.73
 -11   6   5   -0.77    1.27
 -10   6   5    1.28    1.42
  -9   6   5   -1.53    0.93
   8  -6  -5    0.86    0.96
  -8   6   5    0.91    1.11
   7  -6  -5    6.56    1.50
  -7   6   5    1.66    0.77
   6  -6  -5    7.89    1.58
  -6   6   5    4.51    1.36
   5  -6  -5    6.26    1.42
  -5   6   5    7.28    1.52
   4  -6  -5    2.39    0.95
  -4   6   5    2.94    1.15
   3  -6  -5    2.42    1.00
  -3   6   5    1.37    0.95
   2  -6  -5   -0.37    0.42
   1  -6  -5    3.85    1.07
   1  -6  -5    3.95    0.90
   0  -6  -5    0.41    0.60
   0  -6  -5    0.44    0.54
  -1  -6  -5   10.44    1.51
  -2  -6  -5    0.45    0.62
  -2  -6  -5    0.05    0.79
  -3  -6  -5    3.36    0.96
  -3  -6  -5    6.08    1.50
  -4  -6  -5    0.48    0.99
  -5  -6  -5    0.10    1.02
  -6  -6  -5    1.46    1.13
 -10   7   5   -1.00    1.13
  -9   7   5    0.44    1.22
   8  -7  -5    0.79    1.07
  -8   7   5    0.61    1.13
   7  -7  -5    2.45    1.18
  -7   7   5    0.03    0.96
   6  -7  -5    1.09    0.98
  -6   7   5   -1.22    0.72
   5  -7  -5    1.93    0.96
  -5   7   5    0.28    0.95
   4  -7  -5    4.72    1.39
  -4   7   5    9.30    1.71
   3  -7  -5    8.06    1.52
   2  -7  -5   32.69    2.91
   1  -7  -5    1.35    0.78
   0  -7  -5    0.93    0.78
   0  -7  -5    0.88    0.68
  -1  -7  -5   -0.16    0.51
  -1  -7  -5   -0.15    0.63
  -2  -7  -5   -0.48    0.84
  -3  -7  -5    1.57    1.17
  -4  -7  -5    1.12    1.10
  -5  -7  -5   -0.23    1.06
 -10   8   5   -0.36    1.32
   9  -8  -5    2.25    1.53
  -9   8   5    0.26    1.34
   8  -8  -5    5.16    1.64
  -8   8   5    4.91    1.74
   7  -8  -5    2.08    1.16
  -7   8   5    1.06    1.21
   6  -8  -5   -0.48    0.77
  -6   8   5   -0.90    0.90
   5  -8  -5    0.09    0.86
  -5   8   5   -0.41    0.96
   4  -8  -5    2.98    1.17
   3  -8  -5   -0.09    0.64
   2  -8  -5    4.10    1.22
   1  -8  -5    2.66    1.12
   0  -8  -5    1.50    0.89
  -1  -8  -5    1.85    0.96
  -2  -8  -5    4.86    1.33
  -2  -8  -5    4.50    1.50
  -3  -8  -5    3.09    1.41
  -4  -8  -5   -0.10    1.08
   9  -9  -5    2.00    1.60
  -9   9   5    2.19    1.52
   8  -9  -5    1.92    1.42
  -8   9   5   -0.08    1.19
   7  -9  -5    0.99    1.23
  -7   9   5    0.52    1.19
   6  -9  -5    0.18    0.90
  -6   9   5   -1.31    0.99
   5  -9  -5    1.23    1.14
   4  -9  -5    0.11    0.66
   3  -9  -5    3.58    1.25
   2  -9  -5   -0.11    0.70
   1  -9  -5   -0.47    0.60
   0  -9  -5    0.39    0.78
  -1  -9  -5    0.82    0.97
  -3  -9  -5   -0.70    1.10
   8 -10  -5   -0.78    1.27
  -8  10   5    1.85    1.48
   7 -10  -5   -0.58    1.09
   6 -10  -5   -0.23    1.05
   5 -10  -5    0.01    1.03
   4 -10  -5    1.68    0.95
   3 -10  -5    3.01    1.37
   2 -10  -5    1.39    1.12
   1 -10  -5    1.83    1.23
   0 -10  -5    0.94    1.07
   3 -11  -5    2.10    1.18
   2 -11  -5   -0.11    1.01
   1 -12   6    1.93    1.21
   2 -12   6    1.61    1.19
   3 -12   6    1.00    1.15
   4 -12   6    1.41    1.23
   5 -12   6    1.30    1.10
  -3 -11   6    2.02    1.69
  -2 -11   6    1.61    1.58
  -1 -11   6    1.12    1.28
   0 -11   6    2.08    1.42
   0 -11   6    1.41    0.97
   1 -11   6   -0.27    0.84
   2 -11   6    1.81    1.11
   3 -11   6    0.89    1.03
   4 -11   6    1.29    1.11
   5 -11   6    0.58    1.00
   6 -11   6    0.89    1.19
   7 -11   6    1.83    1.52
   8 -11   6    0.67    1.39
  -4 -10   6    0.02    1.48
  -3 -10   6    0.49    1.12
  -2 -10   6    2.70    1.44
  -1 -10   6    1.05    1.19
   0 -10   6    2.25    1.11
   0 -10   6    3.09    1.33
   1 -10   6    1.35    0.92
   1 -10   6    0.60    1.02
   2 -10   6   -0.40    0.65
   2 -10   6    2.81    1.18
   3 -10   6    0.96    1.04
   4 -10   6    0.12    0.76
   5 -10   6    2.05    1.25
   6 -10   6   -0.35    0.95
   7 -10   6    1.53    1.31
   8 -10   6    0.48    1.29
   9 -10   6    0.94    1.50
  -5  -9   6    0.01    1.22
  -4  -9   6   -0.60    1.01
  -3  -9   6    1.19    1.18
  -2  -9   6    1.76    1.23
  -1  -9   6    2.78    1.25
  -1  -9   6    1.28    1.04
   0  -9   6    1.46    1.04
   0  -9   6    1.01    0.93
   1  -9   6    4.33    1.30
   1  -9   6    2.56    1.07
   2  -9   6    4.58    1.28
   2  -9   6    3.06    0.95
   3  -9   6    0.26    0.80
   3  -9   6   -0.19    0.54
   4  -9   6    1.25    0.94
   5  -9   6    0.08    0.79
   6  -9   6    0.26    1.05
   7  -9   6   -0.65    1.03
   8  -9   6    1.17    1.23
   9  -9   6    0.26    1.24
  -6  -8   6   -0.18    1.09
  -5  -8   6    0.15    0.96
  -4  -8   6   -0.45    0.82
  -3  -8   6    0.95    1.02
  -2  -8   6    1.53    1.08
  -1  -8   6   -0.50    0.74
  -1  -8   6   -0.54    0.65
   0  -8   6    1.86    0.96
   0  -8   6    1.28    0.89
   1  -8   6   25.96    2.33
   1  -8   6   20.04    2.18
   2  -8   6    0.03    0.57
   2  -8   6   -0.26    0.69
   3  -8   6    3.56    1.26
   4  -8   6    1.63    1.02
   5  -8   6    3.06    1.26
   6  -8   6    0.01    0.96
   7  -8   6   24.81    2.70
   8  -8   6    2.30    1.29
  -9   8  -6    2.88    1.63
   9  -8   6    3.07    1.40
 -10   8  -6   -0.70    1.36
  -7  -7   6    2.96    1.42
  -6  -7   6   -0.69    0.84
  -5  -7   6    0.04    0.98
  -4  -7   6    3.19    1.31
  -3  -7   6    3.29    1.14
  -2  -7   6    9.40    1.72
  -1  -7   6   14.23    1.66
  -1  -7   6   17.04    2.06
   0  -7   6    2.83    1.03
   0  -7   6    1.33    0.77
   1  -7   6   22.44    2.12
   1  -7   6   23.42    2.28
   2  -7   6    1.08    0.88
   3  -7   6    2.29    1.07
   4  -7   6   13.64    1.89
   5  -7   6    5.60    1.48
   6  -7   6    5.77    1.43
   7  -7   6   -0.15    0.93
  -8   7  -6    4.70    1.63
   8  -7   6    7.18    1.67
  -9   7  -6    1.17    1.33
   9  -7   6   -0.06    1.12
 -10   7  -6    2.95    1.76
  -8  -6   6   -0.19    0.91
  -7  -6   6    0.96    1.08
  -6  -6   6    5.66    1.56
  -5  -6   6    1.50    0.99
  -4  -6   6    7.52    1.63
  -3  -6   6   -0.11    0.76
  -2  -6   6   15.44    1.64
  -2  -6   6   17.62    2.08
  -1  -6   6    7.57    1.35
  -1  -6   6    7.07    1.25
   0  -6   6    9.60    1.42
   0  -6   6    9.22    1.39
   1  -6   6    3.04    1.02
   2  -6   6    1.49    0.95
   3  -6   6    4.20    1.24
   4  -6   6    0.64    0.97
   5  -6   6   39.87    2.67
   6  -6   6    0.63    0.92
  -7   6  -6   28.69    2.87
   7  -6   6   28.50    2.77
  -8   6  -6    2.91    1.34
   8  -6   6    5.06    1.41
  -9   6  -6    3.80    1.57
  -9  -5   6    0.36    1.11
  -8  -5   6    0.25    0.97
  -7  -5   6    1.20    1.05
  -6  -5   6    1.33    1.07
  -5  -5   6   10.38    1.80
  -4  -5   6    1.85    1.05
  -3  -5   6   11.57    1.29
  -3  -5   6   14.66    1.93
  -2  -5   6    8.64    1.48
  -2  -5   6    5.81    1.06
  -1  -5   6    8.45    1.29
  -1  -5   6   11.74    1.52
   0  -5   6    5.94    1.15
   1  -5   6    9.82    1.44
   2  -5   6    0.19    0.66
   3  -5   6   -0.67    0.62
   4  -5   6    0.49    0.88
   5  -5   6    0.87    0.93
  -6   5  -6   17.51    2.11
   6  -5   6   15.34    2.00
  -7   5  -6    0.15    0.95
  -7   5  -6    0.47    0.66
   7  -5   6    1.24    1.11
  -8   5  -6    8.64    1.84
  -8   5  -6   10.66    1.73
   8  -5   6    8.64    1.73
  -9  -4   6    0.96    1.14
  -8  -4   6    1.20    1.06
  -7  -4   6    6.13    1.58
  -6  -4   6   -0.65    0.71
  -5  -4   6    7.90    1.66
  -4  -4   6    0.03    0.68
  -3  -4   6    0.65    0.61
  -3  -4   6    1.31    0.77
  -2  -4   6   15.61    1.46
  -2  -4   6   13.88    1.64
  -1  -4   6   14.17    1.56
  -1  -4   6   13.02    1.40
   0  -4   6    0.64    0.61
   1  -4   6   -0.15    0.61
   2  -4   6    0.85    0.67
   3  -4   6    8.64    1.29
   4  -4   6    1.54    0.80
  -5   4  -6   -0.21    0.44
  -5   4  -6   -0.11    0.34
   5  -4   6    0.57    0.88
  -6   4  -6    0.17    0.47
  -6   4  -6    1.03    0.73
   6  -4   6    0.92    1.02
  -7   4  -6    1.19    0.77
  -7   4  -6    4.02    1.08
   7  -4   6    2.60    1.18
  -8   4  -6   -0.08    0.65
  -9   4  -6    6.30    1.52
 -10  -3   6   -0.26    1.03
 -10  -3   6    1.58    0.87
  -9  -3   6    1.76    1.18
  -8  -3   6    0.70    0.92
  -7  -3   6   -0.53    0.72
  -6  -3   6   11.01    1.77
  -5  -3   6   24.66    2.56
  -4  -3   6    0.15    0.55
  -4  -3   6   -0.37    0.51
  -3  -3   6    2.24    0.79
  -3  -3   6    1.85    0.61
  -2  -3   6    0.08    0.41
  -2  -3   6   -0.52    0.45
  -1  -3   6    1.65    0.68
   0  -3   6    0.99    0.67
   1  -3   6   36.48    1.92
   2  -3   6    1.32    0.67
   3  -3   6   16.15    1.72
  -4   3  -6   -0.18    0.43
   4  -3   6    0.86    0.64
  -5   3  -6    8.68    1.35
  -5   3  -6    6.29    1.22
   5  -3   6    5.19    1.12
  -6   3  -6   13.43    1.71
  -6   3  -6   12.14    1.69
   6  -3   6   11.78    1.69
  -7   3  -6   34.06    2.90
   7  -3   6   31.20    2.63
  -8   3  -6    0.40    0.73
  -9   3  -6   -0.23    0.79
 -10   3  -6    0.38    1.10
 -10  -2   6    1.65    1.00
 -10  -2   6   -0.70    0.87
  -9  -2   6   -0.18    0.89
  -9  -2   6    0.29    0.86
  -8  -2   6    1.74    1.07
  -7  -2   6    1.26    0.93
  -6  -2   6   41.31    2.58
  -5  -2   6   35.68    2.26
  -4  -2   6    3.12    0.69
  -4  -2   6    3.45    0.94
  -3  -2   6   38.41    1.64
  -3  -2   6   40.93    2.07
  -2  -2   6    6.41    0.95
  -1  -2   6  145.24    3.31
   0  -2   6    0.17    0.44
   1  -2   6   23.59    1.87
   2  -2   6   22.65    1.83
  -3   2  -6    6.12    1.08
   3  -2   6    6.55    1.12
  -4   2  -6    3.14    0.87
  -4   2  -6    2.87    0.79
   4  -2   6    1.74    0.82
  -5   2  -6    2.61    0.89
  -5   2  -6    1.02    0.73
   5  -2   6    0.39    0.73
  -6   2  -6   14.32    1.87
   6  -2   6   12.18    1.54
  -7   2  -6    2.96    1.10
  -8   2  -6    0.43    0.89
  -9   2  -6    3.07    1.28
 -10   2  -6    0.54    1.04
 -10  -1   6   -0.22    1.01
  -9  -1   6    0.13    0.87
  -9  -1   6    0.41    0.94
  -8  -1   6    2.46    1.02
  -8  -1   6    1.65    1.03
  -7  -1   6   -0.45    0.67
  -6  -1   6    3.67    1.09
  -5  -1   6   12.78    1.10
  -5  -1   6   12.65    1.54
   4   1  -6   37.12    1.57
  -4  -1   6   36.43    1.96
   3   1  -6   13.05    1.19
  -3  -1   6    7.82    1.10
   2   1  -6   65.70    2.16
   1   1  -6   36.04    1.71
   0   1  -6   57.51    2.19
   1  -1   6   -0.28    0.44
  -2   1  -6    0.88    0.51
   2  -1   6    1.45    0.66
  -3   1  -6  250.69    5.18
   3  -1   6  252.74    4.80
  -4   1  -6    0.32    0.64
  -4   1  -6    1.31    0.57
   4  -1   6    1.03    0.68
  -5   1  -6   28.59    2.58
  -6   1  -6   -0.02    0.67
   6  -1   6    0.03    0.78
  -7   1  -6    0.88    0.90
  -8   1  -6    1.07    0.97
  -9   1  -6    1.38    1.14
 -10   1  -6    1.78    1.36
 -11   0   6   -0.78    1.08
 -10   0   6    0.64    1.00
  -9   0   6   -0.42    0.68
  -8   0   6    1.97    1.03
  -8   0   6   -0.11    0.74
  -7   0   6    1.84    0.99
  -7   0   6    1.81    0.96
  -6   0   6    8.77    1.53
  -6   0   6    7.59    1.28
   5   0  -6   16.10    1.35
  -5   0   6   14.50    1.52
   4   0  -6    4.12    0.77
  -4   0   6    4.66    0.88
   3   0  -6   -0.03    0.21
   2   0  -6   20.19    1.33
   1   0  -6   44.88    1.94
   0   0  -6    3.35    0.72
  -1   0  -6    1.97    0.61
  -1   0  -6    1.53    0.57
  -2   0  -6   14.71    1.55
  -2   0  -6   15.77    1.49
  -3   0  -6   32.00    2.02
   3   0   6   29.89    1.78
  -4   0  -6    2.57    0.85
   4   0   6    1.53    0.75
  -5   0  -6    0.52    0.71
   5   0   6    0.13    0.69
  -6   0  -6    9.08    1.67
  -7   0  -6    1.09    0.95
  -8   0  -6    4.20    1.37
  -9   0  -6    2.10    1.32
 -10   0  -6    2.16    1.46
 -11   1   6   -0.28    1.07
 -10   1   6    0.46    1.06
  -9   1   6   -0.26    0.83
  -8   1   6   13.41    2.11
  -7   1   6    3.87    1.23
  -7   1   6    4.42    1.03
   6  -1  -6   37.36    1.74
  -6   1   6   34.69    1.92
  -6   1   6   36.81    2.55
   5  -1  -6   13.35    1.31
  -5   1   6   11.58    1.60
  -5   1   6   11.35    1.27
   4  -1  -6    1.39    0.52
  -4   1   6    1.56    0.57
  -4   1   6    1.48    0.72
   3  -1  -6   51.99    2.11
  -3   1   6   55.58    2.29
   2  -1  -6    2.28    0.63
  -2   1   6    2.86    0.65
   1  -1  -6   37.81    1.84
  -1   1   6   40.38    1.37
   0  -1  -6   -0.33    0.35
   0  -1  -6    0.15    0.37
  -1  -1  -6   32.40    1.78
  -1  -1  -6   34.90    1.85
  -2  -1  -6    7.66    1.11
  -2  -1  -6    8.58    1.30
  -3  -1  -6   13.07    1.63
  -3  -1  -6   13.50    1.43
  -4  -1  -6    0.48    0.58
  -4  -1  -6   -0.53    0.43
  -5  -1  -6    0.10    0.59
   5   1   6    0.32    0.64
  -6  -1  -6    0.28    0.75
  -7  -1  -6    1.28    1.03
  -8  -1  -6   -0.10    0.95
  -9  -1  -6    1.23    1.28
 -11   2   6    1.38    1.41
 -10   2   6    5.29    1.64
  -9   2   6    8.51    1.90
  -8   2   6   -0.41    0.67
  -7   2   6    9.45    1.72
   6  -2  -6    0.90    0.58
  -6   2   6    1.88    1.00
   5  -2  -6   16.67    1.59
  -5   2   6   13.28    1.75
  -5   2   6   16.69    1.33
   4  -2  -6    4.93    0.91
  -4   2   6    4.68    0.74
  -4   2   6    3.44    0.92
   3  -2  -6   33.46    1.84
  -3   2   6   34.08    1.85
   2  -2  -6    0.09    0.40
  -2   2   6    0.73    0.47
   1  -2  -6   16.51    1.39
   1  -2  -6   14.75    1.54
  -1   2   6   12.48    0.91
   0  -2  -6   93.57    2.83
   0  -2  -6   88.96    2.92
  -1  -2  -6   26.02    1.73
  -1  -2  -6   29.46    1.73
  -2  -2  -6   11.07    1.37
  -2  -2  -6    9.94    1.45
  -3  -2  -6    1.52    0.63
  -3  -2  -6    0.75    0.66
  -4  -2  -6   10.20    1.63
  -4  -2  -6    9.82    1.27
  -5  -2  -6    2.17    1.01
  -5  -2  -6    0.40    0.61
  -6  -2  -6    0.15    0.73
  -7  -2  -6    1.04    0.94
  -8  -2  -6   -0.49    0.82
  -9  -2  -6    1.00    1.20
 -11   3   6   -0.31    1.07
 -10   3   6    1.59    1.15
  -9   3   6    0.21    0.95
  -8   3   6    9.90    1.96
   7  -3  -6    9.31    1.33
  -7   3   6    5.14    1.41
   6  -3  -6    7.56    1.17
  -6   3   6   13.84    1.92
   5  -3  -6   13.55    1.53
  -5   3   6   16.19    1.94
   4  -3  -6    1.61    0.62
  -4   3   6    0.90    0.71
   3  -3  -6   -0.06    0.38
  -3   3   6   -0.03    0.48
   2  -3  -6    8.98    1.25
  -2   3   6    8.13    1.04
   1  -3  -6    4.85    0.84
   1  -3  -6    6.64    1.15
  -1   3   6    6.36    0.83
   0  -3  -6   33.84    1.86
  -1  -3  -6   10.41    1.39
  -1  -3  -6    7.73    1.17
  -2  -3  -6    4.65    0.98
  -2  -3  -6    2.94    0.93
  -3  -3  -6   10.50    1.36
  -3  -3  -6    8.94    1.51
  -4  -3  -6    8.19    1.59
  -4  -3  -6    5.71    1.08
  -5  -3  -6    0.51    0.80
  -6  -3  -6    2.71    1.22
  -7  -3  -6    0.62    1.13
  -8  -3  -6    0.75    1.12
 -11   4   6    0.44    1.21
 -10   4   6    0.11    1.05
  -9   4   6   -0.96    0.86
  -8   4   6    1.21    1.15
   7  -4  -6    0.19    0.65
  -7   4   6    3.51    1.29
   6  -4  -6   50.30    2.60
  -6   4   6   56.74    3.27
   5  -4  -6    0.07    0.60
  -5   4   6    0.68    0.80
   4  -4  -6    5.04    1.11
  -4   4   6    5.74    1.16
   3  -4  -6    0.57    0.62
  -3   4   6    0.52    0.63
   2  -4  -6    1.94    0.77
   2  -4  -6    1.35    0.54
  -2   4   6    1.79    0.74
   1  -4  -6    1.97    0.73
   1  -4  -6    2.29    0.70
   0  -4  -6   10.41    1.46
  -1  -4  -6   12.73    1.63
  -1  -4  -6   11.00    1.45
  -2  -4  -6    2.21    0.90
  -2  -4  -6    3.07    0.84
  -3  -4  -6    6.62    1.42
  -3  -4  -6    5.13    1.04
  -4  -4  -6    3.75    1.24
  -4  -4  -6    1.43    0.73
  -5  -4  -6    1.18    1.01
  -6  -4  -6    2.01    1.23
  -7  -4  -6    0.43    1.14
 -11   5   6    1.27    1.65
 -10   5   6    0.80    1.16
  -9   5   6    3.87    1.57
   8  -5  -6    0.14    0.73
  -8   5   6    9.81    2.10
   7  -5  -6    0.92    0.90
  -7   5   6    0.44    0.97
   6  -5  -6   10.99    1.70
  -6   5   6   14.67    2.02
   5  -5  -6    9.53    1.58
  -5   5   6    8.66    1.54
   4  -5  -6    0.00    0.57
  -4   5   6   -0.31    0.72
   3  -5  -6    2.22    0.86
  -3   5   6    0.12    0.66
   2  -5  -6   -0.08    0.49
  -2   5   6    0.44    0.73
   1  -5  -6   17.18    1.97
   1  -5  -6   15.03    1.59
   0  -5  -6    8.95    1.42
   0  -5  -6    7.03    1.22
  -1  -5  -6    1.51    0.75
  -1  -5  -6    1.78    0.78
  -2  -5  -6    4.17    1.02
  -2  -5  -6    6.04    1.31
  -3  -5  -6    0.73    0.66
  -3  -5  -6    1.37    1.00
  -4  -5  -6    0.18    0.85
  -5  -5  -6    0.75    1.04
  -6  -5  -6    2.27    1.37
  -7  -5  -6    2.38    1.49
 -10   6   6    1.85    1.52
  -9   6   6    0.56    1.24
   8  -6  -6   17.28    2.25
  -8   6   6   13.47    2.34
   7  -6  -6    1.29    0.99
  -7   6   6    0.09    0.79
   6  -6  -6    3.30    1.18
  -6   6   6    3.13    1.25
   5  -6  -6    0.67    0.81
  -5   6   6    0.93    0.99
   4  -6  -6    1.40    0.98
  -4   6   6    1.89    1.07
   3  -6  -6    1.15    0.81
  -3   6   6    0.94    0.87
   2  -6  -6    6.70    1.34
   1  -6  -6    1.45    0.83
   0  -6  -6    0.11    0.58
   0  -6  -6    0.75    0.72
  -1  -6  -6    1.42    0.85
  -1  -6  -6    2.04    0.86
  -2  -6  -6   -0.39    0.74
  -2  -6  -6   -0.02    0.52
  -3  -6  -6    3.03    1.27
  -3  -6  -6    4.10    1.14
  -4  -6  -6    2.20    1.17
  -5  -6  -6    0.00    0.96
  -6  -6  -6    1.59    1.38
 -10   7   6    1.06    1.30
  -9   7   6   -0.64    1.08
   8  -7  -6    0.88    1.06
  -8   7   6    1.88    1.25
   7  -7  -6   -0.22    0.84
  -7   7   6   -1.01    0.78
   6  -7  -6    1.59    1.06
  -6   7   6   -0.14    0.93
   5  -7  -6   18.61    2.37
  -5   7   6   17.68    2.21
   4  -7  -6    0.49    0.71
  -4   7   6   -0.55    0.88
   3  -7  -6    0.07    0.55
   2  -7  -6   11.26    1.81
   1  -7  -6    1.66    0.86
   0  -7  -6    5.87    1.29
  -1  -7  -6   -0.61    0.56
  -1  -7  -6    0.15    0.87
  -2  -7  -6    3.99    1.31
  -2  -7  -6    6.00    1.32
  -3  -7  -6    1.57    1.13
  -4  -7  -6    1.99    1.28
  -5  -7  -6   -0.20    1.12
   9  -8  -6    0.56    1.32
  -9   8   6   -1.02    1.12
   8  -8  -6    0.31    1.14
  -8   8   6   -1.48    0.89
   7  -8  -6   -0.21    0.85
  -7   8   6   -0.71    0.88
   6  -8  -6    2.64    1.29
  -6   8   6    2.79    1.34
   5  -8  -6    1.88    1.22
  -5   8   6    0.73    1.10
   4  -8  -6    0.85    0.90
   3  -8  -6    4.27    1.36
   2  -8  -6    0.94    0.79
   1  -8  -6    0.11    0.66
   0  -8  -6    2.83    1.18
  -1  -8  -6    2.15    1.05
  -2  -8  -6    1.69    1.02
  -2  -8  -6    2.77    1.26
  -3  -8  -6    0.64    1.16
  -4  -8  -6   -0.36    1.09
   8  -9  -6    4.08    1.67
  -8   9   6    4.59    1.80
   7  -9  -6    1.24    1.20
  -7   9   6    0.62    1.18
   6  -9  -6   -0.77    0.98
  -6   9   6    0.29    1.15
   5  -9  -6    3.92    1.49
   4  -9  -6    0.96    1.03
   3  -9  -6    8.55    1.80
   2  -9  -6    2.21    1.13
   1  -9  -6    2.33    1.08
   0  -9  -6    2.91    1.19
  -1  -9  -6    0.41    0.89
   7 -10  -6    2.45    1.54
   6 -10  -6   -0.13    1.13
   5 -10  -6   -0.87    1.10
   4 -10  -6    1.00    0.95
   3 -10  -6    0.40    0.94
   2 -10  -6    3.05    1.36
   1 -10  -6   -1.24    0.69
   0 -10  -6    0.20    0.98
   1 -12   7    1.87    1.20
   2 -12   7    2.15    1.29
   3 -12   7    2.46    1.26
   4 -12   7    3.20    1.39
   5 -12   7    0.31    1.11
  -2 -11   7   -0.39    1.17
  -1 -11   7    0.14    1.23
   0 -11   7    0.38    1.25
   0 -11   7    0.34    0.87
   1 -11   7   -0.75    0.84
   1 -11   7    0.00    1.09
   2 -11   7    1.47    1.12
   3 -11   7    3.06    1.39
   4 -11   7    0.43    0.97
   5 -11   7    1.02    1.09
   6 -11   7    0.30    1.24
   7 -11   7    0.47    1.36
  -4 -10   7    0.44    1.33
  -3 -10   7   -0.10    1.19
  -2 -10   7    0.56    1.22
  -1 -10   7   -0.10    1.05
   0 -10   7    0.64    1.01
   0 -10   7    1.60    1.06
   1 -10   7    2.77    1.20
   1 -10   7    2.19    1.20
   2 -10   7    8.14    1.78
   2 -10   7   10.22    1.79
   3 -10   7    0.22    0.92
   4 -10   7    6.42    1.71
   5 -10   7   -0.53    0.91
   6 -10   7    0.28    1.08
   7 -10   7    0.15    1.13
   8 -10   7    0.15    1.25
  -5  -9   7    0.23    1.19
  -4  -9   7   -0.05    1.13
  -3  -9   7    2.60    1.37
  -2  -9   7    1.71    1.30
  -1  -9   7   -0.03    0.79
  -1  -9   7   -0.26    0.89
   0  -9   7   -0.62    0.70
   0  -9   7    0.13    0.84
   1  -9   7   -0.44    0.74
   1  -9   7    0.16    0.77
   2  -9   7   -0.08    0.88
   2  -9   7    0.56    0.85
   3  -9   7    1.75    1.05
   3  -9   7    0.29    0.69
   4  -9   7    0.73    1.06
   5  -9   7    1.72    1.21
   6  -9   7   -0.78    0.95
   7  -9   7    0.56    1.16
   8  -9   7    1.45    1.14
   9  -9   7    0.44    1.31
  -6  -8   7   -0.81    1.09
  -5  -8   7    1.49    1.30
  -4  -8   7   -0.51    0.79
  -3  -8   7    1.83    1.19
  -2  -8   7   -0.17    0.86
  -1  -8   7    0.16    0.71
  -1  -8   7   -0.17    0.69
   0  -8   7    0.66    0.77
   0  -8   7    0.22    0.77
   1  -8   7    6.41    1.51
   1  -8   7    4.25    1.14
   2  -8   7   13.51    2.01
   2  -8   7   13.89    1.83
   3  -8   7   30.23    2.91
   4  -8   7    0.55    0.94
   5  -8   7    4.53    1.44
   6  -8   7    0.98    1.15
   7  -8   7    4.12    1.48
   8  -8   7    1.04    1.24
   9  -8   7    4.12    1.55
  -7  -7   7   -1.11    0.80
  -6  -7   7   -0.50    0.80
  -5  -7   7    0.21    1.01
  -4  -7   7    0.64    0.99
  -3  -7   7   -0.23    0.78
  -2  -7   7   15.01    2.10
  -2  -7   7   12.44    1.62
  -1  -7   7    9.51    1.62
  -1  -7   7    8.64    1.45
   0  -7   7    3.79    1.09
   0  -7   7    2.89    1.05
   1  -7   7   30.18    2.14
   1  -7   7   34.87    2.40
   2  -7   7    7.43    1.50
   3  -7   7    1.68    1.02
   4  -7   7   -1.10    0.71
   5  -7   7    1.55    1.16
   6  -7   7   15.35    2.29
   7  -7   7    2.83    1.32
   8  -7   7    0.16    1.05
  -9   7  -7   -0.72    1.17
   9  -7   7    0.60    1.21
  -8  -6   7   -0.29    0.84
  -7  -6   7    1.22    1.20
  -6  -6   7    0.72    0.98
  -5  -6   7    0.74    0.93
  -4  -6   7    1.06    0.99
  -3  -6   7    9.64    1.75
  -2  -6   7    5.48    1.20
  -2  -6   7    9.00    1.64
  -1  -6   7    9.03    1.48
  -1  -6   7    6.24    1.22
   0  -6   7   20.83    2.06
   0  -6   7   17.59    1.92
   1  -6   7   18.71    2.06
   2  -6   7    1.37    0.99
   3  -6   7    2.39    1.04
   4  -6   7    9.98    1.81
   5  -6   7    2.61    1.19
   6  -6   7    1.69    1.27
   7  -6   7    1.58    1.24
  -8   6  -7   -0.46    0.99
   8  -6   7    0.89    1.10
  -9  -5   7   -0.13    0.97
  -8  -5   7   -0.34    0.91
  -7  -5   7   -1.11    0.71
  -6  -5   7    2.24    1.19
  -5  -5   7    5.64    1.49
  -4  -5   7    2.70    1.11
  -3  -5   7   -0.61    0.53
  -3  -5   7   -0.06    0.66
  -2  -5   7   -0.57    0.41
  -2  -5   7    0.21    0.71
  -1  -5   7    8.09    1.31
  -1  -5   7    8.01    1.32
   0  -5   7    2.06    0.93
   1  -5   7   -0.07    0.66
   2  -5   7    9.81    1.54
   3  -5   7    1.01    0.90
   4  -5   7    0.79    0.97
   5  -5   7    8.69    1.67
   6  -5   7   14.33    2.07
  -7   5  -7   -0.15    0.59
  -7   5  -7    0.05    0.64
   7  -5   7   -0.73    0.92
  -8   5  -7    1.00    0.86
   8  -5   7    0.76    1.12
  -9  -4   7    1.28    1.09
  -8  -4   7    2.06    1.19
  -7  -4   7    0.40    0.92
  -6  -4   7    2.51    1.12
  -5  -4   7    7.96    1.66
  -4  -4   7    3.40    1.14
  -3  -4   7    1.72    0.77
  -3  -4   7    0.84    0.68
  -2  -4   7    0.04    0.59
  -2  -4   7    1.14    0.70
  -1  -4   7    4.99    1.02
   0  -4   7   29.50    1.91
   1  -4   7    1.33    0.81
   2  -4   7    2.81    0.95
   3  -4   7    7.06    1.32
   4  -4   7   -0.51    0.79
  -5   4  -7    1.36    0.79
   5  -4   7    0.30    0.90
  -6   4  -7   11.49    1.68
  -6   4  -7   10.47    1.62
   6  -4   7   11.99    1.86
  -7   4  -7    5.49    1.32
   7  -4   7    7.13    1.56
  -8   4  -7    0.91    0.84
  -9   4  -7   -0.26    0.82
 -10   4  -7    1.24    1.35
 -10  -3   7   -1.27    1.06
 -10  -3   7   -0.01    1.08
  -9  -3   7   -0.70    0.82
  -8  -3   7    0.26    0.96
  -7  -3   7   -1.30    0.69
  -6  -3   7    5.42    1.43
  -5  -3   7    2.45    0.95
  -4  -3   7    3.79    1.07
  -4  -3   7    4.65    0.89
  -3  -3   7    1.72    0.76
  -3  -3   7    1.33    0.65
  -2  -3   7   15.83    1.52
  -2  -3   7   18.61    1.88
  -1  -3   7  100.49    3.08
   0  -3   7    3.25    0.88
   1  -3   7    1.49    0.74
   2  -3   7    6.01    1.17
   3  -3   7   11.19    1.55
  -4   3  -7    1.48    0.76
   4  -3   7   -0.18    0.75
  -5   3  -7    1.95    0.87
  -5   3  -7    1.76    0.87
   5  -3   7    1.96    1.01
  -6   3  -7   -0.63    0.55
   6  -3   7    1.08    1.00
  -7   3  -7   11.71    1.82
  -8   3  -7    1.72    1.01
  -9   3  -7    4.87    1.43
 -10   3  -7   -0.28    0.95
 -10  -2   7    0.14    1.14
 -10  -2   7    0.15    1.12
  -9  -2   7    0.82    1.02
  -9  -2   7    1.75    1.18
  -8  -2   7    2.22    1.15
  -7  -2   7    3.95    1.26
  -6  -2   7    0.04    0.82
  -5  -2   7    4.74    1.22
  -4  -2   7    7.38    1.03
  -4  -2   7    7.52    1.28
  -3  -2   7    1.62    0.78
  -3  -2   7    1.97    0.69
  -2  -2   7   16.11    1.53
  -1  -2   7    8.40    1.20
   0  -2   7    0.76    0.67
   1  -2   7   10.73    1.41
   2  -2   7    5.82    1.17
  -3   2  -7   19.20    1.94
   3  -2   7   15.83    1.74
  -4   2  -7   -0.35    0.43
   4  -2   7    0.25    0.60
  -5   2  -7    5.20    1.24
   5  -2   7    5.22    1.28
  -6   2  -7    3.90    1.16
   6  -2   7    1.14    0.89
  -7   2  -7    8.11    1.57
  -8   2  -7    0.40    0.83
  -9   2  -7   -0.47    0.88
 -10   2  -7   -0.33    0.92
 -10  -1   7    0.72    1.09
  -9  -1   7    0.48    0.88
  -9  -1   7    1.26    0.98
  -8  -1   7   -0.05    0.80
  -8  -1   7   -1.06    0.62
  -7  -1   7   -0.21    0.77
  -6  -1   7   13.39    1.81
   5   1  -7   15.19    1.37
  -5  -1   7   14.86    1.71
   4   1  -7    5.51    0.92
  -4  -1   7    7.53    1.20
   3   1  -7    1.04    0.47
   2   1  -7    8.40    1.12
   1   1  -7    0.42    0.47
   0   1  -7    5.01    0.97
   1  -1   7   14.53    1.59
  -2   1  -7   82.40    3.08
   2  -1   7   83.18    2.93
  -3   1  -7   17.21    1.86
   3  -1   7   14.63    1.68
  -4   1  -7    7.54    1.38
   4  -1   7    5.39    1.18
  -5   1  -7    2.12    0.94
   5  -1   7    3.35    1.06
  -6   1  -7    0.73    0.81
   6  -1   7   -1.39    0.75
  -7   1  -7   -0.36    0.77
  -8   1  -7    0.99    1.08
  -9   1  -7    1.28    1.16
 -11   0   7   -1.05    1.02
 -10   0   7   -0.17    0.95
  -9   0   7    0.20    0.83
  -8   0   7    1.55    0.95
  -7   0   7   -0.28    0.71
  -7   0   7   -0.40    0.61
  -6   0   7   27.56    1.91
  -6   0   7   24.28    2.49
   5   0  -7    2.08    0.63
  -5   0   7    2.49    0.84
   4   0  -7   32.92    1.76
  -4   0   7   40.27    1.95
   3   0  -7    4.47    0.85
   2   0  -7   39.69    1.98
   1   0  -7    9.39    1.26
   0   0  -7    0.28    0.40
  -1   0  -7    1.38    0.60
  -1   0  -7    0.85    0.53
  -2   0  -7  108.54    3.54
  -2   0  -7  111.78    3.38
  -3   0  -7    2.13    0.84
   3   0   7    1.60    0.83
  -4   0  -7    1.96    0.88
   4   0   7    2.71    0.86
  -5   0  -7    3.35    1.18
  -6   0  -7   -0.59    0.56
  -7   0  -7    0.33    0.89
  -8   0  -7    6.31    1.72
  -9   0  -7    0.72    1.18
 -11   1   7    0.88    1.31
 -10   1   7   -0.66    0.79
  -9   1   7    1.93    1.12
  -8   1   7    0.34    0.72
  -7   1   7   18.86    2.39
   6  -1  -7    9.96    1.23
  -6   1   7   14.00    1.97
  -6   1   7    8.25    1.27
   5  -1  -7    2.00    0.69
  -5   1   7    2.05    0.87
  -5   1   7    0.78    0.63
   4  -1  -7   11.82    1.37
  -4   1   7    9.60    1.38
  -4   1   7    8.06    1.07
   3  -1  -7    6.53    1.11
  -3   1   7    7.17    1.11
   2  -1  -7   24.91    1.63
  -2   1   7   19.06    1.29
   1  -1  -7   26.75    1.72
  -1   1   7   26.73    1.20
   0  -1  -7    1.13    0.60
   0  -1  -7    2.09    0.66
  -1  -1  -7    2.66    0.79
  -1  -1  -7    2.70    0.82
  -2  -1  -7   12.17    1.59
  -2  -1  -7   13.82    1.53
  -3  -1  -7    5.82    1.24
  -3  -1  -7    7.07    1.08
  -4  -1  -7    4.36    0.99
  -4  -1  -7    5.34    1.28
  -5  -1  -7    0.84    0.85
   5   1   7    1.78    0.89
  -6  -1  -7   -0.33    0.66
  -7  -1  -7    0.29    0.89
  -8  -1  -7   -0.08    0.91
  -9  -1  -7    0.13    1.11
 -11   2   7    0.40    1.07
 -10   2   7   -0.15    0.89
  -9   2   7    1.39    1.11
  -8   2   7    9.59    1.91
  -7   2   7    0.59    0.88
   6  -2  -7    1.76    0.70
  -6   2   7    1.98    1.01
  -5   2   7    3.38    1.09
   4  -2  -7    1.26    0.64
  -4   2   7    1.30    0.73
   3  -2  -7   13.59    1.56
  -3   2   7   11.25    1.37
   2  -2  -7    4.62    0.96
  -2   2   7    3.22    0.70
   1  -2  -7    0.03    0.18
   1  -2  -7    0.02    0.33
  -1   2   7    0.44    0.41
   0  -2  -7    0.14    0.41
   0  -2  -7    1.93    0.64
  -1  -2  -7   -0.19    0.40
  -1  -2  -7    0.08    0.51
  -2  -2  -7    4.46    0.99
  -2  -2  -7    5.03    1.11
  -3  -2  -7    9.85    1.58
  -3  -2  -7    8.20    1.26
  -4  -2  -7   -0.18    0.44
  -4  -2  -7    1.30    0.80
  -5  -2  -7    0.37    0.81
  -6  -2  -7    1.05    1.12
  -7  -2  -7    0.38    0.88
  -8  -2  -7    1.50    1.11
 -11   3   7    1.72    1.42
 -10   3   7    2.70    1.43
  -9   3   7   -0.65    0.76
  -8   3   7    3.64    1.35
   7  -3  -7    4.36    1.16
  -7   3   7    3.94    1.36
  -6   3   7    3.53    1.18
   5  -3  -7    1.05    0.71
  -5   3   7   -0.36    0.73
   4  -3  -7    4.18    1.00
  -4   3   7    3.32    1.01
   3  -3  -7    4.62    1.08
  -3   3   7    3.61    0.93
   2  -3  -7   11.92    1.57
  -2   3   7   11.90    1.24
   1  -3  -7   15.72    1.76
   1  -3  -7   13.45    1.41
   0  -3  -7   10.64    1.44
   0  -3  -7   10.86    1.37
  -1  -3  -7   11.23    1.51
  -1  -3  -7   10.38    1.50
  -2  -3  -7    4.56    1.07
  -2  -3  -7    2.21    0.88
  -3  -3  -7    0.53    0.79
  -3  -3  -7    0.24    0.45
  -4  -3  -7   11.99    1.54
  -4  -3  -7   10.56    1.80
  -5  -3  -7    0.56    0.93
  -6  -3  -7    1.33    1.00
  -7  -3  -7    0.74    1.16
  -8  -3  -7   -0.03    1.05
 -11   4   7    1.82    1.51
 -10   4   7    1.61    1.32
  -9   4   7    0.61    1.11
  -8   4   7    3.68    1.44
   7  -4  -7    2.01    0.86
  -7   4   7   13.11    2.13
   6  -4  -7    1.26    0.83
  -6   4   7    2.80    1.18
   5  -4  -7   20.32    2.16
  -5   4   7   24.34    2.36
   4  -4  -7    1.61    0.76
  -4   4   7    2.94    0.96
   3  -4  -7    3.97    1.07
  -3   4   7    4.32    1.01
   2  -4  -7    1.75    0.83
   2  -4  -7    1.14    0.57
  -2   4   7    1.94    0.81
   1  -4  -7    2.40    0.85
   1  -4  -7    3.29    0.81
   0  -4  -7    8.24    1.35
  -1  -4  -7    0.53    0.58
  -1  -4  -7    0.05    0.50
  -2  -4  -7    0.86    0.66
  -2  -4  -7    0.20    0.62
  -3  -4  -7   12.80    1.93
  -3  -4  -7   14.48    1.74
  -4  -4  -7    0.78    0.68
  -4  -4  -7    1.58    1.03
  -5  -4  -7    0.15    0.87
  -6  -4  -7    0.22    0.96
  -7  -4  -7    1.68    1.31
 -10   5   7   -1.17    1.14
  -9   5   7    0.18    1.14
  -8   5   7    1.26    1.14
   7  -5  -7    0.74    0.83
  -7   5   7    1.30    1.03
   6  -5  -7   13.43    1.87
  -6   5   7    9.04    1.69
   5  -5  -7    9.36    1.64
  -5   5   7    8.58    1.56
   4  -5  -7    0.82    0.80
  -4   5   7    0.34    0.80
   3  -5  -7    0.27    0.65
  -3   5   7    0.09    0.73
   2  -5  -7   -0.19    0.43
   1  -5  -7    2.12    0.82
   1  -5  -7    4.41    1.14
   0  -5  -7    0.11    0.59
   0  -5  -7   -0.13    0.44
  -1  -5  -7    0.20    0.66
  -1  -5  -7    0.59    0.64
  -2  -5  -7    2.32    0.92
  -2  -5  -7    2.90    1.08
  -3  -5  -7    0.01    0.79
  -3  -5  -7    0.49    0.72
  -4  -5  -7    0.08    0.87
  -5  -5  -7    0.70    1.08
  -6  -5  -7    1.15    1.17
 -10   6   7   -0.62    1.09
  -9   6   7    2.64    1.54
   8  -6  -7    1.01    1.12
  -8   6   7    0.48    1.16
   7  -6  -7    2.38    1.22
  -7   6   7    0.82    0.86
   6  -6  -7    7.68    1.60
  -6   6   7    8.81    1.75
   5  -6  -7    1.38    0.87
  -5   6   7    1.78    1.12
   4  -6  -7    0.45    0.76
  -4   6   7    0.09    0.89
   3  -6  -7   -0.36    0.63
   2  -6  -7    1.73    0.88
   1  -6  -7    0.68    0.72
   0  -6  -7    9.98    1.54
   0  -6  -7   10.08    1.62
  -1  -6  -7    0.90    0.74
  -1  -6  -7    0.65    0.89
  -2  -6  -7   -0.20    0.60
  -2  -6  -7    1.41    0.98
  -3  -6  -7    0.03    0.71
  -3  -6  -7    0.44    0.98
  -4  -6  -7   -0.36    0.92
  -5  -6  -7    0.47    1.07
 -10   7   7    1.59    1.31
  -9   7   7   -0.95    1.05
   8  -7  -7    1.36    1.17
  -8   7   7    2.42    1.40
   7  -7  -7    3.02    1.29
  -7   7   7    0.50    1.06
   6  -7  -7    0.71    0.98
  -6   7   7    0.08    0.97
   5  -7  -7    1.37    1.02
  -5   7   7   -0.02    0.89
   4  -7  -7    0.54    0.94
   3  -7  -7    9.19    1.71
   2  -7  -7    5.69    1.36
   1  -7  -7    2.21    1.01
   0  -7  -7    2.25    1.07
  -1  -7  -7    1.75    0.94
  -2  -7  -7    0.49    1.02
  -2  -7  -7    0.80    0.91
  -3  -7  -7    3.15    1.38
  -4  -7  -7   -0.68    0.97
   9  -8  -7    1.88    1.47
  -9   8   7    1.72    1.48
   8  -8  -7    6.78    1.82
  -8   8   7    2.37    1.48
   7  -8  -7    1.15    1.21
  -7   8   7    0.39    1.13
   6  -8  -7    0.35    1.12
  -6   8   7    0.77    1.05
   5  -8  -7    3.78    1.38
   4  -8  -7    1.13    1.02
   3  -8  -7    0.46    0.70
   2  -8  -7   -0.06    0.74
   1  -8  -7   -0.20    0.73
   0  -8  -7    0.01    0.75
  -1  -8  -7    0.84    0.99
  -2  -8  -7   -0.31    0.84
  -3  -8  -7    0.43    1.24
   8  -9  -7    0.73    1.46
  -8   9   7   -0.62    1.22
   7  -9  -7   -0.54    1.00
  -7   9   7    0.36    1.25
   6  -9  -7   -0.11    1.10
   5  -9  -7    1.76    1.24
   4  -9  -7    0.16    0.90
   3  -9  -7    0.73    0.91
   2  -9  -7    1.57    1.06
   1  -9  -7    0.53    0.92
   0  -9  -7    1.32    1.09
  -1  -9  -7   -0.28    0.98
   5 -10  -7   -0.02    1.08
   4 -10  -7    0.43    0.94
   3 -10  -7    0.89    1.07
   2 -10  -7    1.16    1.12
   1 -10  -7    0.73    1.03
   0 -12   8    2.03    1.62
   1 -12   8    2.18    1.38
   2 -12   8    0.31    1.01
   3 -12   8    0.38    1.05
   4 -12   8    0.46    1.00
  -2 -11   8    0.02    1.28
  -1 -11   8   -0.51    1.16
   0 -11   8    4.23    1.63
   0 -11   8    5.10    1.59
   1 -11   8    1.46    1.35
   1 -11   8    2.23    1.29
   2 -11   8    0.16    1.00
   3 -11   8    2.28    1.22
   4 -11   8    0.20    1.04
   5 -11   8    0.65    0.99
   6 -11   8    3.42    1.67
  -4 -10   8   -0.44    1.26
  -3 -10   8   -0.40    1.08
  -2 -10   8    0.32    1.28
  -1 -10   8    2.90    1.37
   0 -10   8    1.43    1.13
   0 -10   8    0.39    0.97
   1 -10   8    1.84    1.18
   1 -10   8    3.11    1.35
   2 -10   8   -0.62    0.75
   2 -10   8   -0.04    0.95
   3 -10   8   -0.96    0.79
   3 -10   8   -0.03    0.79
   4 -10   8   -0.35    0.74
   5 -10   8    1.28    1.13
   6 -10   8   -0.40    0.92
   7 -10   8    5.01    1.68
   8 -10   8   -0.82    1.16
  -5  -9   8    0.62    1.33
  -4  -9   8   -0.20    1.08
  -3  -9   8   -0.71    1.03
  -2  -9   8   -0.66    0.84
  -1  -9   8    4.93    1.35
  -1  -9   8    5.47    1.58
   0  -9   8    2.00    1.01
   0  -9   8    0.55    0.91
   1  -9   8    4.45    1.28
   1  -9   8    5.77    1.40
   2  -9   8    0.92    1.01
   2  -9   8    0.22    0.84
   3  -9   8    4.99    1.32
   3  -9   8    3.07    1.34
   4  -9   8    3.11    1.31
   5  -9   8    1.55    1.30
   6  -9   8    2.77    1.44
   7  -9   8    3.08    1.47
   8  -9   8    1.45    1.35
   9  -9   8   -1.21    1.32
  -6  -8   8   -0.53    1.05
  -5  -8   8    0.52    1.19
  -4  -8   8    1.82    1.33
  -3  -8   8   -0.06    0.93
  -2  -8   8   -0.04    0.74
  -1  -8   8    1.63    1.01
  -1  -8   8    2.29    1.10
   0  -8   8    6.12    1.42
   0  -8   8    4.73    1.34
   1  -8   8   16.21    2.06
   1  -8   8   12.69    1.89
   2  -8   8    1.12    0.99
   3  -8   8   18.87    2.37
   4  -8   8    0.49    1.03
   5  -8   8    0.62    1.11
   6  -8   8    0.93    1.09
   7  -8   8    2.88    1.33
   8  -8   8    0.82    1.23
   9  -8   8    2.50    1.50
  -7  -7   8    1.01    1.27
  -6  -7   8   -0.80    0.80
  -5  -7   8    0.14    0.86
  -4  -7   8    1.05    1.06
  -3  -7   8    0.45    0.95
  -2  -7   8    5.20    1.43
  -2  -7   8    4.83    1.18
  -1  -7   8   -0.43    0.70
  -1  -7   8    0.72    0.87
   0  -7   8   10.37    1.69
   0  -7   8   11.10    1.74
   1  -7   8    0.54    0.91
   2  -7   8    6.80    1.54
   3  -7   8   22.94    2.52
   4  -7   8   21.71    2.53
   5  -7   8    0.27    0.92
   6  -7   8    0.40    1.07
   7  -7   8    2.00    1.21
   8  -7   8    2.41    1.44
   9  -7   8    0.14    1.36
  -8  -6   8   -0.34    1.08
  -7  -6   8    0.27    1.08
  -6  -6   8    0.44    0.93
  -5  -6   8    0.76    0.94
  -4  -6   8    2.35    1.17
  -3  -6   8    5.99    1.49
  -2  -6   8    7.25    1.33
  -2  -6   8    4.84    1.28
  -1  -6   8    3.78    1.10
  -1  -6   8    2.58    0.98
   0  -6   8    6.40    1.38
   1  -6   8    3.24    1.23
   2  -6   8    6.11    1.44
   3  -6   8    0.45    1.01
   4  -6   8   23.15    2.54
   5  -6   8   10.24    1.87
   6  -6   8    7.38    1.65
   7  -6   8    1.08    1.16
   8  -6   8   -1.10    1.09
  -8  -5   8    0.83    1.04
  -7  -5   8    0.01    0.90
  -6  -5   8    0.51    0.96
  -5  -5   8    2.89    1.23
  -4  -5   8   -0.31    0.72
  -3  -5   8    0.70    0.80
  -3  -5   8   -0.41    0.71
  -2  -5   8    2.32    0.96
  -2  -5   8    1.86    0.82
  -1  -5   8    0.27    0.66
  -1  -5   8    0.45    0.81
   0  -5   8   21.21    2.06
   1  -5   8    3.58    1.11
   2  -5   8    1.08    0.86
   3  -5   8    8.11    1.56
   4  -5   8    3.72    1.27
   5  -5   8    2.77    1.24
   6  -5   8   -0.11    1.02
   7  -5   8    1.69    1.26
  -8   5  -8   -0.28    0.70
   8  -5   8    0.76    1.26
  -9   5  -8    0.03    0.98
  -9  -4   8    0.03    1.03
  -8  -4   8   -0.75    0.85
  -7  -4   8    1.17    1.14
  -6  -4   8    2.40    1.20
  -5  -4   8    8.64    1.69
  -4  -4   8   18.30    2.20
  -3  -4   8   14.52    1.56
  -3  -4   8   11.00    1.66
  -2  -4   8    0.17    0.61
  -2  -4   8    0.14    0.67
  -1  -4   8   28.43    2.27
   0  -4   8   12.55    1.69
   1  -4   8   14.62    1.78
   2  -4   8    0.91    0.79
   3  -4   8    0.01    0.76
   4  -4   8    0.82    0.98
   5  -4   8   -0.32    0.87
  -6   4  -8   -0.81    0.49
   6  -4   8   -1.18    0.85
  -7   4  -8   -0.60    0.63
   7  -4   8    0.70    1.22
  -8   4  -8    3.24    1.25
  -9   4  -8    0.48    0.96
 -10   4  -8    2.38    1.33
  -9  -3   8   -0.09    0.92
  -8  -3   8    0.50    1.00
  -7  -3   8   -0.90    0.73
  -6  -3   8   13.31    2.03
  -5  -3   8    8.21    1.61
  -4  -3   8    2.62    1.03
  -4  -3   8    4.46    0.98
  -3  -3   8   -0.05    0.67
  -3  -3   8    0.54    0.66
  -2  -3   8   22.86    1.94
  -1  -3   8   25.55    2.13
   0  -3   8   19.70    1.94
   1  -3   8   27.19    2.30
   2  -3   8   -0.45    0.62
   3  -3   8    0.00    0.74
  -4   3  -8    5.95    1.29
   4  -3   8    3.77    1.26
  -5   3  -8    2.11    0.95
   5  -3   8    1.94    1.10
  -6   3  -8    2.38    0.97
   6  -3   8    2.66    1.21
  -7   3  -8    0.45    0.74
   7  -3   8    0.89    1.16
  -8   3  -8    0.27    0.83
  -9   3  -8    3.85    1.39
 -10   3  -8    0.54    1.09
 -10  -2   8   -0.36    1.02
  -9  -2   8   -0.30    0.91
  -9  -2   8    1.05    1.02
  -8  -2   8   -0.37    0.80
  -7  -2   8    0.20    0.85
  -6  -2   8    3.04    1.13
  -5  -2   8    4.32    1.15
  -4  -2   8    1.41    0.72
  -4  -2   8    0.66    0.70
  -3  -2   8    1.39    0.74
  -3  -2   8    1.30    0.69
  -2  -2   8   66.67    2.63
  -1  -2   8    8.36    1.26
   0  -2   8    0.53    0.61
   1  -2   8   32.67    2.08
   2  -2   8    2.77    1.02
  -3   2  -8    0.73    0.60
   3  -2   8    1.45    0.92
  -4   2  -8    4.44    1.18
   4  -2   8    5.22    1.30
  -5   2  -8    0.63    0.66
   5  -2   8    1.80    1.07
  -6   2  -8   -0.10    0.69
   6  -2   8   -0.45    0.99
  -7   2  -8    1.00    0.85
  -8   2  -8    8.98    1.79
  -9   2  -8    1.48    1.09
 -10  -1   8   -0.06    0.98
  -9  -1   8   -0.53    0.70
  -8  -1   8    0.96    0.80
  -8  -1   8    0.27    0.90
  -7  -1   8    4.15    1.27
  -6  -1   8    6.83    1.37
   5   1  -8    0.86    0.65
  -5  -1   8    0.89    0.75
   4   1  -8   -0.14    0.43
  -4  -1   8    0.39    0.63
   3   1  -8    4.73    0.92
   2   1  -8    0.10    0.48
   1   1  -8   -0.34    0.34
   0   1  -8   10.74    1.44
   1  -1   8    0.58    0.62
  -2   1  -8   30.53    2.05
   2  -1   8   26.97    2.31
  -3   1  -8    0.03    0.56
   3  -1   8    0.19    0.77
  -4   1  -8    2.83    0.95
   4  -1   8    3.76    1.15
  -5   1  -8    7.25    1.49
   5  -1   8    8.08    1.55
  -6   1  -8    4.69    1.30
   6  -1   8    0.51    0.80
  -7   1  -8    0.82    0.93
  -8   1  -8    1.90    1.18
  -9   1  -8    1.47    1.21
 -10   0   8    0.07    0.97
  -9   0   8    1.00    1.00
  -8   0   8    0.55    0.93
  -7   0   8   -0.08    0.79
  -7   0   8   -0.07    0.68
  -6   0   8    7.80    1.38
  -6   0   8    8.29    1.58
   5   0  -8    0.26    0.54
  -5   0   8   -0.65    0.60
  -4   0   8   10.51    1.34
   3   0  -8    0.01    0.44
   2   0  -8    0.91    0.60
   1   0  -8   -0.01    0.42
   0   0  -8    0.73    0.55
  -1   0  -8   52.94    2.44
  -1   0  -8   46.41    2.41
  -2   0  -8    3.23    0.94
  -2   0  -8    4.51    1.01
  -3   0  -8    8.10    1.49
   3   0   8   10.14    1.59
  -4   0  -8   22.76    2.45
   4   0   8   23.26    2.27
  -5   0  -8    1.08    0.93
   5   0   8    0.08    0.89
  -6   0  -8   -0.51    0.61
   6   0   8    0.07    0.93
  -7   0  -8    1.23    1.03
  -8   0  -8    1.43    1.16
  -9   0  -8    0.18    1.09
 -10   1   8   -0.52    0.80
  -9   1   8    0.21    0.84
  -8   1   8    2.18    1.15
  -7   1   8   10.98    1.90
   6  -1  -8    0.64    0.62
  -6   1   8    1.14    0.89
   5  -1  -8   19.11    1.83
  -5   1   8   21.03    2.24
  -5   1   8   20.68    1.77
   4  -1  -8    2.40    0.83
  -4   1   8    2.33    0.88
   3  -1  -8    4.06    0.97
  -3   1   8    5.35    1.04
   2  -1  -8    1.29    0.67
  -2   1   8    0.61    0.51
   1  -1  -8    2.26    0.74
  -1   1   8    2.49    0.59
   0  -1  -8    9.12    1.30
  -1  -1  -8    3.60    0.95
  -1  -1  -8    2.33    0.82
  -2  -1  -8   18.67    2.07
  -2  -1  -8   18.25    1.86
  -3  -1  -8    2.61    0.80
  -3  -1  -8    3.72    1.10
  -4  -1  -8    3.02    1.14
  -4  -1  -8    1.93    0.87
  -5  -1  -8    0.77    0.90
   5   1   8    0.04    0.76
  -6  -1  -8    0.17    0.84
  -7  -1  -8    2.48    1.17
  -8  -1  -8    0.14    0.95
 -11   2   8    1.04    1.35
 -10   2   8    0.72    1.06
  -9   2   8    0.63    1.03
  -8   2   8   -0.92    0.77
  -7   2   8   -0.04    0.82
   6  -2  -8    2.56    0.91
  -6   2   8    3.40    1.25
   5  -2  -8    1.90    0.84
  -5   2   8   -0.03    0.69
   4  -2  -8    6.70    1.24
  -4   2   8    3.82    1.07
   3  -2  -8    0.50    0.59
  -3   2   8   -0.43    0.52
   2  -2  -8    0.10    0.61
  -2   2   8    0.40    0.52
   1  -2  -8   13.63    1.71
   0  -2  -8   16.12    1.83
   0  -2  -8   15.81    1.76
  -1  -2  -8    0.62    0.55
  -1  -2  -8    0.02    0.59
  -2  -2  -8    1.13    0.80
  -2  -2  -8    2.38    0.82
  -3  -2  -8    3.34    1.23
  -3  -2  -8    5.89    1.13
  -4  -2  -8    1.76    1.05
  -4  -2  -8    2.58    0.86
  -5  -2  -8    0.32    0.85
   5   2   8    0.81    0.70
  -6  -2  -8    0.05    0.83
  -7  -2  -8    0.45    0.89
  -8  -2  -8   -0.57    0.95
 -11   3   8    0.04    1.21
 -10   3   8    3.25    1.54
  -9   3   8    4.02    1.52
  -8   3   8    4.91    1.52
   7  -3  -8    2.63    1.02
  -7   3   8    1.71    1.05
   6  -3  -8    6.68    1.31
  -6   3   8    8.63    1.70
   5  -3  -8    0.76    0.70
  -5   3   8    0.94    0.83
   4  -3  -8    1.33    0.67
  -4   3   8    0.05    0.74
   3  -3  -8    0.21    0.57
  -3   3   8    0.41    0.68
   2  -3  -8   -0.16    0.48
   1  -3  -8    7.77    1.22
   1  -3  -8   10.18    1.53
   0  -3  -8    0.30    0.55
   0  -3  -8    1.72    0.75
  -1  -3  -8    0.08    0.61
  -1  -3  -8    0.77    0.65
  -2  -3  -8   -0.10    0.66
  -2  -3  -8    0.87    0.70
  -3  -3  -8    6.48    1.22
  -3  -3  -8    8.72    1.64
  -4  -3  -8    0.77    0.79
  -4  -3  -8    0.78    1.00
  -5  -3  -8   -0.11    0.86
  -6  -3  -8    1.32    1.16
  -7  -3  -8    1.53    1.29
 -10   4   8   -0.26    0.97
  -9   4   8    2.90    1.54
  -8   4   8   -0.39    0.96
   7  -4  -8   -0.04    0.78
  -7   4   8    0.90    1.04
   6  -4  -8    6.88    1.46
  -6   4   8    5.95    1.50
   5  -4  -8   15.41    2.00
  -5   4   8   13.91    1.88
   4  -4  -8    3.17    1.05
  -4   4   8    3.46    1.06
   3  -4  -8    1.77    0.87
   2  -4  -8    1.50    0.83
   1  -4  -8    7.32    1.23
   1  -4  -8   10.00    1.54
   0  -4  -8   21.48    2.24
  -1  -4  -8    0.46    0.67
  -1  -4  -8   -0.13    0.59
  -2  -4  -8    9.46    1.53
  -2  -4  -8   10.73    1.78
  -3  -4  -8    5.98    1.28
  -3  -4  -8    9.14    1.78
  -4  -4  -8    1.35    0.84
  -4  -4  -8    0.28    0.91
  -5  -4  -8    0.31    1.05
  -6  -4  -8    0.13    1.06
 -10   5   8    0.61    1.16
  -9   5   8   -0.07    1.16
  -8   5   8    0.03    1.08
   7  -5  -8    0.15    0.86
  -7   5   8    0.95    1.10
   6  -5  -8    0.38    0.89
  -6   5   8    0.47    0.89
   5  -5  -8   12.14    1.85
  -5   5   8   14.95    1.94
   4  -5  -8    1.18    0.83
  -4   5   8   -0.18    0.85
   3  -5  -8   10.37    1.76
   2  -5  -8    0.61    0.60
   1  -5  -8   21.31    2.37
   0  -5  -8    3.35    0.95
   0  -5  -8   15.36    2.00
  -1  -5  -8    4.10    1.19
  -1  -5  -8    3.64    1.11
  -2  -5  -8    0.06    0.76
  -2  -5  -8    0.37    0.66
  -3  -5  -8    0.99    0.84
  -3  -5  -8   -0.02    0.81
  -4  -5  -8    0.71    1.06
  -5  -5  -8   -0.21    1.10
  -6  -5  -8    0.89    1.36
 -10   6   8    0.28    1.36
  -9   6   8   -0.71    1.17
   8  -6  -8    0.16    0.95
  -8   6   8    0.77    1.15
   7  -6  -8    0.22    0.93
  -7   6   8    0.04    0.66
   6  -6  -8    0.09    0.72
  -6   6   8   -0.28    0.86
   5  -6  -8    1.24    0.91
  -5   6   8    0.81    0.97
   4  -6  -8    5.18    1.42
   3  -6  -8    2.23    1.06
   2  -6  -8    4.85    1.35
   1  -6  -8    5.57    1.32
   0  -6  -8    4.40    1.21
  -1  -6  -8    0.80    0.98
  -1  -6  -8    1.32    0.87
  -2  -6  -8    3.40    1.34
  -2  -6  -8    3.47    1.17
  -3  -6  -8    0.77    0.94
  -3  -6  -8    0.13    0.90
  -4  -6  -8    0.39    1.20
  -5  -6  -8    0.69    1.34
  -9   7   8    0.03    1.33
   8  -7  -8    0.55    1.12
  -8   7   8   -1.24    1.01
   7  -7  -8    1.52    1.17
  -7   7   8    0.55    1.15
   6  -7  -8    0.25    0.96
  -6   7   8   -0.49    0.94
   5  -7  -8    1.01    1.00
   4  -7  -8   -0.05    0.80
   3  -7  -8   17.65    2.41
   2  -7  -8    0.73    0.88
   1  -7  -8    2.59    1.15
   0  -7  -8    0.13    0.68
  -1  -7  -8   -0.31    0.71
  -2  -7  -8   -0.21    0.72
  -2  -7  -8    0.20    1.14
  -3  -7  -8    0.02    1.09
   8  -8  -8    0.44    1.33
  -8   8   8    1.44    1.43
   7  -8  -8    0.92    1.25
  -7   8   8   -0.30    1.11
   6  -8  -8    0.01    0.94
   5  -8  -8    0.41    1.04
   4  -8  -8   -0.41    0.89
   3  -8  -8    3.70    1.31
   2  -8  -8    1.34    1.04
   1  -8  -8    0.74    0.95
   0  -8  -8   -0.17    0.82
  -1  -8  -8   -1.24    0.70
  -2  -8  -8    0.12    0.95
   7  -9  -8    1.09    1.38
   6  -9  -8    3.93    1.72
   5  -9  -8    0.00    1.06
   4  -9  -8    0.06    1.02
   3  -9  -8   -0.55    0.67
   2  -9  -8    0.97    0.89
   1  -9  -8   -0.28    0.90
   0  -9  -8    0.86    1.04
   1 -12   9    1.19    1.33
   2 -12   9    2.17    1.35
   3 -12   9    2.02    1.38
  -2 -11   9   -0.19    1.42
  -1 -11   9    1.75    1.44
   0 -11   9    1.88    1.25
   0 -11   9    1.40    1.37
   1 -11   9    0.91    1.11
   1 -11   9    1.85    1.27
   2 -11   9    0.31    1.12
   2 -11   9   -0.92    0.81
   3 -11   9   -0.46    0.89
   4 -11   9    0.37    1.04
   5 -11   9    1.12    1.19
   6 -11   9    0.17    1.34
  -3 -10   9   -1.05    1.11
  -2 -10   9    0.95    1.33
  -1 -10   9    0.43    1.12
   0 -10   9    5.11    1.60
   0 -10   9    1.89    1.11
   1 -10   9    7.96    1.73
   1 -10   9    4.88    1.47
   2 -10   9   -1.14    0.80
   2 -10   9    1.43    1.12
   3 -10   9    1.09    1.08
   3 -10   9    0.64    1.10
   4 -10   9   -0.90    0.71
   5 -10   9    0.34    1.10
   6 -10   9    2.99    1.61
   7 -10   9   -0.25    1.27
  -5  -9   9    0.01    1.15
  -4  -9   9   -0.04    1.14
  -3  -9   9    0.30    1.14
  -2  -9   9    0.18    1.04
  -1  -9   9    4.63    1.53
  -1  -9   9    6.38    1.41
   0  -9   9    2.58    1.20
   0  -9   9    1.18    1.01
   1  -9   9   16.58    2.19
   1  -9   9   12.81    2.06
   2  -9   9   13.78    2.04
   2  -9   9   11.07    2.02
   3  -9   9    2.99    1.25
   4  -9   9    5.20    1.58
   5  -9   9    0.91    1.22
   6  -9   9    0.71    1.23
   7  -9   9    5.00    1.78
   8  -9   9    1.05    1.37
  -6  -8   9    0.70    1.24
  -5  -8   9    0.22    1.06
  -4  -8   9    0.75    1.11
  -3  -8   9    7.72    1.84
  -2  -8   9    1.56    1.03
  -1  -8   9    6.44    1.56
  -1  -8   9    2.94    1.14
   0  -8   9   -0.07    0.82
   0  -8   9    0.53    0.92
   1  -8   9    1.97    1.02
   1  -8   9    0.50    0.84
   2  -8   9    1.24    1.06
   3  -8   9    9.02    1.86
   4  -8   9   -0.15    0.96
   5  -8   9    3.64    1.59
   6  -8   9    1.89    1.35
   7  -8   9    1.15    1.39
   8  -8   9    2.67    1.59
   9  -8   9   -0.03    1.39
  -7  -7   9    1.25    1.32
  -6  -7   9    2.73    1.28
  -5  -7   9   -0.22    0.89
  -4  -7   9    2.19    1.16
  -3  -7   9    7.17    1.67
  -2  -7   9    5.39    1.31
  -2  -7   9    3.06    1.19
  -1  -7   9    3.68    1.16
  -1  -7   9   10.60    1.80
   0  -7   9   44.84    2.87
   1  -7   9   17.48    2.32
   2  -7   9    0.33    0.98
   3  -7   9    0.55    1.07
   4  -7   9    0.59    1.05
   5  -7   9    0.85    1.10
   6  -7   9    4.76    1.64
   7  -7   9    1.01    1.27
   8  -7   9   -0.02    1.29
   9  -7   9    2.67    1.65
  -7  -6   9   -1.09    0.92
  -6  -6   9    1.82    1.21
  -5  -6   9    2.97    1.32
  -4  -6   9    0.25    0.75
  -3  -6   9    9.58    1.79
  -2  -6   9    1.96    0.98
  -2  -6   9   -0.52    0.76
  -1  -6   9   16.10    1.95
  -1  -6   9   14.34    1.96
   0  -6   9    1.22    1.05
   1  -6   9    0.00    0.83
   2  -6   9    0.96    1.10
   3  -6   9    7.93    1.72
   4  -6   9    3.18    1.32
   5  -6   9    0.21    1.09
   6  -6   9    5.18    1.69
   7  -6   9   -0.35    1.16
   8  -6   9    3.16    1.56
  -8  -5   9   -0.37    1.01
  -7  -5   9    0.17    0.93
  -6  -5   9   -0.04    0.89
  -5  -5   9   -1.05    0.71
  -4  -5   9   18.20    2.32
  -3  -5   9    3.86    1.10
  -3  -5   9    3.07    1.08
  -2  -5   9   19.54    1.96
  -2  -5   9   17.94    2.13
  -1  -5   9   20.44    2.08
   0  -5   9    9.41    1.60
   1  -5   9    1.39    0.95
   2  -5   9   19.64    2.30
   3  -5   9    1.15    1.02
   4  -5   9    6.97    1.63
   5  -5   9   -0.87    0.90
   6  -5   9    1.46    1.15
   7  -5   9    3.73    1.50
  -8   5  -9   -0.37    0.62
   8  -5   9    0.90    1.39
  -9   5  -9    1.48    1.15
  -9  -4   9   -0.95    0.98
  -8  -4   9   -0.17    1.09
  -7  -4   9    1.57    1.08
  -6  -4   9    5.21    1.46
  -5  -4   9    7.19    1.61
  -4  -4   9   18.80    2.27
  -3  -4   9    8.37    1.35
  -3  -4   9    7.41    1.43
  -2  -4   9   12.07    1.67
  -1  -4   9   -0.18    0.71
   0  -4   9   19.64    2.15
   1  -4   9    0.17    0.78
   2  -4   9    1.94    1.00
   3  -4   9    2.68    1.21
   4  -4   9   -0.30    0.85
   5  -4   9    7.77    1.68
  -6   4  -9    2.05    0.95
   6  -4   9    0.04    1.05
  -7   4  -9    4.22    1.23
   7  -4   9    1.12    1.25
  -8   4  -9    0.92    0.95
  -9   4  -9    2.05    1.20
  -9  -3   9   -0.64    0.99
  -8  -3   9   -0.21    0.96
  -7  -3   9   -0.01    0.95
  -6  -3   9    0.15    0.77
  -5  -3   9    1.47    0.99
  -4  -3   9    2.85    1.00
  -4  -3   9    0.93    0.82
  -3  -3   9    9.25    1.51
  -3  -3   9    8.99    1.36
  -2  -3   9    2.41    0.93
  -1  -3   9    1.83    0.87
   0  -3   9    1.27    0.87
   1  -3   9    7.73    1.46
   2  -3   9    7.30    1.47
   3  -3   9    5.49    1.42
   4  -3   9    0.68    1.00
  -5   3  -9    1.48    0.89
   5  -3   9    0.85    1.12
  -6   3  -9    1.15    0.86
   6  -3   9    1.45    1.23
  -7   3  -9    0.37    0.76
   7  -3   9   -0.82    1.04
  -8   3  -9    0.50    0.97
  -9   3  -9    0.09    0.95
 -10  -2   9   -0.47    1.08
  -9  -2   9    0.79    1.17
  -9  -2   9    0.52    0.90
  -8  -2   9    0.93    1.02
  -7  -2   9    2.39    1.12
  -6  -2   9   29.15    2.72
  -5  -2   9    1.31    0.91
  -4  -2   9    1.67    0.87
  -4  -2   9    1.13    0.79
  -3  -2   9    0.46    0.69
  -2  -2   9   34.42    2.11
  -1  -2   9    0.05    0.65
   0  -2   9   50.32    2.61
   1  -2   9    4.18    1.14
   2  -2   9   -0.18    0.78
  -3   2  -9    0.50    0.62
   3  -2   9    0.81    0.93
  -4   2  -9    1.27    0.78
   4  -2   9    0.19    0.86
  -5   2  -9    2.91    1.12
   5  -2   9    0.83    1.05
  -6   2  -9    5.72    1.47
   6  -2   9    7.19    1.64
  -7   2  -9    0.16    0.75
  -8   2  -9    0.71    0.99
  -9   2  -9    1.36    1.13
 -10  -1   9   -0.79    0.79
  -9  -1   9    0.87    1.01
  -8  -1   9    1.49    1.07
  -8  -1   9    0.29    0.84
  -7  -1   9    5.50    1.38
  -6  -1   9    6.19    1.37
   5   1  -9    0.27    0.63
  -5  -1   9    0.24    0.67
   4   1  -9    1.16    0.68
  -4  -1   9    0.31    0.70
   3   1  -9    1.07    0.70
   2   1  -9   16.97    1.87
   1   1  -9    0.00    0.64
   0   1  -9    0.64    0.66
   1  -1   9   27.08    2.45
  -2   1  -9   22.30    2.27
   2  -1   9   25.42    2.39
  -3   1  -9    0.94    0.70
   3  -1   9    0.25    0.78
  -4   1  -9   45.01    2.83
   4  -1   9   41.31    2.67
  -5   1  -9    0.10    0.71
   5  -1   9    2.80    1.21
  -6   1  -9    1.06    0.94
   6  -1   9    3.56    1.36
  -7   1  -9    0.57    0.90
  -8   1  -9    4.19    1.51
  -9   1  -9    0.38    1.03
 -10   0   9   -0.33    0.94
  -9   0   9    0.02    0.71
  -8   0   9   -0.14    0.74
  -7   0   9    5.65    1.56
  -6   0   9    2.58    0.99
  -6   0   9    1.02    0.92
   5   0  -9    6.21    1.15
  -5   0   9    7.36    1.27
  -5   0   9    6.40    1.37
   4   0  -9    6.84    1.20
   3   0  -9    2.51    0.85
   2   0  -9    7.05    1.29
   1   0  -9   -0.51    0.52
   0   0  -9   15.70    1.78
  -1   0  -9    0.67    0.64
  -1   0  -9    0.35    0.47
  -2   0  -9   34.08    2.25
  -2   0  -9   35.39    2.40
  -3   0  -9    0.09    0.59
   3   0   9    0.65    0.93
  -4   0  -9   -0.06    0.70
   4   0   9    0.42    0.88
  -5   0  -9    0.25    0.79
   5   0   9   -0.07    0.85
  -6   0  -9    0.58    0.93
   6   0   9   -0.05    0.97
  -7   0  -9    2.76    1.31
  -8   0  -9   -0.56    0.90
 -10   1   9    0.03    1.09
  -9   1   9    0.32    1.01
  -8   1   9    0.65    0.94
  -7   1   9    7.26    1.61
   6  -1  -9    5.98    1.22
  -6   1   9    2.18    1.09
  -5   1   9   12.03    1.45
  -5   1   9   13.58    1.90
   4  -1  -9   -0.03    0.64
  -4   1   9   -0.19    0.61
   3  -1  -9    7.47    1.36
  -3   1   9    8.85    1.32
   2  -1  -9    0.93    0.69
  -2   1   9    0.60    0.56
   1  -1  -9   16.69    1.88
   0  -1  -9   13.23    1.71
  -1  -1  -9   37.15    2.28
  -1  -1  -9   35.72    2.33
  -2  -1  -9   13.35    1.68
  -2  -1  -9    9.35    1.60
  -3  -1  -9    1.97    1.03
  -3  -1  -9   -0.18    0.61
  -4  -1  -9    0.33    0.74
   4   1   9   -0.57    0.87
  -5  -1  -9    0.20    0.82
   5   1   9    0.55    1.04
  -6  -1  -9    0.11    0.95
  -7  -1  -9    0.40    0.97
  -8  -1  -9    1.59    1.32
 -10   2   9   -0.82    0.82
  -9   2   9    0.49    1.00
  -8   2   9   -0.24    0.80
  -7   2   9    0.96    0.91
   6  -2  -9    0.00    0.61
  -6   2   9    2.02    1.08
   5  -2  -9   -0.34    0.57
  -5   2   9   -0.43    0.70
   4  -2  -9   11.36    1.64
  -4   2   9   12.39    1.65
   3  -2  -9    2.03    0.89
  -3   2   9    1.70    0.81
   2  -2  -9   21.97    2.29
   1  -2  -9    1.97    0.90
   0  -2  -9   21.98    2.11
   0  -2  -9   22.20    2.25
  -1  -2  -9    4.49    1.07
  -1  -2  -9    2.60    0.94
  -2  -2  -9    6.36    1.42
  -2  -2  -9    8.03    1.41
  -3  -2  -9    2.24    1.04
  -3  -2  -9    1.72    0.83
  -4  -2  -9    0.51    0.85
  -4  -2  -9   -0.62    0.59
  -5  -2  -9   -0.04    0.97
   5   2   9   -0.61    0.87
  -6  -2  -9   -0.44    1.02
  -7  -2  -9    1.13    1.26
 -10   3   9    1.24    1.33
  -9   3   9    0.35    1.11
  -8   3   9    0.34    1.04
   7  -3  -9    0.33    0.71
  -7   3   9   -0.56    0.83
   6  -3  -9    0.29    0.75
  -6   3   9    0.56    0.87
   5  -3  -9    0.11    0.69
  -5   3   9   -0.23    0.76
   4  -3  -9    3.15    1.06
  -4   3   9    6.17    1.30
   3  -3  -9    1.04    0.82
   2  -3  -9    3.23    1.00
   1  -3  -9    8.34    1.46
   1  -3  -9    2.92    0.81
   0  -3  -9   19.17    2.15
   0  -3  -9   21.23    2.14
  -1  -3  -9    0.83    0.67
  -1  -3  -9    0.41    0.63
  -2  -3  -9    0.09    0.78
  -2  -3  -9    0.73    0.53
  -3  -3  -9    3.35    1.05
  -3  -3  -9    2.97    1.26
  -4  -3  -9    0.51    0.99
  -4  -3  -9    0.83    0.75
  -5  -3  -9    0.67    0.97
  -6  -3  -9    1.05    1.20
  -7  -3  -9    1.68    1.34
 -10   4   9   -1.16    1.08
  -9   4   9   -0.11    1.12
  -8   4   9   -0.38    1.01
   7  -4  -9   -0.13    0.80
  -7   4   9    0.60    1.02
   6  -4  -9    3.72    1.19
  -6   4   9    3.45    1.28
   5  -4  -9    1.92    0.99
  -5   4   9    1.60    0.98
   4  -4  -9    7.12    1.49
   3  -4  -9    4.86    1.33
   2  -4  -9    0.75    0.75
   1  -4  -9   15.54    2.01
   1  -4  -9   16.37    1.84
   0  -4  -9    1.62    0.79
   0  -4  -9    2.65    1.01
  -1  -4  -9    3.09    1.05
  -1  -4  -9    2.16    1.07
  -2  -4  -9    3.61    1.27
  -2  -4  -9    3.44    1.13
  -3  -4  -9    0.34    0.90
  -3  -4  -9    0.44    0.63
  -4  -4  -9    0.44    0.83
  -4  -4  -9    2.25    1.26
  -5  -4  -9    3.47    1.50
  -6  -4  -9    0.62    1.25
 -10   5   9   -0.26    1.19
  -9   5   9   -1.06    0.95
  -8   5   9    1.86    1.34
   7  -5  -9    0.42    0.95
  -7   5   9    0.64    1.03
   6  -5  -9    4.66    1.48
  -6   5   9    5.51    1.44
   5  -5  -9    5.55    1.48
   4  -5  -9   49.39    3.12
   3  -5  -9    0.24    0.71
   2  -5  -9    6.20    1.39
   1  -5  -9    0.81    0.73
   0  -5  -9    3.03    1.05
   0  -5  -9    0.25    0.50
  -1  -5  -9    0.38    0.70
  -1  -5  -9   -0.05    0.86
  -2  -5  -9    0.19    1.03
  -2  -5  -9    0.13    0.72
  -3  -5  -9    2.22    1.23
  -3  -5  -9    0.81    0.90
  -4  -5  -9    0.81    1.17
  -5  -5  -9    1.84    1.42
  -9   6   9   -1.08    1.11
   8  -6  -9    0.87    1.24
  -8   6   9    1.06    1.29
   7  -6  -9   -0.10    0.92
  -7   6   9    1.89    1.05
   6  -6  -9    0.29    0.99
   5  -6  -9    6.38    1.66
   4  -6  -9   -0.51    0.78
   3  -6  -9   18.34    2.51
   2  -6  -9   -0.39    0.55
   1  -6  -9   15.99    2.25
   0  -6  -9    0.78    0.82
  -1  -6  -9   -0.25    0.67
  -1  -6  -9    0.26    0.98
  -2  -6  -9    1.69    0.98
  -2  -6  -9    0.23    1.06
  -3  -6  -9   -0.43    1.02
  -3  -6  -9   -0.69    0.79
  -4  -6  -9    0.81    1.28
   8  -7  -9    1.09    1.37
  -8   7   9    1.59    1.34
   7  -7  -9    0.38    1.13
   6  -7  -9    3.33    1.51
   5  -7  -9    1.62    1.19
   4  -7  -9    2.49    1.31
   3  -7  -9    0.21    0.73
   2  -7  -9    1.08    0.91
   1  -7  -9   -0.44    0.59
   0  -7  -9   -0.60    0.64
  -1  -7  -9    0.43    0.92
  -2  -7  -9    0.31    0.95
  -3  -7  -9    0.86    1.29
   7  -8  -9    7.83    2.09
   6  -8  -9    9.37    2.15
   5  -8  -9    1.40    1.22
   4  -8  -9    0.24    1.12
   3  -8  -9   -0.59    0.67
   2  -8  -9    0.25    0.91
   1  -8  -9    0.09    0.83
   0  -8  -9    0.12    0.97
  -1  -8  -9   -0.17    0.90
   4  -9  -9    3.14    1.65
   3  -9  -9    1.13    1.05
   2  -9  -9   -0.56    0.78
  -1 -11  10    0.11    1.22
   0 -11  10    2.16    1.50
   0 -11  10    1.45    1.13
   1 -11  10    0.99    1.10
   1 -11  10   -0.87    1.02
   2 -11  10   -0.12    1.09
   2 -11  10    1.13    1.18
   3 -11  10   -0.27    1.00
   4 -11  10   -2.13    0.86
   5 -11  10    1.40    1.28
  -3 -10  10   -0.26    1.32
  -2 -10  10    0.10    1.15
  -1 -10  10   -0.09    1.06
   0 -10  10    0.25    1.03
   0 -10  10   -0.29    1.00
   1 -10  10    0.67    1.02
   1 -10  10    1.58    1.19
   2 -10  10   -0.50    0.93
   2 -10  10    0.47    1.11
   3 -10  10    0.57    1.11
   3 -10  10    0.57    0.96
   4 -10  10    2.22    1.37
   5 -10  10    5.45    1.88
   6 -10  10    3.28    1.60
   7 -10  10    1.40    1.45
  -4  -9  10   -0.43    1.02
  -3  -9  10    1.23    1.27
  -2  -9  10    2.38    1.34
  -1  -9  10    2.45    1.36
  -1  -9  10    3.04    1.26
   0  -9  10   -0.47    0.81
   0  -9  10    0.32    0.95
   1  -9  10    2.78    1.22
   1  -9  10    1.47    1.07
   2  -9  10    1.50    1.11
   2  -9  10    0.47    0.93
   3  -9  10    0.73    1.19
   4  -9  10    2.17    1.38
   5  -9  10   -0.37    1.09
   6  -9  10    0.63    1.29
   7  -9  10    0.62    1.32
   8  -9  10    1.35    1.52
  -5  -8  10    0.73    1.22
  -4  -8  10    1.48    1.28
  -3  -8  10    0.04    1.00
  -2  -8  10   -0.01    0.90
  -1  -8  10    0.48    0.88
  -1  -8  10    1.10    1.06
   0  -8  10    5.20    1.49
   0  -8  10    8.24    1.75
   1  -8  10   -0.82    0.87
   1  -8  10    0.93    0.91
   2  -8  10   -0.51    0.98
   3  -8  10    1.22    1.12
   4  -8  10    3.20    1.43
   5  -8  10    1.31    1.32
   6  -8  10    1.74    1.43
   7  -8  10    1.48    1.46
   8  -8  10    1.33    1.59
  -6  -7  10    2.32    1.26
  -5  -7  10    0.24    0.93
  -4  -7  10    0.89    0.98
  -3  -7  10    3.40    1.33
  -2  -7  10    2.00    1.13
  -2  -7  10    0.92    0.89
  -1  -7  10   10.29    1.70
  -1  -7  10   12.30    1.97
   0  -7  10    6.54    1.48
   0  -7  10    5.93    1.52
   1  -7  10    1.39    1.17
   2  -7  10   26.30    2.87
   4  -7  10   -0.45    1.04
   5  -7  10    0.83    1.25
   6  -7  10    6.64    1.86
   7  -7  10   -0.99    1.14
   8  -7  10    1.79    1.50
  -7  -6  10    0.34    1.19
  -6  -6  10    1.09    1.11
  -5  -6  10   -0.59    0.78
  -4  -6  10    1.01    0.96
  -3  -6  10    1.31    0.87
  -2  -6  10    0.28    0.77
  -2  -6  10   -0.50    0.82
  -1  -6  10    2.22    0.98
  -1  -6  10    3.08    1.16
   0  -6  10    4.59    1.43
   1  -6  10    0.34    0.99
   2  -6  10    0.71    1.07
   3  -6  10    4.45    1.46
   4  -6  10   -0.45    1.05
   5  -6  10    6.15    1.78
   6  -6  10   -0.64    1.07
   7  -6  10   -0.44    1.09
   8  -6  10    1.82    1.62
  -8  -5  10    0.81    1.24
  -7  -5  10    1.00    1.04
  -6  -5  10    0.30    0.90
  -5  -5  10    7.00    1.64
  -4  -5  10    5.24    1.36
  -3  -5  10    2.38    1.01
  -3  -5  10    2.10    1.00
  -2  -5  10    0.62    0.72
  -2  -5  10    0.60    0.89
  -1  -5  10    1.12    0.94
   0  -5  10   -0.76    0.82
   1  -5  10    0.12    0.94
   2  -5  10   15.09    2.14
   3  -5  10    0.85    0.98
   4  -5  10    0.67    1.08
   5  -5  10    0.33    1.06
   6  -5  10    2.69    1.39
   7  -5  10    0.22    1.25
   8  -5  10    0.25    1.42
  -8  -4  10   -0.07    1.07
  -7  -4  10    0.18    0.97
  -6  -4  10    0.67    1.00
  -5  -4  10    3.82    1.30
  -4  -4  10    2.98    1.14
  -3  -4  10    9.51    1.68
  -3  -4  10   10.64    1.63
  -2  -4  10    3.54    1.11
  -1  -4  10    1.56    0.99
   0  -4  10    2.09    1.12
   1  -4  10   15.96    2.16
   2  -4  10    1.90    1.07
   3  -4  10    1.52    1.12
   4  -4  10    1.40    1.17
   5  -4  10   -0.23    0.96
   6  -4  10    0.99    1.19
  -7   4 -10    0.26    0.76
   7  -4  10   -0.78    1.14
  -8   4 -10   -0.40    0.77
  -9   4 -10    1.56    1.10
  -9  -3  10    0.32    1.06
  -8  -3  10   -1.24    0.64
  -7  -3  10   -0.65    0.90
  -6  -3  10    0.77    0.90
  -5  -3  10   -0.03    0.70
  -4  -3  10    0.43    0.79
  -4  -3  10   -0.46    0.59
  -3  -3  10    0.59    0.71
  -3  -3  10    0.39    0.78
  -2  -3  10    2.43    1.00
  -1  -3  10   -1.03    0.67
   0  -3  10    1.33    1.00
   1  -3  10    9.04    1.65
   2  -3  10    4.15    1.28
   3  -3  10    3.11    1.20
   4  -3  10   -0.42    1.02
  -5   3 -10    1.92    1.03
   5  -3  10    1.77    1.31
  -6   3 -10   -0.50    0.62
   6  -3  10    0.04    1.15
  -7   3 -10    0.23    0.78
   7  -3  10   -0.04    1.18
  -8   3 -10    4.43    1.45
  -9   3 -10   -0.31    0.94
  -9  -2  10   -0.07    0.89
  -8  -2  10    0.85    1.04
  -7  -2  10    0.07    0.84
  -6  -2  10    0.37    0.78
  -5  -2  10    0.02    0.70
  -4  -2  10   11.75    1.71
  -4  -2  10   15.90    1.77
  -3  -2  10    6.09    1.25
  -2  -2  10   -0.51    0.67
  -1  -2  10    0.38    0.75
   0  -2  10   23.39    2.42
   1  -2  10    0.13    0.81
   2  -2  10    9.93    1.71
   3  -2  10   -0.37    0.93
  -4   2 -10    1.60    0.84
   4  -2  10    0.79    1.06
  -5   2 -10    0.09    0.70
   5  -2  10   -0.41    1.03
  -6   2 -10    1.92    1.14
   6  -2  10    1.05    1.26
  -7   2 -10    3.87    1.47
  -8   2 -10   -0.21    1.02
 -10  -1  10    2.62    1.37
  -9  -1  10   -0.09    0.89
  -8  -1  10    0.67    0.96
  -7  -1  10    1.18    0.96
  -6  -1  10    4.14    1.18
   5   1 -10    0.14    0.73
  -5  -1  10    0.79    0.76
   4   1 -10   -0.03    0.50
  -4  -1  10    0.42    0.64
   3   1 -10   23.95    2.30
   2   1 -10    0.39    0.72
   1   1 -10   11.04    1.70
   0   1 -10   14.03    1.95
   0  -1  10   16.48    2.08
   1  -1  10    1.67    0.93
   2  -1  10    3.38    1.20
  -3   1 -10   17.76    2.27
   3  -1  10   24.11    2.59
  -4   1 -10    5.85    1.45
   4  -1  10    6.72    1.59
  -5   1 -10    7.03    1.58
   5  -1  10    6.23    1.64
  -6   1 -10    0.70    0.87
   6  -1  10    0.99    1.24
  -7   1 -10    1.46    1.12
  -8   1 -10    0.76    1.11
 -10   0  10    0.33    1.04
  -9   0  10    0.04    0.86
  -8   0  10    2.29    1.21
  -7   0  10    9.21    1.87
  -6   0  10   17.04    2.02
  -6   0  10   13.28    2.04
   5   0 -10    7.24    1.38
  -5   0  10    7.09    1.29
  -5   0  10    8.94    1.64
   4   0 -10    1.13    0.82
   3   0 -10    9.21    1.52
   2   0 -10   11.60    1.67
   1   0 -10    9.38    1.50
   0   0 -10   10.01    1.53
  -1   0 -10   23.46    2.38
  -2   0 -10    0.74    0.83
  -2   0 -10    0.10    0.70
  -3   0 -10    1.27    0.89
   3   0  10    0.85    0.91
  -4   0 -10    0.31    0.83
   4   0  10    0.46    0.95
  -5   0 -10   -0.26    0.77
   5   0  10    1.03    1.27
  -6   0 -10    0.36    0.85
  -7   0 -10   -0.02    0.83
  -8   0 -10    1.52    1.32
 -10   1  10   -0.50    0.88
  -9   1  10    0.04    0.94
  -8   1  10    0.96    1.07
  -7   1  10   -0.39    0.70
   6  -1 -10    0.36    0.62
  -6   1  10    1.60    1.04
   5  -1 -10   10.28    1.68
  -5   1  10    6.73    1.48
   4  -1 -10    0.89    0.81
  -4   1  10    0.93    0.82
   3  -1 -10    0.81    0.79
  -3   1  10    0.52    0.70
   2  -1 -10    1.26    0.75
   1  -1 -10    0.56    0.68
   0  -1 -10    9.81    1.61
  -1  -1 -10   10.00    1.58
  -1  -1 -10   12.88    1.85
  -2  -1 -10    5.66    1.21
  -2  -1 -10    7.15    1.55
  -3  -1 -10    0.85    0.79
  -3  -1 -10    0.29    0.83
  -4  -1 -10    0.66    0.88
   4   1  10    0.88    1.08
  -5  -1 -10    0.04    0.89
   5   1  10   -0.21    0.97
  -6  -1 -10    0.65    1.08
  -7  -1 -10    0.76    1.05
 -10   2  10   -0.04    1.09
  -9   2  10    0.28    1.12
  -8   2  10   -0.48    0.84
  -7   2  10    6.28    1.69
   6  -2 -10   -0.57    0.72
  -6   2  10    1.21    0.93
   5  -2 -10    0.45    0.81
  -5   2  10   -0.37    0.71
   4  -2 -10   -0.16    0.67
  -4   2  10    0.81    0.86
   3  -2 -10    1.18    0.87
   2  -2 -10    1.87    0.99
   1  -2 -10    1.05    0.83
   0  -2 -10    2.67    0.93
   0  -2 -10    1.86    0.75
  -1  -2 -10    0.13    0.61
  -1  -2 -10    1.02    0.87
  -2  -2 -10    0.19    0.62
  -2  -2 -10    0.78    0.82
  -3  -2 -10    0.77    0.75
  -3  -2 -10    1.16    1.02
  -4  -2 -10    0.57    0.82
  -4  -2 -10    1.85    1.18
  -5  -2 -10    0.60    0.96
   5   2  10    0.96    1.23
  -6  -2 -10    0.23    0.96
  -7  -2 -10    0.13    1.25
 -10   3  10    2.72    1.59
  -9   3  10    1.97    1.45
  -8   3  10    0.26    1.01
  -7   3  10   -0.30    0.89
   6  -3 -10    4.39    1.32
  -6   3  10    6.78    1.60
   5  -3 -10    0.09    0.74
  -5   3  10    0.04    0.93
   4  -3 -10    1.82    1.03
   3  -3 -10   -0.08    0.63
   2  -3 -10    0.36    0.69
   1  -3 -10   -0.14    0.64
   0  -3 -10   11.72    1.82
   0  -3 -10    9.57    1.59
  -1  -3 -10    0.70    0.79
  -1  -3 -10    0.97    0.90
  -2  -3 -10    1.94    0.86
  -2  -3 -10    1.86    1.03
  -3  -3 -10   -0.13    0.92
  -3  -3 -10   -0.11    0.62
  -4  -3 -10    0.52    0.60
  -4  -3 -10    1.62    1.24
  -5  -3 -10    6.94    1.92
  -6  -3 -10    0.43    1.21
  -9   4  10    0.90    1.29
  -8   4  10    0.11    1.00
   7  -4 -10    0.18    0.96
  -7   4  10    0.26    1.06
   6  -4 -10    0.72    0.88
  -6   4  10    1.00    1.09
   5  -4 -10   17.41    2.27
   4  -4 -10    4.84    1.39
   3  -4 -10    2.96    1.13
   2  -4 -10    1.53    1.00
   1  -4 -10    8.50    1.43
   1  -4 -10    9.39    1.68
   0  -4 -10   11.74    1.91
   0  -4 -10   11.53    1.79
  -1  -4 -10    1.62    0.89
  -1  -4 -10    1.49    0.97
  -2  -4 -10    0.23    0.61
  -2  -4 -10    1.07    1.00
  -3  -4 -10    3.30    1.10
  -3  -4 -10    3.67    1.44
  -4  -4 -10    0.82    0.87
  -4  -4 -10    1.07    1.35
  -5  -4 -10   -0.51    1.10
  -9   5  10   -0.71    1.12
  -8   5  10   -0.17    1.10
   7  -5 -10    2.34    1.28
  -7   5  10    2.60    1.38
   6  -5 -10    1.90    1.15
   5  -5 -10    5.95    1.52
   4  -5 -10   -0.45    0.71
   3  -5 -10    3.05    1.31
   2  -5 -10    1.23    0.92
   1  -5 -10    5.45    1.37
   0  -5 -10    2.47    1.08
  -1  -5 -10    0.31    0.75
  -1  -5 -10    1.21    1.04
  -2  -5 -10    0.66    0.86
  -2  -5 -10    1.01    1.11
  -3  -5 -10    0.05    0.76
  -3  -5 -10    1.75    1.31
  -4  -5 -10   -0.26    1.08
  -9   6  10   -0.18    1.34
   8  -6 -10   -0.03    1.25
  -8   6  10    1.85    1.48
   7  -6 -10   -0.61    1.05
   6  -6 -10    0.27    1.14
   5  -6 -10    0.26    0.99
   4  -6 -10    0.57    0.94
   3  -6 -10   -0.31    0.68
   2  -6 -10    0.22    0.63
   1  -6 -10    1.51    1.00
   0  -6 -10    0.59    0.86
  -1  -6 -10    1.15    0.86
  -2  -6 -10   -0.64    1.05
  -2  -6 -10    1.03    0.95
  -3  -6 -10    1.84    1.51
  -3  -6 -10    0.17    0.66
   8  -7 -10    0.62    1.31
   7  -7 -10   -0.24    1.13
   6  -7 -10    1.20    1.27
   5  -7 -10    2.55    1.39
   4  -7 -10   -0.47    1.02
   3  -7 -10    1.20    1.12
   2  -7 -10    0.39    0.81
   1  -7 -10    0.24    0.86
   0  -7 -10    1.34    0.98
  -1  -7 -10    2.55    1.28
  -2  -7 -10    0.47    1.05
   6  -8 -10    0.25    1.35
   5  -8 -10    0.73    1.36
   4  -8 -10    1.87    1.35
   3  -8 -10    0.47    0.85
   2  -8 -10   -0.64    0.66
   1  -8 -10    0.93    1.03
   0  -8 -10   -0.33    0.88
   0 -11  11    0.77    1.14
   0 -11  11    0.52    1.26
   1 -11  11    0.82    1.11
   1 -11  11    0.09    1.14
   2 -11  11    1.41    1.33
   2 -11  11   -0.03    1.12
   3 -11  11    1.06    1.24
   3 -11  11   -0.16    1.15
   4 -11  11    0.07    1.19
  -2 -10  11   -0.40    1.17
  -1 -10  11    2.35    1.39
   0 -10  11    1.12    1.26
   0 -10  11    0.46    1.05
   1 -10  11    1.58    1.22
   1 -10  11    0.20    1.08
   2 -10  11    0.59    1.07
   2 -10  11    0.36    1.19
   3 -10  11   -0.23    0.95
   3 -10  11    1.94    1.37
   4 -10  11    1.49    1.24
   5 -10  11    4.31    1.77
   6 -10  11   -0.02    1.45
  -4  -9  11    0.91    1.32
  -3  -9  11    0.35    1.15
  -2  -9  11   -0.89    0.85
  -1  -9  11    0.18    1.06
  -1  -9  11   -0.43    0.82
   0  -9  11    1.08    1.12
   0  -9  11    0.97    0.99
   1  -9  11   -0.67    0.74
   1  -9  11   -0.82    0.91
   2  -9  11    1.79    1.28
   3  -9  11    0.53    1.18
   4  -9  11    3.95    1.61
   5  -9  11    0.16    1.18
   6  -9  11    1.11    1.48
   7  -9  11   -0.21    1.44
  -5  -8  11   -1.46    0.77
  -4  -8  11    0.28    1.13
  -3  -8  11    1.02    1.11
  -2  -8  11    1.33    1.06
  -1  -8  11   -0.79    0.88
  -1  -8  11   -0.36    0.77
   0  -8  11    0.28    1.04
   0  -8  11    1.24    1.00
   1  -8  11   -0.27    1.09
   2  -8  11    1.17    1.26
   3  -8  11    5.88    1.83
   4  -8  11    0.55    1.25
   5  -8  11    5.20    1.78
   6  -8  11    1.01    1.44
   7  -8  11    0.24    1.46
  -6  -7  11    2.43    1.44
  -5  -7  11    1.91    1.08
  -4  -7  11    1.51    1.01
  -3  -7  11    1.03    1.04
  -2  -7  11    1.56    1.08
  -2  -7  11    0.54    0.96
  -1  -7  11    4.53    1.46
  -1  -7  11    6.10    1.52
   0  -7  11    0.12    0.90
   1  -7  11   -1.33    0.91
   2  -7  11   22.58    2.75
   3  -7  11    3.55    1.44
   4  -7  11    8.01    2.04
   5  -7  11    1.21    1.38
   6  -7  11    3.63    1.68
   7  -7  11    1.63    1.43
   8  -7  11    2.67    1.80
  -7  -6  11   -0.23    1.04
  -6  -6  11    0.37    1.00
  -5  -6  11    0.73    1.00
  -4  -6  11    1.20    0.90
  -3  -6  11    0.21    0.82
  -2  -6  11    1.85    0.86
  -2  -6  11    0.43    0.95
  -1  -6  11    0.65    0.99
   0  -6  11    1.74    1.13
   1  -6  11    8.87    1.79
   2  -6  11   29.39    3.04
   3  -6  11   -0.31    0.89
   4  -6  11    5.19    1.76
   5  -6  11    7.77    1.90
   6  -6  11    7.47    2.07
   7  -6  11    0.48    1.48
   8  -6  11   -0.02    1.53
  -7  -5  11    0.69    1.19
  -6  -5  11    1.65    1.20
  -5  -5  11   -0.36    0.66
  -4  -5  11    4.77    1.42
  -3  -5  11    0.66    0.76
  -3  -5  11    0.73    0.93
  -2  -5  11    0.30    0.61
  -2  -5  11   -0.92    0.78
  -1  -5  11    2.65    1.07
   0  -5  11    0.21    0.98
   1  -5  11    2.55    1.24
   2  -5  11    2.28    1.31
   3  -5  11    0.38    0.99
   4  -5  11    0.90    1.20
   5  -5  11    2.16    1.38
   6  -5  11    0.17    1.17
   7  -5  11    2.12    1.63
   8  -5  11    1.11    1.63
  -8  -4  11    0.64    1.18
  -7  -4  11    0.78    1.16
  -6  -4  11    1.59    1.09
  -5  -4  11   -0.71    0.71
  -4  -4  11    1.52    0.90
  -3  -4  11    3.98    1.22
  -3  -4  11    5.31    1.31
  -2  -4  11    0.16    0.88
  -1  -4  11    0.60    0.87
   0  -4  11    5.57    1.49
   1  -4  11    9.49    1.80
   2  -4  11   14.11    2.17
   3  -4  11    2.46    1.30
   4  -4  11    0.28    1.02
   5  -4  11    0.92    1.17
   6  -4  11    0.01    1.26
   7  -4  11    0.57    1.36
  -8   4 -11    2.79    1.38
  -8  -3  11   -0.72    0.91
  -7  -3  11    0.12    0.82
  -6  -3  11   -0.49    0.77
  -5  -3  11    5.87    1.41
  -4  -3  11   -0.19    0.82
  -4  -3  11    0.26    0.70
  -3  -3  11    3.00    1.12
  -2  -3  11    0.63    0.94
  -1  -3  11    1.34    0.94
   0  -3  11    0.68    0.92
   1  -3  11   32.61    3.03
   2  -3  11    2.92    1.33
   3  -3  11   11.04    2.01
   4  -3  11    0.28    1.11
   5  -3  11    0.28    1.16
  -6   3 -11   -0.21    0.71
   6  -3  11   -1.45    1.08
  -7   3 -11    3.10    1.30
   7  -3  11    2.70    1.62
  -8   3 -11    1.02    1.08
  -9  -2  11   -0.46    0.84
  -8  -2  11    0.17    0.93
  -7  -2  11    1.27    1.06
  -6  -2  11    3.78    1.28
  -5  -2  11    3.98    1.20
  -4  -2  11   -0.18    0.79
  -4  -2  11    0.32    0.68
  -3  -2  11    0.47    0.75
  -2  -2  11    3.71    1.18
  -1  -2  11    6.59    1.46
   0  -2  11   21.96    2.48
   1  -2  11    4.25    1.33
   2  -2  11   31.14    3.01
   3  -2  11    2.30    1.22
  -4   2 -11   10.72    1.89
   4  -2  11    9.62    2.00
  -5   2 -11    7.46    1.77
   5  -2  11    5.65    1.70
  -6   2 -11    1.43    1.00
   6  -2  11    2.82    1.58
  -7   2 -11    1.40    1.12
  -8   2 -11    0.02    0.95
  -9  -1  11    0.52    1.11
  -8  -1  11   -0.53    0.80
  -7  -1  11   -0.51    0.78
  -7  -1  11    2.00    1.08
  -6  -1  11    0.08    0.83
   5   1 -11   -0.46    0.78
  -5  -1  11    0.51    0.76
  -5  -1  11    0.18    0.68
   4   1 -11    0.01    0.82
   3   1 -11    0.93    0.91
   2   1 -11    5.08    1.39
   1   1 -11   43.92    2.80
   0  -1  11   11.69    1.91
   1  -1  11   17.82    2.32
   2  -1  11   26.12    2.76
  -3   1 -11    5.10    1.40
   3  -1  11    3.52    1.33
  -4   1 -11    3.94    1.27
   4  -1  11    4.35    1.52
  -5   1 -11    1.15    0.96
   5  -1  11    3.03    1.42
  -6   1 -11    0.30    0.78
   6  -1  11    1.10    1.35
  -7   1 -11    0.28    0.95
  -9   0  11    1.59    1.16
  -8   0  11    0.23    0.90
  -7   0  11   -0.57    0.74
  -6   0  11    5.30    1.51
   5   0 -11    3.54    1.06
  -5   0  11    7.45    1.55
  -5   0  11    4.40    1.19
   4   0 -11    2.20    0.99
  -4   0  11    0.18    0.73
   3   0 -11   20.76    2.29
  -3   0  11   20.40    2.05
   2   0 -11    0.02    0.71
   1   0 -11    5.37    1.34
   0   0 -11    0.26    0.69
  -1   0 -11    4.33    1.22
  -2   0 -11    3.92    1.25
  -2   0 -11    3.84    1.19
   2   0  11    6.77    1.63
  -3   0 -11    0.04    0.70
   3   0  11   -0.15    1.00
  -4   0 -11    0.41    0.90
   4   0  11    0.45    0.98
  -5   0 -11   -0.67    0.71
   5   0  11   -0.61    1.05
  -6   0 -11    1.71    1.19
  -7   0 -11   -0.49    0.88
  -9   1  11    0.18    1.03
  -8   1  11    1.58    1.15
  -7   1  11    3.13    1.30
   6  -1 -11    0.07    0.71
  -6   1  11   -1.22    0.64
   5  -1 -11    3.01    1.10
  -5   1  11    4.41    1.25
   4  -1 -11    7.33    1.51
  -4   1  11    5.27    1.32
   3  -1 -11    6.71    1.46
   2  -1 -11   10.26    1.75
   1  -1 -11    3.12    1.13
   0  -1 -11    8.19    1.55
  -1  -1 -11    0.12    0.74
  -1  -1 -11    0.65    0.70
  -2  -1 -11    0.13    0.67
  -2  -1 -11    0.58    0.85
  -3  -1 -11   10.64    2.00
  -3  -1 -11   11.03    1.83
  -4  -1 -11    0.63    0.95
   4   1  11   -0.19    1.03
  -5  -1 -11   -0.80    0.89
   5   1  11    0.46    1.20
  -6  -1 -11   -0.10    1.05
  -7  -1 -11    0.92    1.30
  -9   2  11    0.38    1.16
  -8   2  11    1.33    1.25
  -7   2  11    1.01    1.03
   6  -2 -11   -0.12    0.85
  -6   2  11   -0.28    0.78
   5  -2 -11    1.38    1.01
  -5   2  11    0.98    0.98
   4  -2 -11    1.46    0.98
   3  -2 -11    4.57    1.33
   2  -2 -11    4.01    1.27
   1  -2 -11    1.45    0.69
   0  -2 -11    0.33    0.60
  -1  -2 -11    5.77    1.34
  -1  -2 -11    4.58    1.31
  -2  -2 -11    1.02    0.80
  -2  -2 -11    0.28    0.88
  -3  -2 -11    0.49    0.77
  -3  -2 -11   -0.46    0.71
  -4  -2 -11    0.67    1.11
  -4  -2 -11    1.04    0.97
  -5  -2 -11    0.56    1.10
  -6  -2 -11    0.52    1.23
  -9   3  11    1.91    1.38
  -8   3  11   -0.30    0.92
  -7   3  11   -0.28    0.95
   6  -3 -11   -0.45    0.87
  -6   3  11    0.78    1.05
   5  -3 -11    0.54    0.89
   4  -3 -11   10.09    1.83
   3  -3 -11    0.53    0.95
   2  -3 -11    3.30    1.26
   1  -3 -11    3.69    1.19
   0  -3 -11    0.55    0.84
   0  -3 -11    1.10    0.89
  -1  -3 -11    0.39    0.93
  -1  -3 -11    0.54    0.73
  -2  -3 -11    3.32    1.14
  -2  -3 -11    4.22    1.46
  -3  -3 -11    1.26    1.10
  -3  -3 -11    0.78    0.84
  -4  -3 -11    1.01    1.11
  -4  -3 -11    0.86    0.98
  -5  -3 -11    0.61    1.20
  -9   4  11   -0.76    1.05
  -8   4  11    0.61    1.32
   7  -4 -11    1.03    1.10
  -7   4  11   -0.69    1.02
   6  -4 -11    3.81    1.46
   5  -4 -11   -0.51    0.79
   4  -4 -11    2.04    1.18
   3  -4 -11    1.89    1.07
   2  -4 -11    2.16    1.12
   1  -4 -11    2.44    1.11
   0  -4 -11   -0.48    0.70
   0  -4 -11    0.39    0.99
  -1  -4 -11    0.75    0.94
  -1  -4 -11    0.99    1.05
  -2  -4 -11    0.45    0.75
  -2  -4 -11    0.68    1.09
  -3  -4 -11    0.40    0.84
  -3  -4 -11    1.04    1.12
  -4  -4 -11    4.19    1.73
  -4  -4 -11    1.54    1.06
  -8   5  11   -0.83    1.19
   7  -5 -11    0.10    1.10
   6  -5 -11    0.72    1.06
   5  -5 -11    5.40    1.62
   4  -5 -11   -0.10    0.94
   3  -5 -11   -0.40    0.76
   2  -5 -11    0.98    0.89
   1  -5 -11    0.63    0.86
   0  -5 -11    0.47    0.85
  -1  -5 -11    1.22    1.25
  -1  -5 -11    0.46    0.86
  -2  -5 -11    0.20    0.50
  -2  -5 -11    1.31    1.30
  -3  -5 -11    0.16    0.93
  -3  -5 -11   -0.12    1.19
   8  -6 -11   -0.08    1.36
   7  -6 -11    2.42    1.46
   6  -6 -11    3.62    1.53
   5  -6 -11    0.17    1.04
   4  -6 -11    0.42    1.07
   3  -6 -11    0.96    1.08
   2  -6 -11    1.72    1.05
   1  -6 -11    0.50    0.89
   0  -6 -11    0.45    0.89
  -1  -6 -11    6.08    1.60
  -2  -6 -11   -0.95    0.88
   7  -7 -11    0.65    1.44
   6  -7 -11   -0.11    1.19
   5  -7 -11    0.55    1.24
   4  -7 -11    0.52    1.18
   3  -7 -11    0.16    1.18
   2  -7 -11    1.03    1.08
   1  -7 -11   -0.28    0.69
   0  -7 -11    1.65    1.20
   2 -11  12    0.78    1.28
   2 -11  12    4.27    1.74
  -2 -10  12    0.23    1.24
  -1 -10  12   -0.40    1.17
   0 -10  12    3.97    1.53
   0 -10  12    0.44    1.14
   1 -10  12    0.21    1.03
   1 -10  12    0.43    1.08
   2 -10  12    1.31    1.31
   2 -10  12   -0.08    0.98
   3 -10  12    2.14    1.44
   4 -10  12    0.54    1.37
  -3  -9  12   -0.14    1.06
  -2  -9  12    1.37    1.21
  -1  -9  12    1.02    1.15
  -1  -9  12    2.09    1.33
   0  -9  12   -0.48    0.92
   0  -9  12    1.37    1.22
   1  -9  12    0.12    0.95
   1  -9  12    0.76    1.04
   2  -9  12    3.18    1.59
   3  -9  12   -0.15    1.22
   4  -9  12    2.73    1.53
   5  -9  12    1.80    1.63
   6  -9  12    0.03    1.52
  -5  -8  12    1.31    1.20
  -4  -8  12   -0.11    0.84
  -3  -8  12    1.55    1.23
  -2  -8  12    0.63    1.10
  -1  -8  12    0.26    1.15
  -1  -8  12   -0.62    0.81
   0  -8  12    0.59    0.95
   0  -8  12    0.35    1.00
   1  -8  12    1.09    1.12
   2  -8  12    3.44    1.45
   3  -8  12    0.11    1.23
   4  -8  12   10.48    2.27
   5  -8  12    1.16    1.43
   6  -8  12    0.16    1.40
   7  -8  12    1.08    1.59
  -5  -7  12   -0.46    0.90
  -4  -7  12    1.03    1.00
  -3  -7  12    0.68    0.77
  -2  -7  12    2.16    1.18
  -2  -7  12    3.52    1.36
  -1  -7  12    1.70    1.10
  -1  -7  12    1.25    1.24
   0  -7  12    1.83    1.29
   1  -7  12    6.69    1.82
   2  -7  12   -0.77    1.04
   3  -7  12    7.58    1.96
   4  -7  12   -0.67    1.20
   5  -7  12    6.54    1.95
   6  -7  12    3.29    1.82
   7  -7  12   -0.66    1.47
  -6  -6  12    0.95    1.15
  -5  -6  12    0.41    0.96
  -4  -6  12    3.11    1.30
  -3  -6  12   -0.62    0.63
  -2  -6  12    5.49    1.45
  -2  -6  12    3.01    1.14
  -1  -6  12    1.90    1.14
   0  -6  12    1.94    1.13
   1  -6  12    3.85    1.56
   2  -6  12    7.98    1.88
   3  -6  12   -0.22    0.92
   4  -6  12    8.40    2.05
   5  -6  12    2.39    1.45
   6  -6  12    3.65    1.73
   7  -6  12   -0.23    1.46
  -7  -5  12   -1.02    0.92
  -6  -5  12    0.12    0.99
  -5  -5  12    0.49    0.85
  -4  -5  12   -1.31    0.53
  -3  -5  12    0.82    0.81
  -3  -5  12   -0.52    0.89
  -2  -5  12    2.71    1.20
  -1  -5  12    6.87    1.62
   0  -5  12   -0.81    0.76
   1  -5  12   42.36    3.75
   2  -5  12   10.05    2.00
   3  -5  12    1.92    1.37
   4  -5  12   -0.80    1.12
   5  -5  12    0.59    1.13
   6  -5  12    1.35    1.37
   7  -5  12   -1.54    1.36
   8  -5  12   -0.43    1.73
  -8  -4  12   -0.40    1.17
  -7  -4  12    0.83    1.13
  -6  -4  12    0.66    0.92
  -5  -4  12    1.15    0.98
  -4  -4  12    2.50    1.13
  -3  -4  12    0.53    0.99
  -3  -4  12    1.74    0.99
  -2  -4  12    8.86    1.75
  -1  -4  12    1.41    1.00
   0  -4  12    8.82    1.82
   1  -4  12   20.15    2.61
   2  -4  12    2.96    1.42
   3  -4  12    7.97    1.87
   4  -4  12    1.64    1.32
   5  -4  12    3.05    1.44
   6  -4  12   -0.59    1.24
   7  -4  12    3.48    1.80
  -8  -3  12    1.07    1.22
  -7  -3  12    0.01    0.92
  -6  -3  12    2.20    1.21
  -5  -3  12    0.86    0.89
  -4  -3  12    0.25    0.91
  -4  -3  12   -0.02    0.60
  -3  -3  12    9.95    1.74
  -2  -3  12    2.24    1.15
  -1  -3  12    8.77    1.75
   0  -3  12   13.77    2.28
   1  -3  12    0.81    1.08
   2  -3  12   32.51    3.29
   3  -3  12   -1.07    1.00
   4  -3  12    4.58    1.71
   5  -3  12    0.92    1.31
   6  -3  12    0.43    1.37
  -7   3 -12    0.30    1.01
   7  -3  12   -1.45    1.31
  -7  -2  12    1.04    1.04
  -6  -2  12    1.50    1.07
  -5  -2  12    3.58    1.19
  -4  -2  12    4.39    1.28
  -4  -2  12    0.93    0.86
  -3  -2  12    1.36    0.97
  -2  -2  12    2.05    1.14
  -1  -2  12   22.95    2.64
   0  -2  12    5.52    1.62
   1  -2  12   37.79    3.41
   2  -2  12    0.21    1.04
   3  -2  12    9.08    1.88
   4  -2  12    1.80    1.37
  -5   2 -12    1.01    1.02
   5  -2  12    0.17    1.28
  -6   2 -12    1.75    1.19
   6  -2  12    1.78    1.53
  -7   2 -12    2.49    1.40
  -9  -1  12   -0.31    0.91
  -8  -1  12    0.61    1.07
  -7  -1  12    1.60    1.09
  -6  -1  12    2.52    1.09
  -5  -1  12    2.57    1.02
  -5  -1  12    3.95    1.18
   4   1 -12    3.60    1.29
  -4  -1  12    4.28    1.26
   3   1 -12    4.35    1.35
   2   1 -12    2.57    1.20
  -2  -1  12    3.47    1.24
  -1  -1  12    7.81    1.70
   0  -1  12    9.95    1.86
   1  -1  12    1.80    1.10
   2  -1  12   11.57    2.09
   3  -1  12   -1.02    0.89
  -4   1 -12   -0.12    0.83
   4  -1  12    0.99    1.23
  -5   1 -12   -0.06    0.77
   5  -1  12    0.52    1.41
  -6   1 -12    1.17    1.12
   6  -1  12    1.26    1.48
  -7   1 -12    1.88    1.30
  -9   0  12    0.38    1.05
  -8   0  12   -0.78    0.86
  -7   0  12    1.47    1.07
  -6   0  12    1.94    1.13
   5   0 -12    5.51    1.34
  -5   0  12    7.28    1.62
  -5   0  12    5.49    1.30
   4   0 -12   -0.16    0.78
   3   0 -12   12.99    1.90
   2   0 -12   -0.75    0.71
   1   0 -12   22.30    2.50
   0   0 -12   23.33    2.72
  -1   0 -12    2.77    1.13
   2   0  12    1.76    1.19
  -3   0 -12    0.78    1.02
   3   0  12    1.82    1.25
  -4   0 -12    1.56    1.12
   4   0  12    0.40    1.15
  -5   0 -12    0.84    1.11
   5   0  12   -1.08    1.16
  -6   0 -12    0.66    1.14
  -9   1  12   -0.84    0.97
  -8   1  12    3.66    1.42
  -7   1  12    0.91    1.04
  -6   1  12    7.09    1.72
   5  -1 -12    0.95    1.02
   4  -1 -12    8.77    1.72
   3  -1 -12    0.09    0.73
   2  -1 -12   11.50    1.90
   1  -1 -12    2.80    1.10
   0  -1 -12   18.80    2.28
  -1  -1 -12    3.13    0.99
  -2  -1 -12    3.33    1.24
  -2  -1 -12    3.37    1.27
  -3  -1 -12   -0.36    0.86
   3   1  12    1.37    1.23
  -4  -1 -12   -0.03    1.06
   4   1  12    1.35    1.26
  -5  -1 -12    0.73    1.16
   5   1  12   -0.85    1.19
  -6  -1 -12   -0.03    1.16
  -9   2  12   -0.67    0.98
  -8   2  12    1.30    1.26
  -7   2  12    4.15    1.53
   6  -2 -12    0.49    1.02
   5  -2 -12    0.71    1.04
   4  -2 -12    2.14    1.15
   3  -2 -12    0.54    0.93
   2  -2 -12   10.58    1.93
   1  -2 -12    0.38    0.85
   0  -2 -12   -0.39    0.54
  -1  -2 -12    0.47    0.72
  -1  -2 -12    2.18    1.12
  -2  -2 -12   -0.85    0.58
  -2  -2 -12    0.19    0.86
  -3  -2 -12    6.92    1.59
  -3  -2 -12    4.45    1.58
  -4  -2 -12    0.88    1.21
   4   2  12    1.82    1.35
  -5  -2 -12    0.74    1.31
  -9   3  12    0.23    1.26
  -8   3  12   -0.90    1.01
   6  -3 -12    0.04    1.00
   5  -3 -12    1.11    1.11
   4  -3 -12    0.29    0.99
   3  -3 -12    7.17    1.70
   2  -3 -12    0.03    0.94
   1  -3 -12    3.67    1.32
   0  -3 -12    2.01    0.97
  -1  -3 -12   -0.68    0.70
  -1  -3 -12   -0.09    0.92
  -2  -3 -12   -0.89    0.69
  -2  -3 -12    0.36    0.98
  -3  -3 -12    0.38    0.74
  -3  -3 -12   -0.32    0.92
  -4  -3 -12    4.15    1.49
  -4  -3 -12    5.54    1.84
   7  -4 -12   -0.96    1.09
   6  -4 -12    0.24    1.01
   5  -4 -12    1.42    1.22
   4  -4 -12   -0.03    0.92
   3  -4 -12   -0.39    0.91
   2  -4 -12    2.21    1.28
   1  -4 -12    0.45    0.85
   0  -4 -12    0.69    1.03
   0  -4 -12    0.10    0.93
  -1  -4 -12    3.07    1.27
  -1  -4 -12    3.37    1.45
  -2  -4 -12    2.49    1.14
  -2  -4 -12    2.42    1.44
  -3  -4 -12    0.59    0.94
  -3  -4 -12    2.30    1.52
   7  -5 -12    3.43    1.64
   6  -5 -12   -0.28    1.04
   5  -5 -12    6.46    1.81
   3  -5 -12    3.53    1.47
   2  -5 -12    0.86    0.93
   1  -5 -12    1.99    1.06
   0  -5 -12    0.90    0.88
  -1  -5 -12    3.21    1.35
  -2  -5 -12    0.51    1.36
  -2  -5 -12   -0.91    0.82
   7  -6 -12    0.16    1.33
   6  -6 -12    1.42    1.42
   5  -6 -12    1.01    1.35
   4  -6 -12    0.17    1.14
   3  -6 -12    0.13    0.98
   2  -6 -12    7.88    1.93
   1  -6 -12    0.17    0.93
   0  -6 -12    6.98    1.82
  -1  -6 -12   -0.25    0.95
   0 -10  13    0.33    1.22
   0 -10  13    2.83    1.53
   1 -10  13   -0.46    1.18
   1 -10  13   -0.39    1.08
   2 -10  13    0.48    1.23
   2 -10  13    0.66    1.38
   3 -10  13   -0.55    0.99
  -2  -9  13    2.05    1.36
  -1  -9  13   -0.14    0.87
  -1  -9  13    0.46    1.20
   0  -9  13    0.35    1.05
   0  -9  13    1.33    1.27
   1  -9  13    1.06    1.17
   1  -9  13    0.33    1.10
   2  -9  13    0.06    1.21
   3  -9  13    3.56    1.66
   4  -9  13    1.39    1.41
   5  -9  13    1.24    1.48
  -4  -8  13   -0.62    0.94
  -3  -8  13    1.70    1.36
  -2  -8  13   -0.51    0.83
  -1  -8  13    1.33    1.04
  -1  -8  13    0.22    1.15
   0  -8  13   -0.89    1.07
   0  -8  13    0.20    0.98
   1  -8  13   -0.07    1.10
   2  -8  13    2.04    1.50
   3  -8  13    2.58    1.48
   4  -8  13    2.17    1.70
   5  -8  13    2.95    1.83
   6  -8  13    0.19    1.71
  -5  -7  13    0.57    1.02
  -4  -7  13   -0.18    0.82
  -3  -7  13    0.40    0.89
  -2  -7  13    0.04    0.85
  -2  -7  13    0.20    1.12
  -1  -7  13   -0.06    0.86
  -1  -7  13    0.51    1.09
   0  -7  13    2.35    1.41
   1  -7  13    3.63    1.57
   2  -7  13    3.60    1.65
   3  -7  13    2.06    1.52
   4  -7  13   -0.14    1.42
   5  -7  13   -1.10    1.12
   6  -7  13   -0.48    1.56
  -6  -6  13   -0.53    1.10
  -5  -6  13   -0.96    0.70
  -4  -6  13    1.40    1.09
  -3  -6  13    1.91    1.07
  -2  -6  13    1.97    1.24
  -2  -6  13   -0.37    0.60
  -1  -6  13   -0.40    0.99
   0  -6  13    1.93    1.36
   1  -6  13    5.29    1.60
   2  -6  13    0.41    1.20
   3  -6  13   -0.68    1.09
   4  -6  13   -0.03    1.15
   5  -6  13    0.24    1.45
   6  -6  13   -0.47    1.41
   7  -6  13    0.07    1.69
  -6  -5  13    3.03    1.42
  -5  -5  13    0.55    0.93
  -4  -5  13    0.95    0.96
  -3  -5  13    1.92    1.05
  -3  -5  13    4.54    1.41
  -2  -5  13    0.56    1.05
  -1  -5  13    0.45    1.12
   0  -5  13    0.94    1.05
   1  -5  13    9.37    2.11
   2  -5  13    5.27    1.66
   3  -5  13    6.32    1.89
   4  -5  13    0.39    1.23
   5  -5  13   -1.86    1.11
   6  -5  13    0.33    1.39
   7  -5  13    1.82    1.78
  -7  -4  13   -0.22    0.98
  -6  -4  13    0.09    0.91
  -5  -4  13    0.51    0.87
  -4  -4  13   -0.49    0.68
  -3  -4  13    6.99    1.70
  -3  -4  13    8.35    1.73
  -2  -4  13    1.37    1.13
  -1  -4  13    5.43    1.57
   0  -4  13    1.28    1.08
   1  -4  13    8.95    2.00
   2  -4  13    3.27    1.52
   3  -4  13   -1.20    0.92
   4  -4  13    0.16    1.15
   5  -4  13    0.82    1.41
   6  -4  13   -1.75    1.42
   7  -4  13    0.13    1.64
  -7  -3  13   -0.01    0.94
  -6  -3  13    0.95    1.05
  -5  -3  13    1.02    1.00
  -4  -3  13   -0.35    0.66
  -4  -3  13    0.44    0.94
  -3  -3  13    2.45    1.18
  -2  -3  13   -0.81    0.84
  -1  -3  13    1.86    1.31
   0  -3  13    5.29    1.70
   1  -3  13   14.73    2.41
   2  -3  13   -0.26    1.07
   3  -3  13    0.75    1.21
   4  -3  13   -1.10    1.13
   5  -3  13   -0.45    1.34
   6  -3  13   -0.58    1.39
   7  -3  13    0.59    1.71
  -8  -2  13    1.76    1.27
  -7  -2  13    0.01    0.92
  -6  -2  13    0.03    0.86
  -5  -2  13    0.72    0.85
  -4  -2  13    0.37    0.74
  -4  -2  13   -0.32    0.81
  -3  -2  13    8.02    1.63
  -2  -2  13    2.30    1.13
  -1  -2  13    2.81    1.28
   0  -2  13    4.29    1.51
   1  -2  13    1.63    1.27
   2  -2  13   -0.05    1.02
   3  -2  13   -0.61    1.12
   4  -2  13   -1.21    1.09
   5  -2  13   -0.17    1.35
  -6   2 -13   -1.03    0.80
   6  -2  13    0.22    1.57
  -8  -1  13    0.92    1.06
  -7  -1  13    1.08    1.05
  -6  -1  13    0.91    1.08
  -6  -1  13   -0.63    0.69
  -5  -1  13    3.03    1.17
  -5  -1  13    1.41    0.96
  -4  -1  13    2.78    1.10
  -3  -1  13    0.29    0.79
  -2  -1  13    5.21    1.47
  -1  -1  13   13.03    2.12
   0  -1  13    1.87    1.15
   1  -1  13    6.46    1.66
   2  -1  13   -0.22    1.13
   3  -1  13    3.83    1.52
   4  -1  13    3.57    1.73
  -5   1 -13    6.89    1.89
   5  -1  13    6.58    2.00
  -6   1 -13    1.92    1.23
   6  -1  13   -0.95    1.47
  -8   0  13    0.82    1.16
  -7   0  13    2.24    1.34
  -6   0  13    0.22    0.89
   5   0 -13    0.59    0.93
   4   0 -13    4.25    1.21
   3   0 -13    0.64    0.73
   2   0 -13    0.52    0.91
   1   0 -13    2.24    1.19
   0   0 -13   -0.08    0.94
  -1   0 -13    4.95    1.50
   1   0  13    3.83    1.47
   2   0  13    2.75    1.35
  -3   0 -13    5.33    1.63
   3   0  13    3.88    1.60
  -4   0 -13    0.92    1.12
   4   0  13    0.33    1.41
  -5   0 -13    0.91    1.21
   5   0  13    2.43    1.61
  -6   0 -13   -0.72    1.18
  -8   1  13   -1.38    1.01
  -7   1  13    1.35    1.25
   5  -1 -13    4.75    1.50
   4  -1 -13    0.47    0.99
   3  -1 -13    0.47    1.08
   2  -1 -13    0.09    0.96
   1  -1 -13   -0.21    0.66
   0  -1 -13    0.04    0.68
  -1  -1 -13    2.65    1.24
  -2  -1 -13    7.33    1.73
  -3  -1 -13    1.72    1.24
   3   1  13    2.26    1.47
  -4  -1 -13    2.81    1.48
   4   1  13    0.53    1.37
  -5  -1 -13    0.37    1.24
   5   1  13   -1.90    1.29
  -8   2  13    0.29    1.09
   6  -2 -13    2.63    1.34
   5  -2 -13    0.61    1.07
   4  -2 -13   -0.21    0.92
   3  -2 -13    0.13    0.91
   2  -2 -13   -0.32    0.81
   1  -2 -13   -0.06    0.91
   0  -2 -13    0.35    0.76
  -1  -2 -13   -0.54    0.78
  -2  -2 -13   -0.42    0.84
  -2  -2 -13    0.76    1.02
  -3  -2 -13    2.94    1.38
  -3  -2 -13   -0.25    0.92
  -4  -2 -13    0.74    1.29
   4   2  13    2.30    1.55
   6  -3 -13   -0.01    1.11
   5  -3 -13   -0.88    0.89
   4  -3 -13    0.25    1.00
   3  -3 -13    1.06    1.18
   2  -3 -13    0.16    0.62
   1  -3 -13    0.90    0.99
   0  -3 -13    0.08    0.74
  -1  -3 -13    1.08    1.14
  -1  -3 -13    1.80    1.13
  -2  -3 -13    0.77    1.16
  -2  -3 -13    0.39    0.89
  -3  -3 -13    3.72    1.64
  -3  -3 -13   -0.31    0.97
   7  -4 -13   -0.36    1.27
   6  -4 -13   -0.80    1.11
   5  -4 -13    0.75    1.22
   4  -4 -13   -0.88    0.94
   3  -4 -13    0.50    1.19
   2  -4 -13   -0.03    1.08
   1  -4 -13    1.96    1.25
   0  -4 -13    1.82    1.08
  -1  -4 -13    0.09    0.98
  -1  -4 -13    0.65    1.18
  -2  -4 -13    1.23    1.14
  -2  -4 -13    1.86    1.51
   6  -5 -13    1.25    1.39
   5  -5 -13    0.14    1.20
   4  -5 -13    0.03    1.22
   3  -5 -13    3.50    1.50
   2  -5 -13    0.12    1.08
   1  -5 -13    0.89    1.03
   0  -5 -13   -0.36    0.83
  -1  -5 -13    2.72    1.39
   4  -6 -13    2.55    1.66
  -1  -9  14   -1.02    0.96
  -1  -9  14    1.90    1.48
   0  -9  14   -0.26    1.04
   0  -9  14    0.36    1.27
   1  -9  14    1.32    1.28
   1  -9  14    2.50    1.55
   2  -9  14   -0.17    1.29
   3  -9  14    1.85    1.67
  -3  -8  14    0.03    0.84
  -2  -8  14    0.23    1.00
  -1  -8  14    1.05    1.28
  -1  -8  14    1.04    1.08
   0  -8  14   -0.27    0.85
   0  -8  14    0.34    1.25
   1  -8  14    2.95    1.52
   2  -8  14    0.74    1.45
   3  -8  14    1.73    1.59
   4  -8  14    0.31    1.23
  -4  -7  14   -0.15    0.96
  -3  -7  14   -0.21    0.66
  -2  -7  14   -0.38    0.75
  -2  -7  14   -2.05    0.99
  -1  -7  14    0.08    0.84
  -1  -7  14   -0.80    0.95
   0  -7  14    2.34    1.38
   1  -7  14    0.80    1.34
   2  -7  14    4.24    1.67
   3  -7  14    0.14    1.13
   4  -7  14    1.13    1.61
   5  -7  14    0.30    1.61
  -5  -6  14    1.23    1.15
  -4  -6  14   -0.89    0.70
  -3  -6  14   -0.25    0.70
  -2  -6  14    1.89    1.20
  -2  -6  14    1.70    1.01
  -1  -6  14   -0.94    0.99
   0  -6  14    0.63    1.10
   1  -6  14    2.82    1.46
   2  -6  14    0.29    1.23
   3  -6  14    0.84    1.39
   4  -6  14    1.65    1.66
   5  -6  14    2.44    1.70
   6  -6  14    3.10    1.99
  -6  -5  14    1.13    1.22
  -5  -5  14    4.15    1.47
  -4  -5  14    0.69    1.04
  -3  -5  14    1.12    1.03
  -3  -5  14    0.14    1.12
  -2  -5  14    0.22    1.08
  -1  -5  14   -0.58    1.02
   0  -5  14    1.82    1.29
   1  -5  14    1.58    1.38
   2  -5  14   -0.37    1.06
   3  -5  14    2.48    1.67
   4  -5  14    1.43    1.63
   5  -5  14   -1.07    1.19
   6  -5  14    0.42    1.66
  -6  -4  14    0.66    1.07
  -5  -4  14    0.51    1.00
  -4  -4  14    1.86    1.06
  -3  -4  14   -1.29    0.91
  -2  -4  14    0.89    1.20
  -1  -4  14    0.45    1.14
   0  -4  14    0.33    1.16
   1  -4  14    1.29    1.26
   2  -4  14   -0.25    1.19
   3  -4  14    1.26    1.58
   4  -4  14    1.58    1.61
   5  -4  14   -0.23    1.48
   6  -4  14    1.81    1.80
  -7  -3  14   -0.16    1.02
  -6  -3  14   -0.24    1.00
  -5  -3  14    1.33    0.99
  -4  -3  14    1.21    1.17
  -4  -3  14    2.40    1.14
  -3  -3  14    1.97    1.24
  -2  -3  14   -0.77    0.79
  -1  -3  14    0.35    1.03
   0  -3  14    2.15    1.32
   1  -3  14    4.55    1.61
   2  -3  14    3.72    1.56
   3  -3  14   -0.33    1.12
   4  -3  14    6.57    2.06
   5  -3  14   -1.93    1.39
   6  -3  14   -0.10    1.66
  -6  -2  14   -0.23    0.79
  -5  -2  14    1.20    0.96
  -4  -2  14   -0.38    0.99
  -3  -2  14    2.62    1.23
  -2  -2  14    1.91    1.22
  -1  -2  14   -0.33    1.02
   0  -2  14    5.52    1.68
   1  -2  14    2.73    1.46
   2  -2  14   -1.10    1.15
   3  -2  14    9.95    2.31
   4  -2  14   -0.02    1.40
   5  -2  14    3.37    1.89
  -7  -1  14   -0.61    1.01
  -6  -1  14    0.96    1.10
  -5  -1  14   -0.14    0.85
  -4  -1  14    2.33    1.20
  -3  -1  14    2.47    1.20
  -2  -1  14   -0.76    0.83
  -1  -1  14    2.88    1.41
   0  -1  14    2.34    1.21
   1  -1  14    1.72    1.29
   2  -1  14    4.47    1.69
   3  -1  14    2.07    1.52
   4  -1  14    3.91    1.90
   5  -1  14   -0.24    1.50
  -7   0  14    1.63    1.35
   5   0 -14    5.08    1.63
   4   0 -14    3.61    1.40
   3   0 -14    1.22    1.16
   2   0 -14   22.43    2.91
   1   0 -14    0.38    1.04
   0   0 -14    0.15    1.07
   0   0  14    1.11    1.12
   1   0  14    1.69    1.35
   2   0  14    1.32    1.36
   3   0  14    0.88    1.36
  -4   0 -14    0.59    1.12
   4   0  14    1.93    1.72
  -5   0 -14    0.81    1.31
   5   0  14    0.59    1.73
   5  -1 -14   -0.47    1.05
   4  -1 -14   -0.37    0.98
   3  -1 -14    0.61    1.00
   2  -1 -14   -0.44    0.88
   1  -1 -14    0.90    0.96
   0  -1 -14   -1.23    0.63
  -1  -1 -14    3.01    1.32
  -3  -1 -14    1.96    1.33
   3   1  14    3.68    1.73
  -4  -1 -14    0.90    1.21
   4   1  14    1.56    1.62
   6  -2 -14    1.71    1.39
   5  -2 -14   -0.07    1.08
   4  -2 -14    0.10    1.09
   3  -2 -14   -0.11    0.98
   2  -2 -14   -0.38    0.83
   1  -2 -14   -0.03    0.95
   0  -2 -14    0.15    0.88
  -1  -2 -14    1.26    0.71
  -2  -2 -14    3.84    1.50
  -3  -2 -14    0.67    1.17
   3   2  14    0.08    1.43
   6  -3 -14    0.29    1.05
   5  -3 -14    0.64    0.98
   4  -3 -14    0.22    0.96
   3  -3 -14    0.53    1.00
   2  -3 -14   -0.91    0.95
   1  -3 -14    0.88    1.05
   0  -3 -14   -0.44    0.80
  -1  -3 -14   -0.12    0.86
  -2  -3 -14    0.50    0.65
  -2  -3 -14    4.51    1.65
   6  -4 -14    1.41    1.55
   5  -4 -14    5.20    1.89
   4  -4 -14   -0.52    1.22
   3  -4 -14    3.27    1.81
   2  -4 -14    1.00    1.06
   1  -4 -14   -0.20    0.76
   0  -4 -14    3.36    1.34
  -2  -8  15    0.24    1.11
  -1  -8  15    0.52    1.38
  -1  -8  15   -0.36    0.88
   0  -8  15   -1.31    1.16
   1  -8  15   -0.48    1.38
   2  -8  15   -1.06    1.38
  -3  -7  15   -0.37    0.74
  -2  -7  15    1.06    1.35
  -2  -7  15    0.02    0.84
  -1  -7  15   -1.12    1.11
   0  -7  15    2.61    1.51
   1  -7  15    2.05    1.56
   2  -7  15    5.27    1.95
   3  -7  15   -0.91    1.21
  -4  -6  15   -0.36    0.83
  -3  -6  15    2.02    1.20
  -2  -6  15    0.56    0.88
  -2  -6  15    0.46    1.26
  -1  -6  15    0.18    1.24
   0  -6  15    1.36    1.39
   1  -6  15    1.17    1.42
   2  -6  15    0.27    1.36
   3  -6  15    0.44    1.43
   4  -6  15   -0.34    1.54
  -5  -5  15    2.14    1.23
  -4  -5  15    2.81    1.28
  -3  -5  15    2.45    1.24
  -2  -5  15   -0.20    1.14
  -1  -5  15    0.77    1.25
   0  -5  15    4.71    1.67
   1  -5  15    6.54    2.02
   2  -5  15    0.69    1.39
   3  -5  15    0.48    1.43
   4  -5  15   -1.55    1.42
   5  -5  15   -0.23    1.67
  -5  -4  15   -0.01    0.89
  -4  -4  15    0.24    0.83
  -3  -4  15   -0.08    1.16
  -2  -4  15    2.10    1.39
  -1  -4  15   -0.46    1.11
   0  -4  15    0.28    1.27
   1  -4  15   -0.17    1.19
   2  -4  15    5.11    1.89
   3  -4  15    0.22    1.55
   4  -4  15   -0.83    1.56
   5  -4  15    2.34    1.86
  -6  -3  15    0.65    1.10
  -5  -3  15   -0.44    0.83
  -4  -3  15   -0.24    0.82
  -3  -3  15    2.04    1.34
  -2  -3  15    0.86    1.25
  -1  -3  15    0.02    1.16
   0  -3  15    0.24    1.14
   1  -3  15   -1.32    0.90
   2  -3  15    2.82    1.61
   3  -3  15    3.70    1.90
   4  -3  15    2.54    1.74
   5  -3  15    0.05    1.69
  -6  -2  15   -0.64    0.85
  -5  -2  15    0.24    0.90
  -4  -2  15    1.23    1.17
  -3  -2  15    0.24    1.14
  -2  -2  15    0.35    1.08
  -1  -2  15    1.01    1.26
   0  -2  15    1.65    1.29
   1  -2  15   -0.96    1.14
   2  -2  15    4.19    1.77
   3  -2  15    1.34    1.51
   4  -2  15    1.93    1.69
  -4  -1  15    0.17    0.98
  -3  -1  15   -0.30    0.94
  -2  -1  15    4.23    1.46
  -1  -1  15    1.72    1.18
   0  -1  15   -0.21    1.18
   1  -1  15    4.02    1.71
   2  -1  15   -0.22    1.36
   3  -1  15   11.22    2.49
   4  -1  15   -1.45    1.39
   5   0 -15    3.97    1.73
   4   0 -15   -0.44    1.15
   3   0 -15    1.39    1.30
   2   0 -15    1.68    1.49
   1   0 -15    0.62    1.26
  -1   0  15    1.10    1.13
   0   0  15    1.60    1.20
   1   0  15    0.27    1.23
   2   0  15    2.23    1.53
   3   0  15   -1.21    1.26
   5  -1 -15    0.10    1.12
   4  -1 -15    0.11    1.09
   3  -1 -15    1.70    1.21
   2  -1 -15    1.44    0.99
   1  -1 -15    0.00    1.10
   0  -1 -15    0.95    1.05
  -1  -1 -15    4.95    1.65
   2   1  15    1.72    1.63
   3   1  15    3.64    1.91
   6  -2 -15    2.47    1.61
   5  -2 -15   -0.27    1.27
   4  -2 -15    0.41    1.29
   3  -2 -15   -0.18    1.24
   2  -2 -15    1.05    1.34
   1  -2 -15   -1.09    1.00
   0  -2 -15    0.69    0.59
  -1  -2 -15   -0.62    0.93
   5  -3 -15    0.26    1.42
   4  -3 -15    0.99    1.44
   3  -3 -15   -0.33    1.11
   2  -3 -15    0.06    1.12
   1  -3 -15    0.78    1.32
  -1  -7  16   -1.27    1.10
   0  -7  16   -0.36    1.16
   1  -7  16   -0.83    1.24
  -3  -6  16    1.05    1.10
  -2  -6  16   -0.54    0.76
  -2  -6  16   -0.20    1.25
  -1  -6  16    0.33    1.41
   0  -6  16    2.06    1.59
   1  -6  16   -0.30    1.23
   2  -6  16   -0.63    1.15
  -4  -5  16   -0.41    0.90
  -3  -5  16    0.09    0.88
  -2  -5  16   -1.84    1.13
  -1  -5  16    1.22    1.49
   0  -5  16    0.40    1.34
   1  -5  16   -0.82    1.36
   2  -5  16   -0.20    1.33
   3  -5  16   -1.76    1.54
  -4  -4  16    1.54    1.08
  -3  -4  16    0.25    1.26
  -2  -4  16    0.28    1.21
  -1  -4  16    0.86    1.37
   0  -4  16    0.62    1.52
   1  -4  16   -0.58    1.31
   2  -4  16    0.00    1.21
   3  -4  16    0.54    1.64
  -5  -3  16    0.31    0.97
  -4  -3  16    1.74    1.10
  -3  -3  16    1.07    1.35
  -2  -3  16    0.93    1.29
  -1  -3  16    1.34    1.41
   0  -3  16    2.40    1.59
   1  -3  16    0.72    1.41
   2  -3  16   -0.61    1.25
   3  -3  16    2.15    1.98
  -5  -2  16    0.28    1.03
  -4  -2  16   -0.44    1.22
  -3  -2  16    1.69    1.39
  -2  -2  16   -1.17    1.09
  -1  -2  16   -0.53    1.19
   0  -2  16   -0.10    1.11
   1  -2  16    1.45    1.53
   2  -2  16    7.77    2.41
   3  -2  16    0.75    1.68
  -4  -1  16   -0.27    1.02
  -3  -1  16   -1.00    1.08
  -2  -1  16   -0.03    1.09
  -1  -1  16   -0.36    1.10
   0  -1  16   -0.32    1.15
   1  -1  16    1.60    1.63
   2  -1  16    0.40    1.42
  -5   0  16    2.31    1.33
   4   0 -16   -0.48    1.35
  -4   0  16    1.42    1.15
   3   0 -16    0.62    1.58
  -3   0  16    2.01    1.28
  -2   0  16    0.93    1.17
  -1   0  16   -0.18    1.10
   0   0  16    1.49    1.40
   1   0  16    0.50    1.51
   5  -1 -16    0.01    1.34
   4  -1 -16    0.88    1.47
   3  -1 -16    0.72    1.48
   2  -1 -16   -0.63    1.05
   1  -1 -16    0.39    1.34
   0  -1 -16    0.94    1.42
   4  -2 -16   -0.75    1.31
   3  -2 -16   -0.61    1.26
  -1  -5  17   -0.44    1.34
   0  -5  17    0.02    1.26
  -2  -4  17   -0.14    1.28
  -1  -4  17    0.46    1.42
   0  -4  17   -2.19    1.18
  -3  -3  17   -1.15    1.25
  -2  -3  17    0.93    1.38
  -1  -3  17    0.39    1.37
   0  -3  17    2.91    1.78
  -3  -2  17   -0.33    1.20
  -2  -2  17   -1.39    1.16
  -1  -2  17    3.14    1.84
   0  -2  17    2.36    1.59
  -3  -1  17    1.03    1.35
  -2  -1  17    2.87    1.57
  -1  -1  17    1.48    1.43
   0   0   0    0.00    0.00
;
_shelx_hkl_checksum              78397
_olex2_submission_special_instructions 'No special instructions were received'
loop_
_space_group_symop_operation_xyz
'x, y, z'
'-x, -y, -z'
loop_
_atom_site_label
_atom_site_type_symbol
_atom_site_fract_x
_atom_site_fract_y
_atom_site_fract_z
_atom_site_U_iso_or_equiv
_atom_site_adp_type
_atom_site_occupancy
_atom_site_site_symmetry_order
_atom_site_calc_flag
S1 S 0.7740(2) 0.71814(18) 0.39298(13) 0.0550(6) Uani 1 1 d
O3 O 0.7077(6) 0.6874(5) 0.4765(3) 0.0739(15) Uani 1 1 d
O4 O 0.9034(5) 0.6837(6) 0.3711(4) 0.0759(16) Uani 1 1 d
N1 N 0.6513(5) 0.6358(5) 0.2949(3) 0.0434(13) Uani 1 1 d
C3 C 0.4937(7) 0.8064(6) 0.2132(5) 0.0466(16) Uani 1 1 d
C10 C 0.7550(7) 0.4970(7) 0.1716(5) 0.0453(16) Uani 1 1 d
C13 C 0.6997(6) 0.6179(6) 0.1994(4) 0.0423(15) Uani 1 1 d
C16 C 0.6913(6) 0.7098(6) 0.1443(5) 0.0445(15) Uani 1 1 d
C17 C 0.4959(7) 0.6153(6) 0.2990(4) 0.0435(15) Uani 1 1 d
C18 C 0.6148(7) 0.8141(7) 0.1681(5) 0.0487(16) Uani 1 1 d
C21 C 0.4243(7) 0.9171(6) 0.2109(5) 0.0489(16) Uani 1 1 d
C24 C 0.4254(8) 0.5110(6) 0.3448(5) 0.0525(17) Uani 1 1 d
C25 C 0.4221(7) 0.6953(6) 0.2602(4) 0.0435(15) Uani 1 1 d
C26 C 0.7521(7) 0.7092(7) 0.0502(5) 0.0508(17) Uani 1 1 d
C29 C 0.8512(8) 1.1767(7) 0.4127(6) 0.063(2) Uani 1 1 d
C32 C 0.8794(8) 0.5046(8) 0.1289(6) 0.068(2) Uani 1 1 d
C33 C 0.3967(8) 0.9957(8) 0.2968(5) 0.062(2) Uani 1 1 d
C34 C 0.8082(7) 0.8965(7) 0.4022(4) 0.0486(16) Uani 1 1 d
C36 C 0.2746(9) 0.4895(8) 0.3522(5) 0.065(2) Uani 1 1 d
C39 C 0.2730(8) 0.6681(7) 0.2673(5) 0.0560(18) Uani 1 1 d
C41 C 0.7185(8) 0.9643(7) 0.4526(5) 0.0598(19) Uani 1 1 d
C45 C 0.7422(9) 1.1021(8) 0.4569(5) 0.066(2) Uani 1 1 d
C46 C 0.3867(8) 0.9432(8) 0.1201(6) 0.068(2) Uani 1 1 d
C47 C 0.6777(8) 0.3735(7) 0.1919(6) 0.066(2) Uani 1 1 d
C51 C 0.8768(9) 0.8157(8) 0.0491(6) 0.074(2) Uani 1 1 d
C52 C 0.7265(10) 0.2566(8) 0.1643(7) 0.079(2) Uani 1 1 d
C53 C 0.1986(8) 0.5672(8) 0.3122(5) 0.064(2) Uani 1 1 d
C54 C 0.9388(9) 1.1047(9) 0.3638(6) 0.076(2) Uani 1 1 d
C56 C 0.9184(8) 0.9664(8) 0.3583(6) 0.066(2) Uani 1 1 d
C57 C 0.3323(9) 1.1004(8) 0.2922(6) 0.073(2) Uani 1 1 d
C58 C 0.2958(9) 1.1250(8) 0.2031(7) 0.072(2) Uani 1 1 d
C60 C 0.3199(9) 1.0461(8) 0.1153(6) 0.075(2) Uani 1 1 d
C63 C 0.6751(9) 0.6029(10) -0.0397(6) 0.081(2) Uani 1 1 d
C68 C 0.8789(10) 1.3303(8) 0.4194(7) 0.092(3) Uani 1 1 d
C69 C 0.8477(10) 0.2622(9) 0.1219(6) 0.078(2) Uani 1 1 d
C70 C 0.9243(10) 0.3855(10) 0.0992(7) 0.087(3) Uani 1 1 d
loop_
_atom_site_aniso_label
_atom_site_aniso_U_11
_atom_site_aniso_U_22
_atom_site_aniso_U_33
_atom_site_aniso_U_23
_atom_site_aniso_U_13
_atom_site_aniso_U_12
S1 0.0693(13) 0.0549(11) 0.0426(10) 0.0092(8) -0.0045(8) 0.0279(9)
O3 0.120(4) 0.068(3) 0.039(3) 0.023(2) 0.005(3) 0.032(3)
O4 0.071(3) 0.086(4) 0.068(3) -0.005(3) -0.016(3) 0.045(3)
N1 0.055(3) 0.047(3) 0.032(3) 0.012(2) 0.002(2) 0.022(3)
C3 0.054(4) 0.047(4) 0.045(4) 0.012(3) 0.007(3) 0.024(3)
C10 0.042(4) 0.049(4) 0.045(4) 0.008(3) -0.001(3) 0.020(3)
C13 0.044(4) 0.045(4) 0.038(4) 0.004(3) 0.003(3) 0.020(3)
C16 0.047(4) 0.043(3) 0.047(4) 0.014(3) 0.006(3) 0.019(3)
C17 0.052(4) 0.047(4) 0.038(4) 0.012(3) 0.011(3) 0.024(3)
C18 0.054(4) 0.052(4) 0.046(4) 0.014(3) 0.002(3) 0.026(3)
C21 0.058(4) 0.047(4) 0.052(4) 0.018(3) 0.014(3) 0.024(3)
C24 0.067(5) 0.045(4) 0.050(4) 0.012(3) 0.016(3) 0.021(3)
C25 0.052(4) 0.045(4) 0.041(4) 0.014(3) 0.013(3) 0.023(3)
C26 0.059(4) 0.060(4) 0.051(4) 0.022(3) 0.015(3) 0.036(4)
C29 0.068(5) 0.047(4) 0.064(5) 0.009(4) -0.008(4) 0.011(4)
C32 0.069(5) 0.076(5) 0.072(5) 0.021(4) 0.018(4) 0.040(4)
C33 0.076(5) 0.074(5) 0.054(4) 0.015(4) 0.016(4) 0.050(4)
C34 0.048(4) 0.053(4) 0.038(4) 0.002(3) -0.006(3) 0.015(3)
C36 0.079(5) 0.062(5) 0.059(5) 0.018(4) 0.026(4) 0.025(4)
C39 0.057(5) 0.057(4) 0.061(5) 0.021(3) 0.018(4) 0.020(4)
C41 0.080(5) 0.039(4) 0.061(5) 0.005(3) 0.010(4) 0.026(4)
C45 0.073(5) 0.063(5) 0.057(5) 0.010(4) 0.013(4) 0.017(4)
C46 0.081(5) 0.084(5) 0.063(5) 0.037(4) 0.013(4) 0.046(5)
C47 0.076(5) 0.050(4) 0.077(5) 0.017(4) 0.010(4) 0.027(4)
C51 0.083(6) 0.073(5) 0.091(6) 0.043(5) 0.036(5) 0.038(5)
C52 0.096(7) 0.059(5) 0.090(6) 0.009(4) 0.020(5) 0.041(5)
C53 0.076(5) 0.070(5) 0.059(5) 0.025(4) 0.023(4) 0.032(4)
C54 0.067(5) 0.071(6) 0.078(6) 0.012(4) 0.012(4) 0.007(4)
C56 0.059(5) 0.060(5) 0.066(5) 0.011(4) 0.002(4) 0.006(4)
C57 0.088(6) 0.076(5) 0.074(6) 0.027(4) 0.018(4) 0.048(5)
C58 0.081(6) 0.071(5) 0.083(6) 0.033(5) 0.016(4) 0.043(4)
C60 0.092(6) 0.077(5) 0.083(6) 0.034(5) 0.026(5) 0.055(5)
C63 0.081(6) 0.116(7) 0.051(5) 0.016(5) 0.011(4) 0.041(5)
C68 0.113(7) 0.043(4) 0.107(7) 0.022(4) 0.010(6) 0.004(5)
C69 0.084(6) 0.071(6) 0.087(6) 0.008(5) 0.020(5) 0.040(5)
C70 0.086(6) 0.076(6) 0.107(7) 0.010(5) 0.019(5) 0.049(5)
loop_
_atom_type_symbol
_atom_type_description
_atom_type_scat_dispersion_real
_atom_type_scat_dispersion_imag
_atom_type_scat_source
C C 0.0033 0.0016 'International Tables Vol C Tables 4.2.6.8 and 6.1.1.4'
N N 0.0061 0.0033 'International Tables Vol C Tables 4.2.6.8 and 6.1.1.4'
O O 0.0106 0.0060 'International Tables Vol C Tables 4.2.6.8 and 6.1.1.4'
S S 0.1246 0.1234 'International Tables Vol C Tables 4.2.6.8 and 6.1.1.4'
loop_
_geom_angle_atom_site_label_1
_geom_angle_atom_site_label_2
_geom_angle_atom_site_label_3
_geom_angle
O3 S1 N1 106.9(3)
O3 S1 C34 107.8(3)
O4 S1 O3 121.3(3)
O4 S1 N1 105.3(3)
O4 S1 C34 108.0(3)
N1 S1 C34 106.8(3)
C13 N1 S1 118.3(4)
C13 N1 C17 118.7(5)
C17 N1 S1 120.8(4)
C18 C3 C21 116.5(6)
C18 C3 C25 126.0(6)
C25 C3 C21 117.4(5)
C32 C10 C13 122.3(6)
C32 C10 C47 119.9(6)
C47 C10 C13 117.7(6)
N1 C13 C10 114.5(5)
C16 C13 N1 119.0(5)
C16 C13 C10 126.4(6)
C13 C16 C18 124.0(6)
C13 C16 C26 123.1(5)
C18 C16 C26 112.8(5)
C24 C17 N1 116.3(5)
C25 C17 N1 121.4(5)
C25 C17 C24 122.3(6)
C3 C18 C16 128.7(6)
C33 C21 C3 121.7(6)
C33 C21 C46 119.4(6)
C46 C21 C3 118.9(6)
C17 C24 C36 118.1(6)
C17 C25 C3 123.4(6)
C17 C25 C39 117.4(6)
C39 C25 C3 119.2(6)
C51 C26 C16 118.3(6)
C51 C26 C63 121.7(7)
C63 C26 C16 119.9(6)
C45 C29 C54 117.0(7)
C45 C29 C68 122.3(7)
C54 C29 C68 120.7(8)
C10 C32 C70 120.5(7)
C21 C33 C57 120.3(7)
C41 C34 S1 118.5(5)
C56 C34 S1 120.3(5)
C56 C34 C41 121.2(7)
C53 C36 C24 120.2(7)
C53 C39 C25 122.6(7)
C45 C41 C34 118.4(7)
C41 C45 C29 122.5(7)
C21 C46 C60 120.4(7)
C10 C47 C52 118.7(7)
C69 C52 C47 122.1(8)
C39 C53 C36 119.3(7)
C56 C54 C29 122.1(8)
C54 C56 C34 118.8(7)
C58 C57 C33 119.9(7)
C57 C58 C60 121.1(7)
C58 C60 C46 118.9(7)
C52 C69 C70 119.5(7)
C69 C70 C32 119.0(8)
loop_
_geom_bond_atom_site_label_1
_geom_bond_atom_site_label_2
_geom_bond_distance
S1 O3 1.429(5)
S1 O4 1.424(5)
S1 N1 1.634(5)
S1 C34 1.754(7)
N1 C13 1.442(7)
N1 C17 1.456(8)
C3 C18 1.360(9)
C3 C21 1.481(8)
C3 C25 1.477(9)
C10 C13 1.481(8)
C10 C32 1.370(9)
C10 C47 1.386(10)
C13 C16 1.361(8)
C16 C18 1.463(8)
C16 C26 1.484(9)
C17 C24 1.411(9)
C17 C25 1.392(8)
C21 C33 1.389(9)
C21 C46 1.396(9)
C24 C36 1.419(10)
C25 C39 1.397(8)
C26 C51 1.385(10)
C26 C63 1.462(10)
C29 C45 1.389(10)
C29 C54 1.399(10)
C29 C68 1.515(10)
C32 C70 1.408(10)
C33 C57 1.399(9)
C34 C41 1.399(9)
C34 C56 1.375(10)
C36 C53 1.395(10)
C39 C53 1.389(10)
C41 C45 1.366(10)
C46 C60 1.398(9)
C47 C52 1.405(10)
C52 C69 1.342(10)
C54 C56 1.372(11)
C57 C58 1.364(10)
C58 C60 1.397(10)
C69 C70 1.398(12)
