#------------------------------------------------------------------------------
#$Date: 2018-01-06 03:56:45 +0200 (Sat, 06 Jan 2018) $
#$Revision: 204799 $
#$URL: file:///home/coder/svn-repositories/cod/cif/4/03/32/4033242.cif $
#------------------------------------------------------------------------------
#
# This file is available in the Crystallography Open Database (COD),
# http://www.crystallography.net/
#
# All data on this site have been placed in the public domain by the
# contributors.
#
data_4033242
loop_
_publ_author_name
'De Schutter, Coralie'
'Sari, Ozkan'
'Coats, Steven J.'
'Amblard, Franck'
'Schinazi, Raymond F.'
_publ_section_title
;
 Synthesis of (2S)-2-Chloro-2-fluororibolactone via Stereoselective
 Electrophilic Fluorination.
;
_journal_issue                   24
_journal_name_full               'The Journal of organic chemistry'
_journal_page_first              13171
_journal_page_last               13178
_journal_paper_doi               10.1021/acs.joc.7b02245
_journal_volume                  82
_journal_year                    2017
_chemical_absolute_configuration ad
_chemical_formula_moiety         'C18 H23 Cl F N O7 Si'
_chemical_formula_sum            'C18 H23 Cl F N O7 Si'
_chemical_formula_weight         447.91
_space_group_crystal_system      triclinic
_space_group_IT_number           1
_space_group_name_Hall           'P 1'
_space_group_name_H-M_alt        'P 1'
_symmetry_space_group_name_Hall  'P 1'
_symmetry_space_group_name_H-M   'P 1'
_atom_sites_solution_hydrogens   geom
_atom_sites_solution_primary     dual
_audit_creation_date             2017-09-12
_audit_creation_method
;
Olex2 1.2-dev
(compiled 2017.07.20 svn.r3457 for OlexSys, GUI svn.r5370)
;
_cell_angle_alpha                82.254(8)
_cell_angle_beta                 84.013(8)
_cell_angle_gamma                63.460(10)
_cell_formula_units_Z            1
_cell_length_a                   6.5977(7)
_cell_length_b                   6.9540(7)
_cell_length_c                   13.0578(13)
_cell_measurement_reflns_used    4188
_cell_measurement_temperature    100(2)
_cell_measurement_theta_max      27.5310
_cell_measurement_theta_min      1.5520
_cell_volume                     530.42(10)
_computing_cell_refinement       'CrysAlisPro 1.171.39.9g (Rigaku OD, 2015)'
_computing_data_collection       'APEX2 v2016.5-1 (Bruker, 2014)'
_computing_data_reduction        'CrysAlisPro 1.171.39.9g (Rigaku OD, 2015)'
_computing_molecular_graphics    'Olex2 (Dolomanov et al., 2009)'
_computing_publication_material  'Olex2 (Dolomanov et al., 2009)'
_computing_structure_refinement  'XL (Sheldrick, 2008)'
_computing_structure_solution    'XT (Sheldrick, 2015)'
_diffrn_ambient_temperature      100(2)
_diffrn_detector                 'CCD plate'
_diffrn_measured_fraction_theta_full 0.956
_diffrn_measured_fraction_theta_max 0.956
_diffrn_measurement_details
;
List of Runs (angles in degrees, time in seconds):

  # Type    Start    End  Width  t~exp~   \w     \q     \k     \f   Frames
--------------------------------------------------------------------------
  1  \w    -12.69 195.31   1.00   30.00    --   27.07  73.80  54.24  208
  2  \w    -12.69 195.31   1.00   30.00    --   27.07  73.80-105.76  208
  3  \w    -12.69 195.31   1.00   30.00    --   27.07  73.80 -25.76  208
  4  \w    -12.69 195.31   1.00   30.00    --   27.07  73.80 174.24  208
;
_diffrn_measurement_device       'abstract diffractometer'
_diffrn_measurement_device_type  'Bruker D8 VENTURE diffractometer'
_diffrn_measurement_method       '\w scans'
_diffrn_orient_matrix_type
'CrysAlisPro convention (1999,Acta A55,543-557)'
_diffrn_orient_matrix_UB_11      -0.0945482000
_diffrn_orient_matrix_UB_12      0.0362262000
_diffrn_orient_matrix_UB_13      -0.0311654000
_diffrn_orient_matrix_UB_21      0.0589872000
_diffrn_orient_matrix_UB_22      0.0346621000
_diffrn_orient_matrix_UB_23      -0.0411112000
_diffrn_orient_matrix_UB_31      0.0453626000
_diffrn_orient_matrix_UB_32      -0.1030260000
_diffrn_orient_matrix_UB_33      -0.0187408000
_diffrn_radiation_monochromator  graphite
_diffrn_radiation_probe          x-ray
_diffrn_radiation_type           MoK\a
_diffrn_radiation_wavelength     0.71073
_diffrn_reflns_av_R_equivalents  0.0270
_diffrn_reflns_av_unetI/netI     0.0383
_diffrn_reflns_Laue_measured_fraction_full 0.956
_diffrn_reflns_Laue_measured_fraction_max 0.956
_diffrn_reflns_limit_h_max       7
_diffrn_reflns_limit_h_min       -7
_diffrn_reflns_limit_k_max       8
_diffrn_reflns_limit_k_min       -8
_diffrn_reflns_limit_l_max       15
_diffrn_reflns_limit_l_min       -15
_diffrn_reflns_number            5276
_diffrn_reflns_point_group_measured_fraction_full 0.892
_diffrn_reflns_point_group_measured_fraction_max 0.892
_diffrn_reflns_theta_full        24.711
_diffrn_reflns_theta_max         24.711
_diffrn_reflns_theta_min         1.576
_diffrn_source                   'fine-focus sealed X-ray tube'
_diffrn_source_current           35
_diffrn_source_type              'Enhance (Mo) X-ray Source'
_diffrn_source_voltage           45
_exptl_absorpt_coefficient_mu    0.284
_exptl_absorpt_correction_T_max  1.00000
_exptl_absorpt_correction_T_min  0.62947
_exptl_absorpt_correction_type   multi-scan
_exptl_absorpt_process_details
'CrysAlisPro 1.171.39.9g (Rigaku Oxford Diffraction, 2015) Empirical absorption correction using spherical harmonics, implemented in SCALE3 ABSPACK scaling algorithm.'
_exptl_crystal_colour            colourless
_exptl_crystal_colour_primary    colourless
_exptl_crystal_density_diffrn    1.402
_exptl_crystal_description       plate
_exptl_crystal_F_000             234
_exptl_crystal_recrystallization_method
'Slow evaporation from diethyl ether and pentane.'
_exptl_crystal_size_max          0.18
_exptl_crystal_size_mid          0.16
_exptl_crystal_size_min          0.12
_refine_diff_density_max         0.456
_refine_diff_density_min         -0.257
_refine_diff_density_rms         0.067
_refine_ls_abs_structure_details
;
 Flack x determined using 1275 quotients [(I+)-(I-)]/[(I+)+(I-)]
 (Parsons, Flack and Wagner, Acta Cryst. B69 (2013) 249-259).
;
_refine_ls_abs_structure_Flack   0.07(5)
_refine_ls_extinction_method     none
_refine_ls_goodness_of_fit_ref   1.075
_refine_ls_hydrogen_treatment    constr
_refine_ls_matrix_type           full
_refine_ls_number_parameters     267
_refine_ls_number_reflns         3229
_refine_ls_number_restraints     165
_refine_ls_restrained_S_all      1.068
_refine_ls_R_factor_all          0.0474
_refine_ls_R_factor_gt           0.0429
_refine_ls_shift/su_max          0.000
_refine_ls_shift/su_mean         0.000
_refine_ls_structure_factor_coef Fsqd
_refine_ls_weighting_details
'w=1/[\s^2^(Fo^2^)+(0.0532P)^2^+0.4575P] where P=(Fo^2^+2Fc^2^)/3'
_refine_ls_weighting_scheme      calc
_refine_ls_wR_factor_gt          0.1000
_refine_ls_wR_factor_ref         0.1022
_reflns_Friedel_coverage         0.868
_reflns_Friedel_fraction_full    0.829
_reflns_Friedel_fraction_max     0.829
_reflns_number_gt                3010
_reflns_number_total             3229
_reflns_threshold_expression     'I > 2\s(I)'
_cod_data_source_file            jo7b02245_si_003.cif
_cod_data_source_block           cds3-023bf1
_cod_depositor_comments
'Adding full bibliography for 4033242--4033243.cif.'
_cod_database_code               4033242
_shelx_shelxl_version_number     2014/7
_chemical_oxdiff_formula         C18H23ClFNO7Si
_shelx_space_group_comment
;
The symmetry employed for this shelxl refinement is uniquely defined
by the following loop, which should always be used as a source of
symmetry information in preference to the above space-group names.
They are only intended as comments.
;
_reflns_odcompleteness_completeness 95.17
_reflns_odcompleteness_iscentric 1
_reflns_odcompleteness_theta     25.63
_olex2_refinement_description
;
1. Fixed Uiso
 At 1.2 times of:
  All C(H) groups, All C(H,H) groups
 At 1.5 times of:
  All C(H,H,H) groups
2. Uiso/Uaniso restraints and constraints
Uanis(C2) \\sim Ueq: with sigma of 0.002 and sigma for terminal atoms of 0.004
Uanis(C4) \\sim Ueq: with sigma of 0.002 and sigma for terminal atoms of 0.004
Uanis(C16) \\sim Ueq: with sigma of 0.002 and sigma for terminal atoms of 0.004
3. Rigid body (RIGU) restrains
 F1, C3, Cl1, C2, C4
 with sigma for 1-2 distances of 0.001 and sigma for 1-3 distances of 0.002
 O3, C2, C1, C3
 with sigma for 1-2 distances of 0.001 and sigma for 1-3 distances of 0.002
 C3, C4
 with sigma for 1-2 distances of 0.001 and sigma for 1-3 distances of 0.001
 C3, C4, O1, O2
 with sigma for 1-2 distances of 0.001 and sigma for 1-3 distances of 0.001
 C13, C14, C15, C16, N1, O6, O7, C17, C18, C6, O4, O5
 with sigma for 1-2 distances of 0.001 and sigma for 1-3 distances of 0.001
4.a Ternary CH refined with riding coordinates:
 C2(H2), C1(H1)
4.b Secondary CH2 refined with riding coordinates:
 C5(H5A,H5B)
4.c Aromatic/amide H refined with riding coordinates:
 C17(H17), C15(H15), C18(H18), C14(H14)
4.d Idealised Me refined as rotating group:
 C11(H11A,H11B,H11C), C8(H8A,H8B,H8C), C7(H7A,H7B,H7C), C10(H10A,H10B,H10C),
 C12(H12A,H12B,H12C)
;
_shelx_res_file
;
    cds3-023bf1.res created by SHELXL-2014/7

TITL cds3-023bF1 in P1
REM P1 (#1 in standard setting)
CELL 0.71073 6.597741 6.953958 13.057827 82.2537 84.0128 63.4598
ZERR 1 0.000667 0.000653 0.00126 0.0079 0.0081 0.0097
LATT -1
SFAC C H Cl F N O Si
UNIT 18 23 1 1 1 7 1
RIGU 0.001 0.002 F1 C3 Cl1 C2 C4
RIGU 0.001 0.002 O3 C2 C1 C3
RIGU 0.001 0.001 C3 C4
RIGU 0.001 0.001 C3 C4 O1 O2
RIGU 0.001 0.001 C13 C14 C15 C16 N1 O6 O7 C17 C18 C6 O4 O5
ISOR 0.002 0.004 C2
ISOR 0.002 0.004 C4
ISOR 0.002 0.004 C16

L.S. 4
PLAN  20
BOND $H
list 4
fmap 2
acta
SHEL 20 0.85
REM <olex2.extras>
REM <HklSrc "%.\\cds3-023bF1.hkl">
REM </olex2.extras>

WGHT    0.053200    0.457500
FVAR       4.93655
CL1   3   -0.763782    0.282232   -0.427778    11.00000    0.02025    0.02496 =
         0.02711   -0.00771    0.00439   -0.00865
SI1   7   -0.435610    0.197468   -0.778829    11.00000    0.01506    0.01542 =
         0.01751    0.00410   -0.00009   -0.00873
F1    4   -0.870667    0.326213   -0.614360    11.00000    0.01506    0.02554 =
         0.02805    0.00710   -0.00336   -0.00521
O3    6   -0.485521    0.027013   -0.687429    11.00000    0.01765    0.01637 =
         0.01786    0.00260    0.00027   -0.01032
O4    6   -0.327190   -0.438903   -0.371197    11.00000    0.01650    0.01784 =
         0.02059    0.00547    0.00169   -0.00516
O1    6   -0.665644   -0.199556   -0.511822    11.00000    0.01852    0.02343 =
         0.02251    0.00327   -0.00081   -0.01451
O7    6   -0.527990   -1.265642   -0.049452    11.00000    0.03731    0.03135 =
         0.02858    0.00342    0.00678   -0.02210
O2    6   -1.034423    0.033223   -0.510608    11.00000    0.01815    0.04071 =
         0.03281    0.00270   -0.00124   -0.01758
O5    6   -0.657293   -0.262810   -0.281026    11.00000    0.01910    0.02202 =
         0.02358    0.00215    0.00378   -0.00524
O6    6   -0.204087   -1.415038   -0.133433    11.00000    0.03294    0.02238 =
         0.03580    0.00215    0.00344   -0.01271
N1    5   -0.376778   -1.256316   -0.109194    11.00000    0.02769    0.02244 =
         0.01869    0.00388   -0.00127   -0.01521
C5    1   -0.342223   -0.236262   -0.422840    11.00000    0.01717    0.01618 =
         0.02686    0.00665   -0.00154   -0.01121
AFIX  23
H5A   2   -0.191770   -0.242499   -0.433467    11.00000   -1.20000
H5B   2   -0.433373   -0.120665   -0.379931    11.00000   -1.20000
AFIX   0
C17   1   -0.610797   -0.865337   -0.144841    11.00000    0.02208    0.02412 =
         0.02020    0.00265    0.00504   -0.01185
AFIX  43
H17   2   -0.731175   -0.880746   -0.107140    11.00000   -1.20000
AFIX   0
C9    1   -0.170192    0.023786   -0.853488    11.00000    0.01601    0.01960 =
         0.02072    0.00297   -0.00158   -0.01132
C13   1   -0.454686   -0.647028   -0.249985    11.00000    0.01813    0.02113 =
         0.01195    0.00080   -0.00122   -0.00957
C15   1   -0.220910   -1.026592   -0.213451    11.00000    0.02201    0.02018 =
         0.02215    0.00117    0.00289   -0.01066
AFIX  43
H15   2   -0.083288   -1.148141   -0.220447    11.00000   -1.20000
AFIX   0
C11   1    0.035414   -0.067672   -0.786312    11.00000    0.01654    0.02482 =
         0.02888    0.00123   -0.00059   -0.00488
AFIX 137
H11A  2    0.058722    0.048866   -0.766692    11.00000   -1.50000
H11B  2    0.167592   -0.160357   -0.824762    11.00000   -1.50000
H11C  2    0.008935   -0.148912   -0.725334    11.00000   -1.50000
AFIX   0
C4    1   -0.838856   -0.002315   -0.520114    11.00000    0.01753    0.02604 =
         0.01668    0.00050   -0.00124   -0.01157
C18   1   -0.634847   -0.667415   -0.189919    11.00000    0.01960    0.02274 =
         0.01980    0.00178    0.00305   -0.00917
AFIX  43
H18   2   -0.771234   -0.545663   -0.180750    11.00000   -1.20000
AFIX   0
C14   1   -0.248424   -0.826993   -0.259275    11.00000    0.01784    0.02097 =
         0.02070    0.00183    0.00248   -0.01025
AFIX  43
H14   2   -0.127331   -0.812743   -0.296866    11.00000   -1.20000
AFIX   0
C16   1   -0.403024   -1.042024   -0.156706    11.00000    0.02142    0.02077 =
         0.01646    0.00080    0.00035   -0.01203
C6    1   -0.495428   -0.428609   -0.300640    11.00000    0.01555    0.02011 =
         0.01642    0.00184   -0.00025   -0.00810
C8    1   -0.403615    0.404810   -0.714710    11.00000    0.02098    0.01761 =
         0.03294    0.00299    0.00053   -0.00761
AFIX 137
H8A   2   -0.537282    0.477845   -0.671901    11.00000   -1.50000
H8B   2   -0.383026    0.507533   -0.766380    11.00000   -1.50000
H8C   2   -0.274022    0.336081   -0.672753    11.00000   -1.50000
AFIX   0
C2    1   -0.498034    0.035053   -0.581010    11.00000    0.01125    0.01541 =
         0.01743    0.00191   -0.00017   -0.00706
AFIX  13
H2    2   -0.397465    0.091065   -0.560447    11.00000   -1.20000
AFIX   0
C3    1   -0.745263    0.166061   -0.543716    11.00000    0.01221    0.02038 =
         0.02079    0.00026    0.00020   -0.00534
C1    1   -0.448027   -0.190279   -0.525920    11.00000    0.01667    0.01504 =
         0.02021    0.00194    0.00379   -0.00790
AFIX  13
H1    2   -0.346643   -0.299778   -0.571193    11.00000   -1.20000
AFIX   0
C7    1   -0.678591    0.320931   -0.863923    11.00000    0.01601    0.02322 =
         0.02698    0.00450   -0.00137   -0.00543
AFIX 137
H7A   2   -0.691360    0.209734   -0.895145    11.00000   -1.50000
H7B   2   -0.654901    0.419660   -0.917028    11.00000   -1.50000
H7C   2   -0.815532    0.397430   -0.823729    11.00000   -1.50000
AFIX   0
C10   1   -0.132708    0.161522   -0.949857    11.00000    0.02940    0.03522 =
         0.02206    0.00517    0.00567   -0.01385
AFIX 137
H10A  2   -0.261681    0.217590   -0.991956    11.00000   -1.50000
H10B  2    0.000817    0.073473   -0.989074    11.00000   -1.50000
H10C  2   -0.113956    0.279141   -0.928461    11.00000   -1.50000
AFIX   0
C12   1   -0.202441   -0.161246   -0.889335    11.00000    0.02244    0.02513 =
         0.02869   -0.00329    0.00238   -0.00642
AFIX 137
H12A  2   -0.212414   -0.255550   -0.830229    11.00000   -1.50000
H12B  2   -0.075652   -0.240971   -0.934226    11.00000   -1.50000
H12C  2   -0.339462   -0.103144   -0.926010    11.00000   -1.50000
AFIX   0
HKLF 4

REM  cds3-023bF1 in P1
REM R1 =  0.0429 for    3010 Fo > 4sig(Fo)  and  0.0474 for all    3229 data
REM    267 parameters refined using    165 restraints

END

WGHT      0.0533      0.4603

REM Highest difference peak  0.456,  deepest hole -0.257,  1-sigma level  0.067
Q1    1  -0.4296  0.1507 -0.6953  11.00000  0.05    0.46
Q2    1  -0.4964  0.0736 -0.7696  11.00000  0.05    0.43
Q3    1  -0.7093  0.3913 -0.4375  11.00000  0.05    0.42
Q4    1  -0.8077  0.1638 -0.4235  11.00000  0.05    0.39
Q5    1  -0.7661  0.2640 -0.3433  11.00000  0.05    0.38
Q6    1  -0.3758  0.3217 -0.7771  11.00000  0.05    0.35
Q7    1  -0.6128  0.2735 -0.8064  11.00000  0.05    0.34
Q8    1  -0.4473  0.2396 -0.8592  11.00000  0.05    0.33
Q9    1  -0.7461  0.2949 -0.5098  11.00000  0.05    0.32
Q10   1  -0.7424  0.3097 -0.5528  11.00000  0.05    0.29
Q11   1  -0.6122  0.1769 -0.4014  11.00000  0.05    0.28
Q12   1  -0.8051  0.1025 -0.5334  11.00000  0.05    0.27
Q13   1  -0.3347 -0.4280 -0.3026  11.00000  0.05    0.26
Q14   1  -0.3279  0.2339 -0.7281  11.00000  0.05    0.25
Q15   1  -0.1714  0.0353 -0.9405  11.00000  0.05    0.25
Q16   1  -0.5445 -1.2318 -0.1369  11.00000  0.05    0.24
Q17   1  -0.5480 -0.0443 -0.7101  11.00000  0.05    0.24
Q18   1  -0.6733 -0.2208 -0.4276  11.00000  0.05    0.23
Q19   1  -1.0187  0.2698 -0.6121  11.00000  0.05    0.23
Q20   1  -1.0383  0.0708 -0.5815  11.00000  0.05    0.23
;
_shelx_res_checksum              63524
_shelx_hkl_file
;
  -7  -7  -2 2341.23 200.629   1
  -7  -6  -7 627.263 151.685   1
  -7  -6  -6 133.522 127.362   1
  -7  -6  -5 2103.72 178.118   1
  -7  -6  -3 652.293 147.934   1
  -7  -6  -2 3075.73 191.482   1
  -7  -6   0 2683.25 180.378   1
  -7  -6   1 1151.59 150.222   1
  -7  -6   3 2016.14 170.329   1
  -7  -5  -8 1381.46 168.566   1
  -7  -5  -7 219.413 141.962   1
  -7  -5  -6 335.579 130.793   1
  -7  -5  -5 393.962 131.289   1
  -7  -5  -3 2203.06 169.475   1
  -7  -5  -1 3847.85 193.265   1
  -7  -5   0 2561.39 172.503   1
  -7  -5   1 2623.31 167.335   1
  -7  -5   3 2515.60 167.942   1
  -7  -4  -5 559.295 120.669   1
  -7  -4  -3 3368.69 175.412   1
  -7  -4  -2 2202.01 160.503   1
  -7  -4  -1 1729.42 153.242   1
  -7  -4   0 3132.54 168.856   1
  -7  -4   1 2484.39 156.031   1
  -7  -4   2 3012.12 160.603   1
  -7  -4   3 1602.26 152.545   1
  -7  -4   4 1074.36 135.691   1
  -7  -4   6 355.758 126.756   1
  -7  -3  -8 1547.91 151.816   4
  -7  -3  -7 160.643 121.827   4
  -7  -3  -6 2394.26 159.536   4
  -7  -2  -8 2857.01 188.447   4
  -7  -2  -7 951.371 144.492   4
  -7  -2  -6 2074.36 167.713   4
  -7  -2  -5 3992.23 186.955   4
  -7  -2  -4 2237.87 152.775   4
  -7  -2  -3 3104.48 158.869   4
  -7  -2  -1 830.429 112.085   4
  -7  -2   0 187.994 98.3563   4
  -7  -1  -6 1664.07 159.706   4
  -7  -1  -5 514.316 130.121   4
  -7  -1  -2 395.516 117.942   4
  -7  -1   0 3153.22 165.708   4
  -7  -1   2 1191.22 141.383   4
  -7  -1   3 2126.58 149.729   4
  -7  -1   4 167.158 119.638   4
  -7  -1   5 521.937 129.468   4
  -7   0  -4 851.329 142.420   4
  -7   0  -1 5833.26 215.758   4
  -6  -7  -8 1100.79 191.982   1
  -6  -7  -7 4058.41 239.746   1
  -6  -7  -6 549.088 161.398   1
  -6  -7  -5 338.164 172.937   1
  -6  -7  -4 11270.8 318.172   1
  -6  -7  -1 474.011 147.612   1
  -6  -7   0 351.325 143.410   1
  -6  -7   1 310.511 136.089   1
  -6  -7   2 1150.45 156.482   1
  -6  -7   3 287.003 140.613   1
  -6  -6 -10 3634.18 238.242   1
  -6  -6  -9 451.534 165.536   1
  -6  -6  -8 250.280 163.170   1
  -6  -6  -7 2347.78 189.454   1
  -6  -6  -6 1337.60 159.634   1
  -6  -6  -4 2460.93 184.784   1
  -6  -6  -2 7463.92 242.146   1
  -6  -6   1 3050.14 172.859   1
  -6  -6   2 1478.74 157.209   1
  -6  -6   3 1648.43 166.283   1
  -6  -6   4 2879.03 179.982   1
  -6  -6   5 518.267 140.374   1
  -6  -6   6 1024.20 153.995   1
  -6  -5 -11 126.719 147.679   1
  -6  -5  -8 306.597 147.793   1
  -6  -5  -7 61.9558 142.752   1
  -6  -5  -5 1995.15 164.164   1
  -6  -5  -4 3096.28 184.419   1
  -6  -5  -3 2479.15 174.667   1
  -6  -5  -2 7366.44 227.858   1
  -6  -5  -1 9549.91 250.581   1
  -6  -5   1 1835.60 141.771   1
  -6  -5   2 2761.61 163.446   1
  -6  -5   3 526.297 128.496   1
  -6  -5   5-146.203 126.153   1
  -6  -5   6 664.268 145.585   1
  -6  -4 -11 811.583 143.600   1
  -6  -4 -10 1489.77 167.475   1
  -6  -4 -10 1612.17 146.826   4
  -6  -4  -9 43.1411 140.670   1
  -6  -4  -9 141.654 115.682   4
  -6  -4  -8 2257.89 173.337   1
  -6  -4  -8 2011.58 146.079   4
  -6  -4  -6 400.435 127.734   1
  -6  -4  -5 2199.76 153.418   1
  -6  -4  -4 3184.98 168.975   1
  -6  -4  -2 3273.33 166.226   1
  -6  -4  -1 2989.40 162.102   1
  -6  -4   0 4537.75 180.425   1
  -6  -4   1 8038.23 213.203   1
  -6  -4   3 372.975 115.510   1
  -6  -4   4 2261.94 153.006   1
  -6  -4   5 366.579 123.694   1
  -6  -4   6 143.506 120.097   1
  -6  -3 -11 1294.89 163.519   4
  -6  -3 -10 461.495 135.609   4
  -6  -3  -9 1894.73 168.425   4
  -6  -3  -8 3694.44 181.424   1
  -6  -3  -8 3040.80 160.721   4
  -6  -3  -7 2678.07 159.673   1
  -6  -3  -7 2747.29 151.225   4
  -6  -3  -6 1388.46 137.678   1
  -6  -3  -6 1203.12 124.507   4
  -6  -3  -5 3998.92 169.513   1
  -6  -3  -5 3846.53 156.031   4
  -6  -3  -4 2178.58 130.619   4
  -6  -3  -4 2415.17 140.381   1
  -6  -3  -3 635.507 98.6530   4
  -6  -3  -2 1511.31 107.777   4
  -6  -3  -2 1739.84 130.066   1
  -6  -3  -1 1750.39 134.795   1
  -6  -3   0 4450.34 163.462   1
  -6  -3   1 5778.50 180.478   1
  -6  -3   2 181.570 111.666   1
  -6  -3   3 1639.21 133.518   1
  -6  -3   4 7186.55 214.521   1
  -6  -3   5 2087.36 150.012   1
  -6  -3   7 1679.82 147.430   1
  -6  -3   9 1313.20 146.567   1
  -6  -2 -10-122.680 126.105   4
  -6  -2  -9 2729.52 170.438   4
  -6  -2  -8 4006.50 186.153   4
  -6  -2  -7 4104.30 181.557   4
  -6  -2  -6 32.9775 111.179   4
  -6  -2  -5 1095.29 128.431   4
  -6  -2  -4 3514.12 149.955   4
  -6  -2  -3 1628.92 125.379   4
  -6  -2  -2 1041.99 108.535   4
  -6  -2  -1 1341.46 107.542   4
  -6  -2   0 2306.14 122.537   4
  -6  -2   1 2792.61 136.019   1
  -6  -2   1 2874.22 129.615   4
  -6  -2   2 6.08223 101.363   1
  -6  -2   3 8317.13 209.322   1
  -6  -2   3 9037.37 198.140   4
  -6  -2   4 2198.74 129.207   4
  -6  -2   4 1998.66 139.326   1
  -6  -2   5 36.8618 104.214   1
  -6  -2   6 563.393 116.862   1
  -6  -2   7 245.446 115.425   1
  -6  -2   8 387.896 119.651   1
  -6  -1 -10 501.145 149.829   4
  -6  -1  -9-208.130 149.948   4
  -6  -1  -8 2739.70 180.371   4
  -6  -1  -7 174.200 129.646   4
  -6  -1  -6 568.761 125.615   4
  -6  -1  -5 2420.96 147.707   4
  -6  -1  -4 2699.78 151.779   4
  -6  -1  -3 3792.19 169.340   4
  -6  -1  -2 7342.38 207.321   4
  -6  -1  -1 18207.3 287.950   4
  -6  -1   2 273.946 103.334   4
  -6  -1   3 1602.68 130.847   4
  -6  -1   4 891.308 116.464   4
  -6  -1   5 224.280 115.562   4
  -6  -1   6 4559.86 183.834   4
  -6  -1   7 439.749 119.947   4
  -6  -1   8 2789.91 166.209   4
  -6   0  -9 1175.22 169.364   4
  -6   0  -8 2323.02 185.685   4
  -6   0  -7 81.1153 138.764   4
  -6   0  -6 1740.58 154.236   4
  -6   0  -5 1944.77 154.831   4
  -6   0  -3 2957.49 159.062   4
  -6   0  -1 235.665 114.896   4
  -6   0   0 107.777 112.807   4
  -6   0   2 2767.27 156.437   4
  -6   0   3 1493.89 148.051   4
  -6   0   4 3163.48 168.542   4
  -6   0   5 1589.59 153.228   4
  -6   0   6 3350.23 181.424   4
  -6   0   7 154.197 129.334   4
  -6   0   8 2606.49 174.132   4
  -6   1  -7-6.29286 152.925   4
  -6   1  -6 3947.66 203.237   4
  -6   1  -4 1678.46 160.425   4
  -6   1  -2 165.658 125.562   4
  -6   1   0 5374.08 209.622   4
  -6   1   3 5269.06 209.763   4
  -6   2  -3 401.626 141.055   4
  -6   2  -1 4595.07 216.742   4
  -5  -8  -6 731.208 166.613   1
  -5  -8  -5 594.449 167.888   1
  -5  -8  -4 374.398 167.038   1
  -5  -8  -3 1685.25 190.501   1
  -5  -8  -1 613.121 163.553   1
  -5  -8   0 1410.38 176.401   1
  -5  -7  -9 601.556 178.486   1
  -5  -7  -5 7.22152 153.078   1
  -5  -7  -4 1420.69 173.969   1
  -5  -7  -3 2031.92 189.234   1
  -5  -7  -2 3031.51 194.688   1
  -5  -7   1 576.265 136.391   1
  -5  -7   2 224.990 132.267   1
  -5  -7   2 198.873 140.719   3
  -5  -7   3 2900.09 180.092   1
  -5  -7   4 371.027 134.357   3
  -5  -7   5 1273.85 162.452   1
  -5  -7   5 1400.35 155.847   3
  -5  -6  -8 3836.65 220.782   1
  -5  -6  -7 563.525 156.891   1
  -5  -6  -6 3316.68 196.064   1
  -5  -6  -5 2062.39 180.699   1
  -5  -6  -4 4292.63 210.757   1
  -5  -6  -2 6329.31 229.200   1
  -5  -6  -1 4142.91 209.510   1
  -5  -6   0 8257.39 238.211   1
  -5  -6   2 2372.22 160.246   1
  -5  -6   3 2043.31 159.418   1
  -5  -6   4 426.830 130.421   1
  -5  -6   5 2098.74 153.604   3
  -5  -6   5 2526.23 168.268   1
  -5  -6   6 735.654 144.187   1
  -5  -6   6 931.531 131.172   3
  -5  -6   7 498.576 147.440   1
  -5  -5 -12 3285.62 213.282   1
  -5  -5 -12 2521.16 176.947   4
  -5  -5 -11 1151.89 135.280   4
  -5  -5 -11 1416.08 177.254   1
  -5  -5 -10 348.459 162.629   1
  -5  -5  -9 2579.59 190.471   1
  -5  -5  -6 2060.12 160.543   1
  -5  -5  -5 1852.15 161.015   1
  -5  -5  -4 6253.72 224.213   1
  -5  -5  -3 5560.48 211.827   1
  -5  -5  -1 5095.40 193.503   1
  -5  -5   0 3467.41 170.798   1
  -5  -5   1 1079.83 137.740   1
  -5  -5   2 4753.61 188.975   1
  -5  -5   3 8941.52 229.071   1
  -5  -5   4 377.834 120.926   1
  -5  -5   5 4625.18 197.092   1
  -5  -5   6 884.589 138.047   1
  -5  -5   7 4009.93 199.730   1
  -5  -5   8 3145.93 189.074   1
  -5  -5   9 1975.22 174.295   1
  -5  -4 -13 1674.35 167.986   4
  -5  -4 -12 550.307 137.036   4
  -5  -4 -11 141.389 120.621   4
  -5  -4 -11-84.4741 131.268   1
  -5  -4 -10 6326.68 206.659   4
  -5  -4 -10 6723.01 237.993   1
  -5  -4  -9 4006.77 170.850   4
  -5  -4  -9 4699.78 213.324   1
  -5  -4  -8 26.3509 96.8790   4
  -5  -4  -8 19.3105 126.172   1
  -5  -4  -7 4561.29 197.417   1
  -5  -4  -7 3755.13 144.199   4
  -5  -4  -6 5025.83 191.227   1
  -5  -4  -6 4068.53 137.709   4
  -5  -4  -5 1524.32 139.370   1
  -5  -4  -5 1394.78 99.0420   4
  -5  -4  -4 6163.74 197.883   1
  -5  -4  -3 3175.01 164.584   1
  -5  -4  -2 1192.90 134.935   1
  -5  -4  -1 1714.30 132.828   1
  -5  -4   1 5141.73 179.824   1
  -5  -4   2 11793.1 240.204   1
  -5  -4   3 9607.98 229.677   1
  -5  -4   4 3730.18 168.667   1
  -5  -4   5 7624.80 219.084   1
  -5  -4   6 1856.34 145.575   1
  -5  -4   7 2280.20 162.378   1
  -5  -4   8 2075.77 159.788   1
  -5  -4   9 961.332 142.338   1
  -5  -4  10 1423.70 158.821   1
  -5  -3 -13 1340.90 164.359   4
  -5  -3 -10 1252.86 139.933   4
  -5  -3  -9 3042.97 162.153   4
  -5  -3  -9 2703.87 167.801   1
  -5  -3  -8 218.436 120.828   1
  -5  -3  -8 133.760 112.183   4
  -5  -3  -7 1619.22 138.189   1
  -5  -3  -7 1450.62 123.816   4
  -5  -3  -5 289.032 85.1367   4
  -5  -3  -5 355.085 96.3944   1
  -5  -3  -4 6065.08 179.300   1
  -5  -3  -4 6175.49 153.924   4
  -5  -3  -1 10202.3 208.125   1
  -5  -3  -1 9668.27 156.979   4
  -5  -3   1 8020.29 136.402   4
  -5  -3   1 7543.81 184.604   1
  -5  -3   2 10799.5 156.164   4
  -5  -3   2 11213.5 220.488   1
  -5  -3   3 3187.29 151.267   1
  -5  -3   5 254.699 110.648   1
  -5  -3   6 1201.89 127.555   1
  -5  -3   7 1017.28 130.428   1
  -5  -3   8 1110.96 138.886   1
  -5  -3  10 1464.24 151.979   1
  -5  -3  11 616.159 137.512   1
  -5  -2 -13 1678.48 175.049   4
  -5  -2 -12 568.039 148.312   4
  -5  -2 -11 184.348 133.301   4
  -5  -2 -10 3589.02 192.765   4
  -5  -2  -9 267.018 121.898   4
  -5  -2  -8 2284.59 135.356   1
  -5  -2  -8 3083.86 158.045   4
  -5  -2  -7 3351.62 147.181   1
  -5  -2  -7 3195.87 151.642   4
  -5  -2  -6 3550.44 142.387   1
  -5  -2  -6 3624.26 151.611   4
  -5  -2  -5 396.160 88.7964   1
  -5  -2  -5 291.093 96.4585   4
  -5  -2  -4 10291.7 197.393   4
  -5  -2  -4 9410.66 175.351   1
  -5  -2  -3 7404.37 171.645   4
  -5  -2  -3 7681.62 169.030   1
  -5  -2  -2 3736.99 137.548   1
  -5  -2  -2 3654.40 130.005   4
  -5  -2  -1 1363.45 105.014   1
  -5  -2  -1 1392.50 96.9174   4
  -5  -2   1 4981.63 147.517   1
  -5  -2   1 5095.47 131.668   4
  -5  -2   2 5711.63 164.005   1
  -5  -2   2 5989.07 142.989   4
  -5  -2   3 88.6801 93.8623   1
  -5  -2   3 25.8124 75.0374   4
  -5  -2   4 1527.39 120.751   1
  -5  -2   4 1741.53 106.370   4
  -5  -2   5 1147.41 120.074   1
  -5  -2   5 944.408 92.5590   4
  -5  -2   6 2971.40 130.008   4
  -5  -2   6 2503.46 145.034   1
  -5  -2   8 9795.98 241.859   1
  -5  -2   8 10496.9 220.374   4
  -5  -2   9 686.197 128.258   1
  -5  -2  10 1681.49 154.658   1
  -5  -2  11 1247.17 147.255   1
  -5  -1 -12 528.692 163.424   4
  -5  -1 -11 685.000 150.192   4
  -5  -1 -10 251.594 126.255   4
  -5  -1  -9 183.809 127.204   4
  -5  -1  -8 5837.88 208.786   4
  -5  -1  -7 1675.02 142.337   4
  -5  -1  -6 226.623 107.548   4
  -5  -1  -5 4090.29 155.147   4
  -5  -1  -4 987.850 112.258   4
  -5  -1  -2 7463.51 144.376   1
  -5  -1  -2 7450.57 175.943   4
  -5  -1  -1 3802.67 117.451   1
  -5  -1  -1 3748.96 146.244   4
  -5  -1   0 2081.18 96.7652   1
  -5  -1   0 2273.16 122.915   4
  -5  -1   1 2138.47 101.468   1
  -5  -1   1 2473.47 123.483   4
  -5  -1   2 2700.98 117.739   1
  -5  -1   2 2843.52 125.490   4
  -5  -1   3 1353.08 109.086   4
  -5  -1   4 3792.52 143.625   1
  -5  -1   4 3717.68 147.558   4
  -5  -1   5 1224.90 114.413   1
  -5  -1   5 1578.54 121.555   4
  -5  -1   6 1129.40 117.706   1
  -5  -1   6 1418.04 121.307   4
  -5  -1   7 9513.47 222.460   4
  -5  -1   7 9258.43 226.940   1
  -5  -1   8 2587.65 157.482   1
  -5  -1   8 2291.33 143.098   4
  -5  -1   9 445.274 114.422   4
  -5  -1   9 279.089 111.274   1
  -5  -1  10 3223.77 169.560   1
  -5  -1  11 414.005 124.791   1
  -5   0 -11 1357.61 169.050   4
  -5   0 -10 1863.39 174.722   4
  -5   0  -9 893.898 152.649   4
  -5   0  -8 5370.37 214.841   4
  -5   0  -7 1967.97 158.634   4
  -5   0  -6 60.5204 114.175   4
  -5   0  -5 2846.17 156.262   4
  -5   0  -4 2487.50 143.607   4
  -5   0  -2 5996.00 177.368   4
  -5   0  -1 2239.23 145.865   4
  -5   0   0 2078.38 129.913   4
  -5   0   2 4217.04 171.236   4
  -5   0   3 24115.4 325.750   4
  -5   0   4 10271.7 236.304   4
  -5   0   5-54.4951 108.655   4
  -5   0   6 2068.81 140.191   4
  -5   0   7 2416.29 150.229   4
  -5   0   8 1844.67 140.967   1
  -5   0   8 1967.99 144.033   4
  -5   0   9 1710.31 146.974   1
  -5   0   9 1526.76 141.352   4
  -5   0  10 1222.70 143.687   4
  -5   1 -10 1931.14 192.652   4
  -5   1  -9 1723.75 185.347   4
  -5   1  -8 1925.13 180.362   4
  -5   1  -7 1692.36 161.708   4
  -5   1  -6 332.857 124.613   4
  -5   1  -5-47.2051 124.517   4
  -5   1  -3 5475.36 198.158   4
  -5   1  -2 4992.45 191.543   4
  -5   1  -1 3002.13 166.618   4
  -5   1   1 8218.91 223.929   4
  -5   1   2 3642.65 179.865   4
  -5   1   4 2715.43 163.273   4
  -5   1   5 1070.35 137.296   4
  -5   1   7 252.328 127.488   4
  -5   1   8 1769.10 154.201   4
  -5   1   9 2224.73 169.250   4
  -5   2  -8 1623.08 189.272   4
  -5   2  -7 241.898 147.531   4
  -5   2  -7 195.815 127.818   2
  -5   2  -6 2337.00 161.756   2
  -5   2  -5 885.468 149.524   4
  -5   2  -3 5901.38 222.223   4
  -5   2  -2 6257.73 222.831   4
  -5   2   2 2701.10 180.460   4
  -5   2   3 2190.10 168.280   4
  -5   2   4 1723.26 164.093   4
  -5   2   5 187.585 136.772   4
  -5   2   6 3509.83 193.076   4
  -5   2   7 1663.79 167.611   4
  -5   2   8 679.139 144.112   4
  -5   3  -5 187.820 127.033   2
  -5   3  -4 315.233 143.882   4
  -5   3  -4 476.536 134.571   2
  -5   3  -3 1990.39 172.807   4
  -5   3  -2 405.793 140.839   4
  -5   3  -1 380.096 139.433   4
  -5   3   3 2749.50 199.194   4
  -5   3   4 1.18149 145.082   4
  -5   3   5 443.149 147.567   4
  -4  -8  -7 405.106 185.040   1
  -4  -8  -6-2.11804 158.932   1
  -4  -8  -5 2380.43 195.635   1
  -4  -8  -3 731.604 160.082   1
  -4  -8  -2 260.793 162.728   1
  -4  -8  -1 2722.76 194.471   1
  -4  -8  -1 2492.70 190.426   3
  -4  -8   1 1489.61 171.192   3
  -4  -8   2 221.582 141.072   1
  -4  -8   2 391.050 152.143   3
  -4  -7 -10 2681.94 240.473   1
  -4  -7  -8 3160.43 218.321   1
  -4  -7  -7 641.869 175.694   1
  -4  -7  -6 208.848 137.646   1
  -4  -7  -5 3889.25 208.708   1
  -4  -7  -2 6247.53 237.183   1
  -4  -7  -2 6406.03 232.750   3
  -4  -7  -1 3157.50 193.181   3
  -4  -7   0 1839.43 172.841   1
  -4  -7   1 2789.04 179.643   3
  -4  -7   1 2536.18 173.410   1
  -4  -7   2 547.070 140.698   3
  -4  -7   3 769.720 139.204   1
  -4  -7   3 765.517 145.059   3
  -4  -7   4 1852.91 168.830   3
  -4  -7   4 1576.03 159.905   1
  -4  -7   5 400.872 142.367   1
  -4  -7   5 180.485 136.376   3
  -4  -7   6 2557.32 185.054   1
  -4  -7   6 2473.24 169.970   3
  -4  -6 -12 77.1466 163.221   1
  -4  -6 -11 1706.94 209.312   1
  -4  -6  -9 948.256 169.747   1
  -4  -6  -8 2298.81 189.899   1
  -4  -6  -7 395.335 159.688   1
  -4  -6  -6 4193.45 197.843   1
  -4  -6  -5 3097.51 190.956   1
  -4  -6  -4 553.610 144.300   1
  -4  -6  -3 1411.52 162.868   1
  -4  -6  -2 1759.64 164.286   1
  -4  -6  -1 2408.73 164.538   3
  -4  -6  -1 2227.60 168.030   1
  -4  -6   0 2273.43 160.192   1
  -4  -6   0 2065.23 161.746   3
  -4  -6   1 1534.71 143.135   1
  -4  -6   1 1614.99 148.711   3
  -4  -6   2 948.307 133.455   1
  -4  -6   2 843.712 133.424   3
  -4  -6   3 1662.57 150.114   3
  -4  -6   3 1599.77 145.459   1
  -4  -6   4 156.749 120.280   1
  -4  -6   4 120.252 122.184   3
  -4  -6   5 2787.38 166.745   1
  -4  -6   5 2364.68 157.446   3
  -4  -6   6 5347.38 214.980   1
  -4  -6   6 4989.23 195.687   3
  -4  -6   7 3735.16 199.991   1
  -4  -6   7 3336.62 176.194   3
  -4  -6   8 362.332 144.610   1
  -4  -6   8 374.539 120.611   3
  -4  -5 -13 197.805 131.526   4
  -4  -5 -12 1054.60 161.817   1
  -4  -5 -12 699.299 132.417   4
  -4  -5 -11 3151.91 176.494   4
  -4  -5 -11 4306.14 224.825   1
  -4  -5 -10 1573.45 137.417   4
  -4  -5 -10 1850.42 186.639   1
  -4  -5  -9 182.560 99.7637   4
  -4  -5  -9 24.4658 143.206   1
  -4  -5  -8 1943.45 169.385   1
  -4  -5  -8 1549.23 118.464   4
  -4  -5  -7 400.118 142.433   1
  -4  -5  -6 918.352 132.151   1
  -4  -5  -5 2372.76 159.491   1
  -4  -5  -4 1911.20 161.103   1
  -4  -5  -3 2533.27 169.384   1
  -4  -5  -2 4377.57 189.115   1
  -4  -5  -1 2982.17 176.675   1
  -4  -5   0 15952.4 279.021   1
  -4  -5   2 9274.98 226.816   1
  -4  -5   2 9334.49 219.766   3
  -4  -5   3 15121.2 266.273   3
  -4  -5   3 14002.3 268.177   1
  -4  -5   4 3306.97 169.584   1
  -4  -5   4 3229.83 153.851   3
  -4  -5   5 626.984 130.292   1
  -4  -5   6 5071.43 196.962   1
  -4  -5   6 5006.98 176.731   3
  -4  -5   7 181.291 127.545   1
  -4  -5   7 15.8586 109.205   3
  -4  -5   8 167.104 130.085   1
  -4  -5   9 979.272 144.955   1
  -4  -5  10 354.110 144.975   1
  -4  -4 -14 3774.28 203.595   4
  -4  -4 -13 164.676 127.771   4
  -4  -4 -12 201.175 118.543   4
  -4  -4 -11 361.566 136.798   1
  -4  -4 -11 177.382 112.016   4
  -4  -4 -10 371.614 114.892   4
  -4  -4 -10 213.612 130.646   1
  -4  -4  -9 418.677 141.208   1
  -4  -4  -8 4484.70 197.510   1
  -4  -4  -8 4574.31 154.702   4
  -4  -4  -7 1301.92 104.451   4
  -4  -4  -7 1031.94 139.727   1
  -4  -4  -6 6170.76 149.702   4
  -4  -4  -6 6940.66 213.790   1
  -4  -4  -5 6235.72 135.428   4
  -4  -4  -5 6427.58 199.257   1
  -4  -4  -4 1029.21 74.1097   4
  -4  -4  -4 1476.66 134.293   1
  -4  -4  -3 6386.38 110.576   4
  -4  -4  -3 7553.41 205.886   1
  -4  -4  -2 2108.73 150.270   1
  -4  -4  -2 1827.68 61.6236   4
  -4  -4  -1 3016.36 142.348   1
  -4  -4   0 3062.80 141.930   1
  -4  -4   1 1384.39 126.719   1
  -4  -4   2 2447.23 138.649   1
  -4  -4   3 7202.13 198.767   1
  -4  -4   4 3118.84 131.917   3
  -4  -4   4 3181.46 157.566   1
  -4  -4   5 14087.3 266.719   1
  -4  -4   5 12896.4 224.795   3
  -4  -4   6 241.550 124.235   1
  -4  -4   6 162.193 92.5307   3
  -4  -4   7 6868.71 209.233   1
  -4  -4   7 6919.03 179.922   3
  -4  -4   8 3253.88 172.147   1
  -4  -4   9 1412.01 148.611   1
  -4  -4  10 922.361 146.526   1
  -4  -4  11 3742.76 195.481   1
  -4  -3 -14 1584.96 167.689   4
  -4  -3 -13 760.673 140.774   4
  -4  -3 -12 655.235 138.655   4
  -4  -3 -11 1534.90 141.244   4
  -4  -3 -10 3294.26 167.100   4
  -4  -3  -9 13113.1 274.032   1
  -4  -3  -9 13003.2 246.706   4
  -4  -3  -8 9389.09 203.298   4
  -4  -3  -8 10761.1 251.439   1
  -4  -3  -7 101.032 103.198   1
  -4  -3  -7 109.315 89.0725   4
  -4  -3  -6 8808.30 179.650   4
  -4  -3  -6 9604.62 218.392   1
  -4  -3  -5 3493.46 135.137   1
  -4  -3  -5 3723.86 126.091   4
  -4  -3  -4 412.970 67.3475   4
  -4  -3  -4 652.967 102.788   1
  -4  -3  -3 8744.05 192.384   1
  -4  -3  -3 7465.42 134.320   4
  -4  -3  -2 4788.45 106.653   4
  -4  -3  -2 4967.62 162.005   1
  -4  -3  -1 8363.06 180.043   1
  -4  -3  -1 8982.32 122.662   4
  -4  -3   0 8748.41 112.381   4
  -4  -3   0 8787.07 186.692   1
  -4  -3   1 3217.71 74.7373   4
  -4  -3   1 3212.25 136.410   1
  -4  -3   2 1464.78 58.4863   4
  -4  -3   2 1705.67 115.985   1
  -4  -3   3 17127.7 259.944   1
  -4  -3   3 17865.4 165.760   4
  -4  -3   4 5960.81 172.707   1
  -4  -3   4 5623.71 108.212   4
  -4  -3   5 125.349 103.691   1
  -4  -3   6 5891.77 186.412   1
  -4  -3   7 732.118 117.589   1
  -4  -3   8 1782.64 145.200   1
  -4  -3   9 380.282 122.019   1
  -4  -3  10 3014.79 171.321   1
  -4  -3  11 11210.3 285.126   1
  -4  -3  12 1692.19 164.851   1
  -4  -2 -14 2133.74 184.513   4
  -4  -2 -13 143.604 139.002   4
  -4  -2 -11 222.102 124.876   4
  -4  -2 -10 5939.74 209.845   4
  -4  -2  -9 1555.01 137.605   4
  -4  -2  -8 63.4973 95.3076   1
  -4  -2  -8 201.103 111.562   4
  -4  -2  -7 4729.91 148.738   4
  -4  -2  -7 5058.98 161.136   1
  -4  -2  -6 3006.43 128.323   1
  -4  -2  -6 3031.97 129.939   4
  -4  -2  -5 1318.53 96.3201   1
  -4  -2  -5 1167.12 95.2529   4
  -4  -2  -4 3523.94 111.961   1
  -4  -2  -4 4208.22 131.257   4
  -4  -2  -3 13709.2 199.902   1
  -4  -2  -3 13425.7 184.048   4
  -4  -2  -2 7123.68 154.217   1
  -4  -2  -2 6863.27 135.232   4
  -4  -2   0 3865.74 99.1775   4
  -4  -2   0 3950.66 120.582   1
  -4  -2   1 1540.21 96.7279   1
  -4  -2   1 1584.09 77.6287   4
  -4  -2   2 10224.4 186.180   1
  -4  -2   2 9863.65 145.839   4
  -4  -2   3 2076.19 88.4637   4
  -4  -2   3 1896.66 111.661   1
  -4  -2   4 2011.30 92.3112   4
  -4  -2   4 1889.70 117.908   1
  -4  -2   5 9233.44 201.636   1
  -4  -2   6 1015.96 114.708   1
  -4  -2   7 4803.51 173.789   1
  -4  -2   8 10008.4 230.918   1
  -4  -2   9 875.306 128.266   1
  -4  -2  12 236.843 132.376   1
  -4  -1 -14 582.932 158.383   4
  -4  -1 -13 1058.88 153.854   4
  -4  -1 -11 665.606 144.793   4
  -4  -1 -10 1164.01 157.222   4
  -4  -1  -9 2866.30 152.886   4
  -4  -1  -8 873.599 121.385   4
  -4  -1  -7 3103.08 151.964   4
  -4  -1  -6 6133.42 174.257   4
  -4  -1  -5 545.159 94.1368   4
  -4  -1  -4 335.176 82.9325   4
  -4  -1  -3 3770.99 126.674   4
  -4  -1  -2 3972.20 124.995   4
  -4  -1  -2 4049.40 102.037   1
  -4  -1  -1 6506.45 122.772   1
  -4  -1  -1 6332.02 142.052   4
  -4  -1   0 5019.35 115.516   1
  -4  -1   0 4578.87 126.840   4
  -4  -1   1 15313.9 188.356   1
  -4  -1   1 15260.9 202.495   4
  -4  -1   2 13717.6 190.069   1
  -4  -1   2 13615.2 197.191   4
  -4  -1   3 5903.75 142.766   1
  -4  -1   3 6366.26 147.486   4
  -4  -1   4 403.581 82.2469   4
  -4  -1   4 208.492 80.9040   1
  -4  -1   5 5074.66 142.062   4
  -4  -1   5 4518.64 144.060   1
  -4  -1   6 174.116 94.1673   1
  -4  -1   7 3199.96 147.059   1
  -4  -1   8 1902.45 137.538   1
  -4  -1   9 3154.64 163.441   1
  -4  -1  10 3104.22 168.256   1
  -4  -1  11 1788.76 154.580   1
  -4  -1  12 1632.12 157.577   1
  -4   0 -13 2016.32 198.778   4
  -4   0 -12 1522.03 179.918   4
  -4   0 -11 940.576 152.840   4
  -4   0 -10 1904.42 158.447   4
  -4   0  -9 3129.42 172.961   4
  -4   0  -8 348.614 122.756   4
  -4   0  -7 1161.78 137.230   4
  -4   0  -6 3130.78 153.984   4
  -4   0  -5 3636.89 151.057   4
  -4   0  -4 7049.85 183.449   4
  -4   0  -3 5831.13 163.542   4
  -4   0  -2 4107.39 143.624   4
  -4   0  -1 10117.0 198.997   4
  -4   0   0 7901.05 109.129   1
  -4   0   0 7650.94 175.479   4
  -4   0   1 2801.53 86.4086   1
  -4   0   1 2754.89 126.870   4
  -4   0   2 11912.8 210.596   4
  -4   0   2 11986.0 163.272   1
  -4   0   3 1906.19 93.3314   1
  -4   0   3 1735.09 115.416   4
  -4   0   4 1222.61 90.6876   1
  -4   0   4 1511.09 111.923   4
  -4   0   5 1476.10 105.713   1
  -4   0   5 1450.45 112.992   4
  -4   0   6 472.909 96.1236   1
  -4   0   8 7007.22 199.779   1
  -4   0   9 3080.53 161.181   1
  -4   0  10 1273.95 135.070   1
  -4   0  11 1788.88 158.219   1
  -4   0  12 477.260 134.822   1
  -4   1 -12 3909.30 223.125   4
  -4   1 -11 110.970 146.363   4
  -4   1 -10 3503.16 196.847   4
  -4   1  -9 3109.67 187.237   4
  -4   1  -8 429.090 109.870   2
  -4   1  -7 4395.85 192.856   4
  -4   1  -7 3685.10 154.750   2
  -4   1  -6 488.193 120.319   4
  -4   1  -6 303.820 98.4663   2
  -4   1  -5 2290.04 149.182   4
  -4   1  -4 3787.87 158.401   4
  -4   1  -3 60.5379 102.300   4
  -4   1  -2 4476.23 174.912   4
  -4   1  -1 18599.8 284.117   4
  -4   1   1 4109.00 158.130   4
  -4   1   2 5012.44 169.817   4
  -4   1   3 2657.68 147.671   4
  -4   1   4-25.6670 105.711   4
  -4   1   5 8193.11 214.030   4
  -4   1   5 7374.67 169.411   1
  -4   1   6 6223.85 194.113   4
  -4   1   6 6028.43 171.871   1
  -4   1   7 12079.3 254.365   4
  -4   1   7 11072.2 236.899   1
  -4   1   8 814.270 119.017   1
  -4   1   9 378.541 117.582   4
  -4   1   9 162.905 110.109   1
  -4   1  10 4540.79 187.024   1
  -4   2 -11 2351.47 199.092   4
  -4   2 -10 3786.51 215.959   4
  -4   2  -9 416.410 152.564   4
  -4   2  -8 2388.38 184.937   4
  -4   2  -6 1846.06 156.501   4
  -4   2  -6 1515.21 136.405   2
  -4   2  -5 3437.38 179.236   4
  -4   2  -5 2894.54 159.023   2
  -4   2  -4 6258.00 206.551   4
  -4   2  -3 3143.05 169.739   4
  -4   2  -2 4306.70 186.348   4
  -4   2  -1 5221.03 194.307   4
  -4   2   0 2170.98 151.914   4
  -4   2   2 3281.43 164.056   4
  -4   2   4 4090.40 181.994   4
  -4   2   6 6451.93 214.597   4
  -4   2   7 2113.06 156.894   4
  -4   2   8 2544.29 164.193   4
  -4   2   9 733.865 131.661   4
  -4   2  10 2795.90 174.555   4
  -4   3  -8 1698.03 187.306   4
  -4   3  -7 7149.86 250.797   4
  -4   3  -7 7150.09 242.370   2
  -4   3  -5 820.889 145.179   4
  -4   3  -5 634.190 124.365   2
  -4   3  -2 324.247 125.602   4
  -4   3   1 8216.91 243.512   4
  -4   3   2 5126.49 215.371   4
  -4   3   4 6291.91 225.629   4
  -4   3   5 2591.81 180.991   4
  -4   3   7 2119.82 169.113   4
  -4   3   9 221.936 139.316   4
  -4   4  -5 2.57562 125.326   2
  -4   4  -5 278.861 146.057   4
  -4   4  -4 1110.50 155.587   4
  -4   4  -2 3373.98 193.670   2
  -4   4  -2 3402.44 191.461   4
  -4   4   1 309.261 140.099   4
  -4   4   2 379.753 146.123   4
  -4   4   4 2914.08 199.570   4
  -4   4   5 1391.10 172.740   4
  -4   4   6 2237.48 186.124   4
  -3  -8  -7 3471.22 225.150   1
  -3  -8  -6 1629.62 198.032   1
  -3  -8  -4 2960.25 195.127   3
  -3  -8  -4 2502.41 186.694   1
  -3  -8  -3 1886.45 177.102   3
  -3  -8  -3 1708.86 176.213   1
  -3  -8  -2 261.059 145.069   3
  -3  -8   0 1542.31 169.956   1
  -3  -8   0 1954.51 176.596   3
  -3  -8   1 234.237 146.489   1
  -3  -8   1 464.422 149.611   3
  -3  -8   2 562.408 150.283   3
  -3  -8   2 138.477 132.493   1
  -3  -8   3 573.157 145.655   1
  -3  -7  -8 2801.84 206.029   1
  -3  -7  -6 804.788 152.532   1
  -3  -7  -5 208.729 122.690   1
  -3  -7  -4 891.609 143.830   1
  -3  -7  -3 2240.49 166.134   3
  -3  -7  -3 1740.78 165.564   1
  -3  -7  -1 3951.17 193.254   1
  -3  -7  -1 3429.55 194.349   3
  -3  -7   1 408.192 138.438   3
  -3  -7   2 1914.68 162.185   3
  -3  -7   2 1877.89 149.968   1
  -3  -7   3 513.316 139.263   3
  -3  -7   4 1540.32 161.389   3
  -3  -7   4 1589.50 154.010   1
  -3  -7   5 1829.31 163.829   3
  -3  -7   5 2329.75 177.357   1
  -3  -7   6 212.830 136.494   3
  -3  -7   6 168.943 135.664   1
  -3  -7   7 1909.44 171.154   1
  -3  -7   7 2037.99 171.892   3
  -3  -6 -11 288.058 131.229   4
  -3  -6 -11 632.257 179.081   1
  -3  -6 -10 3492.44 223.626   1
  -3  -6 -10 3082.00 185.368   4
  -3  -6  -9 833.364 165.629   1
  -3  -6  -8 348.550 150.388   1
  -3  -6  -7 949.664 153.550   1
  -3  -6  -6 1080.02 152.862   1
  -3  -6  -5 1008.29 138.850   1
  -3  -6  -4 4292.88 193.567   1
  -3  -6  -2 2520.74 168.272   1
  -3  -6  -2 3116.37 173.186   3
  -3  -6  -1 7656.53 226.921   1
  -3  -6  -1 7390.27 219.535   3
  -3  -6   0 1935.68 158.525   1
  -3  -6   0 2049.51 161.502   3
  -3  -6   1 1293.13 143.497   3
  -3  -6   1 1222.22 135.165   1
  -3  -6   2 2578.64 150.768   1
  -3  -6   2 2236.61 156.573   3
  -3  -6   3 1288.26 139.197   3
  -3  -6   3 1244.77 138.135   1
  -3  -6   4 5125.94 191.319   1
  -3  -6   4 5319.29 198.773   3
  -3  -6   5 921.576 133.348   1
  -3  -6   5 940.139 139.970   3
  -3  -6   6 1102.54 147.971   1
  -3  -6   6 733.092 135.293   3
  -3  -6   7 2727.32 174.761   1
  -3  -6   7 3228.82 180.974   3
  -3  -6   8 1788.38 155.150   3
  -3  -6   8 1940.15 167.269   1
  -3  -6   9 1541.67 153.723   3
  -3  -6   9 1302.41 159.886   1
  -3  -5 -12 436.769 129.661   4
  -3  -5 -11 432.186 125.156   4
  -3  -5 -10 9024.00 277.815   1
  -3  -5 -10 7701.25 220.751   4
  -3  -5  -9 1934.50 181.859   1
  -3  -5  -9 2060.87 138.375   4
  -3  -5  -7-43.7313 87.3874   4
  -3  -5  -7 112.102 128.533   1
  -3  -5  -6 959.581 91.0938   4
  -3  -5  -6 1181.06 145.086   1
  -3  -5  -5 8610.62 228.227   1
  -3  -5  -5 7782.36 156.814   4
  -3  -5  -4 1481.46 85.6889   4
  -3  -5  -4 1832.80 144.764   1
  -3  -5  -2 5152.00 176.303   3
  -3  -5  -2 5535.62 186.609   1
  -3  -5   0 4817.42 181.916   3
  -3  -5   0 4694.38 174.160   1
  -3  -5   1 16992.1 278.091   1
  -3  -5   1 17739.8 282.573   3
  -3  -5   2 5085.65 179.474   1
  -3  -5   2 5103.41 178.319   3
  -3  -5   3 4111.02 162.075   3
  -3  -5   3 3980.73 161.405   1
  -3  -5   4 1814.25 143.359   1
  -3  -5   4 1867.34 138.631   3
  -3  -5   5 1208.01 133.023   1
  -3  -5   5 1156.71 127.364   3
  -3  -5   6 158.140 111.873   3
  -3  -5   6 132.717 116.651   1
  -3  -5   7 1139.11 141.316   1
  -3  -5   7 1250.04 129.563   3
  -3  -5   8 971.039 129.260   3
  -3  -5   9 1057.31 137.924   3
  -3  -5  10 2525.38 172.653   1
  -3  -5  11 683.902 147.045   1
  -3  -4 -13 1478.16 155.324   4
  -3  -4 -10 3059.08 150.363   4
  -3  -4 -10 2862.24 181.975   1
  -3  -4  -9 444.459 134.494   1
  -3  -4  -8 270.017 87.8606   4
  -3  -4  -7 1820.27 103.514   4
  -3  -4  -7 2140.94 150.102   1
  -3  -4  -6 7129.68 211.238   1
  -3  -4  -6 5663.44 135.914   4
  -3  -4  -5 4459.76 162.653   1
  -3  -4  -5 4268.05 113.350   4
  -3  -4  -4 10774.1 144.797   4
  -3  -4  -4 11909.3 233.219   1
  -3  -4  -3 1512.72 62.9520   4
  -3  -4  -3 1863.80 136.074   1
  -3  -4  -2 5218.10 174.451   1
  -3  -4  -2 4508.36 71.3324   4
  -3  -4  -1 10129.4 209.231   1
  -3  -4  -1 10129.5 203.350   3
  -3  -4   0 3799.82 154.673   3
  -3  -4   0 3772.97 152.371   1
  -3  -4   1 14574.9 239.745   1
  -3  -4   1 13956.5 224.562   3
  -3  -4   2 6693.50 177.327   1
  -3  -4   2 7033.50 170.024   3
  -3  -4   3 870.768 110.140   1
  -3  -4   3 728.088 96.1511   3
  -3  -4   4 3113.88 147.685   1
  -3  -4   4 2854.12 127.758   3
  -3  -4   5 4668.61 150.738   3
  -3  -4   5 4863.91 171.864   1
  -3  -4   6 12795.6 257.587   1
  -3  -4   6 12333.2 225.078   3
  -3  -4   7 17045.5 265.960   3
  -3  -4   7 16544.1 295.634   1
  -3  -4   8 2432.39 139.499   3
  -3  -4   8 2263.76 157.012   1
  -3  -4   9 2158.40 150.787   1
  -3  -4  10 1361.38 149.000   1
  -3  -4  11-0.35268 129.850   1
  -3  -4  12 2263.58 177.698   1
  -3  -3 -15 580.093 156.231   4
  -3  -3 -13 144.154 130.477   4
  -3  -3 -12 585.427 126.801   4
  -3  -3 -11 3834.50 175.707   4
  -3  -3 -10 5375.37 183.974   4
  -3  -3  -9 3549.99 148.001   4
  -3  -3  -9 3102.56 163.431   1
  -3  -3  -8 3932.87 142.008   4
  -3  -3  -8 4206.37 173.749   1
  -3  -3  -7 950.856 117.635   1
  -3  -3  -7 922.885 93.9806   4
  -3  -3  -6 2079.89 130.505   1
  -3  -3  -6 1846.03 98.3812   4
  -3  -3  -5 16697.6 245.175   1
  -3  -3  -5 15922.6 194.425   4
  -3  -3  -4 4962.80 107.556   4
  -3  -3  -4 5954.15 158.589   1
  -3  -3  -3 1360.96 105.513   1
  -3  -3  -3 1218.90 61.9309   4
  -3  -3  -2 505.588 94.0327   1
  -3  -3  -2 432.308 47.7009   4
  -3  -3  -1 5075.13 66.4630   4
  -3  -3  -1 5492.19 142.837   1
  -3  -3   0 4523.60 45.5562   4
  -3  -3   0 3871.54 41.7782   4
  -3  -3   1 4491.92 33.9440   4
  -3  -3   1 7952.14 165.768   1
  -3  -3   2 3250.03 45.7328   4
  -3  -3   2 3369.41 110.985   3
  -3  -3   3 6698.37 139.804   3
  -3  -3   3 7014.28 168.835   1
  -3  -3   4 4749.30 155.261   1
  -3  -3   4 4483.40 119.467   3
  -3  -3   5 2068.31 97.1122   3
  -3  -3   5 2069.58 128.660   1
  -3  -3   6 9043.40 163.552   3
  -3  -3   6 9338.91 212.114   1
  -3  -3   7 3783.90 120.693   3
  -3  -3   7 3761.75 164.105   1
  -3  -3   8 863.572 94.2044   3
  -3  -3   8 670.458 123.807   1
  -3  -3   9 4873.13 181.501   1
  -3  -3  10 984.791 132.589   1
  -3  -3  11 773.549 135.108   1
  -3  -3  12 5859.93 223.144   1
  -3  -3  13 1780.95 173.805   1
  -3  -2 -15 41.2805 150.296   4
  -3  -2 -14 757.545 150.104   4
  -3  -2 -12 451.524 131.208   4
  -3  -2 -10 1635.71 136.714   4
  -3  -2  -9 4298.17 162.740   4
  -3  -2  -8 78.1792 99.0392   4
  -3  -2  -8 152.478 97.3702   1
  -3  -2  -7 32789.7 336.215   1
  -3  -2  -7 32247.1 328.350   4
  -3  -2  -6 6086.05 154.951   1
  -3  -2  -6 6204.22 155.185   4
  -3  -2  -5 21481.6 247.215   1
  -3  -2  -5 20290.8 221.251   4
  -3  -2  -4 4246.48 110.432   4
  -3  -2  -4 4123.05 114.018   1
  -3  -2  -3 8449.77 152.818   1
  -3  -2  -3 7994.15 130.643   4
  -3  -2  -2 4062.88 94.2032   4
  -3  -2  -2 4642.17 121.252   1
  -3  -2  -1 2839.84 75.4189   4
  -3  -2  -1 2789.38 102.478   1
  -3  -2   0 4580.77 123.949   1
  -3  -2   0 4619.89 83.0829   4
  -3  -2   1 31154.0 274.683   1
  -3  -2   1 30925.3 184.019   4
  -3  -2   2 11475.5 180.915   1
  -3  -2   2 11738.5 123.807   4
  -3  -2   3 228.830 80.8666   1
  -3  -2   4 1787.16 105.999   1
  -3  -2   5 7760.89 174.825   1
  -3  -2   6 7766.93 185.998   1
  -3  -2   7 11349.8 148.180   3
  -3  -2   7 11712.8 233.272   1
  -3  -2   8 1748.45 137.043   1
  -3  -2   9 5092.45 185.391   1
  -3  -2  10 1594.72 141.633   1
  -3  -2  11 471.289 127.661   1
  -3  -2  12 3478.12 187.411   1
  -3  -2  13 1142.28 153.610   1
  -3  -1 -14 1566.40 175.333   4
  -3  -1 -12 2078.37 158.764   4
  -3  -1 -11 3107.30 170.582   4
  -3  -1 -10 1689.76 146.207   4
  -3  -1  -9 2590.50 156.283   4
  -3  -1  -8 11152.5 229.631   4
  -3  -1  -7 1669.21 113.260   4
  -3  -1  -7 1638.03 68.1354   2
  -3  -1  -6 9913.88 190.198   4
  -3  -1  -5 4515.82 133.938   4
  -3  -1  -5 4317.72 115.475   1
  -3  -1  -4 3057.68 91.8325   1
  -3  -1  -4 3415.93 115.817   4
  -3  -1  -3 11212.4 162.993   4
  -3  -1  -3 10343.1 133.177   1
  -3  -1  -2 329.707 63.2860   4
  -3  -1  -2 320.981 57.9077   1
  -3  -1  -1 9880.16 134.135   1
  -3  -1  -1 10390.5 146.693   4
  -3  -1   0 11904.4 149.649   4
  -3  -1   0 11158.7 145.527   1
  -3  -1   1 11365.9 152.473   1
  -3  -1   1 11514.9 149.406   4
  -3  -1   2 7830.99 128.454   4
  -3  -1   2 7925.37 138.434   1
  -3  -1   3 7873.52 149.118   1
  -3  -1   3 7892.25 136.033   4
  -3  -1   4 7230.27 155.549   1
  -3  -1   5 830.526 95.1648   1
  -3  -1   6 23834.0 290.244   1
  -3  -1   7 2634.30 136.283   1
  -3  -1   8 3460.79 154.753   1
  -3  -1   9 1181.40 128.247   1
  -3  -1  11 2783.07 164.549   1
  -3  -1  12 2604.26 171.692   1
  -3  -1  13 51.4509 135.799   1
  -3   0 -13 2292.91 179.056   4
  -3   0 -12 1171.06 153.237   4
  -3   0 -11 5153.15 215.742   4
  -3   0 -10 328.714 136.296   4
  -3   0  -9 1214.39 124.926   4
  -3   0  -8 526.288 112.938   4
  -3   0  -7 471.407 108.772   4
  -3   0  -7 282.605 71.5569   2
  -3   0  -6 1812.68 91.2584   2
  -3   0  -6 1802.95 125.099   4
  -3   0  -5 2054.98 111.526   4
  -3   0  -4 2516.01 115.426   4
  -3   0  -3 12463.8 193.926   4
  -3   0  -2 3446.48 114.507   4
  -3   0  -1 485.707 40.0159   1
  -3   0  -1 483.381 79.3876   4
  -3   0   0 9547.45 105.274   1
  -3   0   0 8852.03 157.239   4
  -3   0   1 22726.0 171.937   1
  -3   0   1 22206.6 236.166   4
  -3   0   2 8692.13 162.016   4
  -3   0   2 8259.43 128.463   1
  -3   0   3 6214.18 124.036   1
  -3   0   3 6384.31 143.674   4
  -3   0   4 2791.74 110.085   4
  -3   0   4 2765.34 102.683   1
  -3   0   5 3806.49 123.031   1
  -3   0   6 2310.97 115.528   1
  -3   0   7 3225.63 135.219   1
  -3   0   8 7909.48 199.155   1
  -3   0   9 5480.83 186.835   1
  -3   0  12 2449.43 165.403   1
  -3   1 -13 107.193 146.950   4
  -3   1 -12 4297.12 216.012   4
  -3   1 -10 1122.29 141.745   4
  -3   1  -9 2319.91 134.779   2
  -3   1  -9 2564.44 163.086   4
  -3   1  -8 1540.66 143.793   4
  -3   1  -8 1484.40 116.750   2
  -3   1  -6 102.571 79.5222   2
  -3   1  -6 264.000 109.780   4
  -3   1  -5 980.090 113.944   4
  -3   1  -4 911.736 110.128   4
  -3   1  -3 6828.59 172.307   4
  -3   1  -2 19421.6 261.815   4
  -3   1  -1 15981.4 232.861   4
  -3   1   0 11279.5 203.926   4
  -3   1   1 407.636 35.7109   1
  -3   1   2 6348.63 102.138   1
  -3   1   2 6721.84 165.084   4
  -3   1   3 435.648 59.8525   1
  -3   1   4 2540.93 101.302   1
  -3   1   4 3036.42 129.566   4
  -3   1   5 5722.80 163.074   4
  -3   1   5 5342.21 142.086   1
  -3   1   6 22594.2 277.094   1
  -3   1   7 708.009 104.283   1
  -3   1   8 3168.75 150.502   1
  -3   1   9 2530.86 151.013   1
  -3   1  10 1703.38 144.567   1
  -3   1  11 1890.14 154.466   1
  -3   1  12 373.812 129.814   1
  -3   2 -12 2547.96 192.059   4
  -3   2 -11 849.000 141.325   4
  -3   2 -10 2082.91 169.250   4
  -3   2  -9 4316.69 184.114   2
  -3   2  -9 4540.91 205.646   4
  -3   2  -8 4218.64 177.219   2
  -3   2  -8 4294.98 191.980   4
  -3   2  -7 124.101 108.549   2
  -3   2  -7 225.295 130.947   4
  -3   2  -6 3639.45 169.587   4
  -3   2  -6 3237.83 151.772   2
  -3   2  -5 157.569 117.297   4
  -3   2  -4 3414.79 159.015   4
  -3   2  -3 16831.5 273.171   4
  -3   2  -1 1460.85 126.135   4
  -3   2   0 5507.27 174.781   4
  -3   2   1 3467.62 156.899   4
  -3   2   2 4408.56 167.822   4
  -3   2   3 2481.38 142.166   4
  -3   2   3 2093.92 83.4598   1
  -3   2   4 58.6122 106.901   4
  -3   2   4 11.6405 68.2582   1
  -3   2   5 2682.80 115.313   1
  -3   2   5 2797.03 145.307   4
  -3   2   6 1444.25 130.550   4
  -3   2   6 1314.78 107.184   1
  -3   2   7 190.399 99.5592   1
  -3   2   7 397.947 112.396   4
  -3   2   8 1078.27 124.475   1
  -3   2   9 7963.77 228.751   1
  -3   2  10 3155.32 175.540   1
  -3   2  11 6567.31 229.499   1
  -3   2  12 1530.11 155.103   1
  -3   3 -11 251.491 152.139   4
  -3   3 -10 2645.50 193.222   4
  -3   3  -9 2293.99 177.217   2
  -3   3  -9 2186.72 183.454   4
  -3   3  -8 4639.85 203.482   2
  -3   3  -8 4167.92 209.581   4
  -3   3  -7 10596.2 274.484   2
  -3   3  -7 11684.8 283.808   4
  -3   3  -6 1956.78 156.728   2
  -3   3  -6 2272.19 162.654   4
  -3   3  -5 2816.50 164.029   2
  -3   3  -5 2778.46 165.656   4
  -3   3  -4 2557.81 156.025   2
  -3   3  -4 2964.65 167.646   4
  -3   3  -3 1033.74 132.682   4
  -3   3  -2 2447.84 152.662   4
  -3   3  -1 1911.06 143.425   4
  -3   3   1 10116.3 243.496   4
  -3   3   2 5230.86 197.922   4
  -3   3   3 1561.09 146.628   4
  -3   3   4 1111.69 140.762   4
  -3   3   5 6359.27 210.220   4
  -3   3   6 3406.78 178.262   4
  -3   3   7 1766.93 141.642   4
  -3   3   8 1728.82 150.013   4
  -3   4  -8 607.005 152.062   2
  -3   4  -8 594.325 153.794   4
  -3   4  -7 267.424 133.265   2
  -3   4  -7 284.888 140.794   4
  -3   4  -6 1012.45 145.926   2
  -3   4  -6 1521.19 158.502   4
  -3   4  -5 537.683 137.091   4
  -3   4  -4 232.273 125.372   2
  -3   4  -4 618.403 134.355   4
  -3   4  -3 2262.38 162.959   2
  -3   4  -3 2748.13 168.057   4
  -3   4   2 3111.71 182.803   4
  -3   4   3 2427.99 170.683   4
  -3   4   5 4190.23 201.308   4
  -3   4   6 1583.07 162.354   4
  -3   4   7 1675.75 157.483   4
  -3   4   8 2028.85 173.780   4
  -3   4   9 620.477 133.191   4
  -3   5  -5 532.059 142.469   4
  -3   5  -4 2646.43 176.681   4
  -3   5  -4 2403.44 188.489   2
  -3   5  -3 426.701 134.856   4
  -3   5  -3 245.206 137.477   2
  -3   5  -2 376.144 138.802   2
  -3   5  -2 293.253 125.358   4
  -3   5  -1 1559.21 159.782   4
  -3   5   0 1775.21 173.483   2
  -3   5   0 2039.33 173.588   4
  -3   5   2 3735.28 203.473   4
  -3   5   4 2964.83 189.534   4
  -3   5   5 1319.86 161.910   4
  -3   5   6 105.194 139.836   4
  -2  -8  -6 1585.05 182.146   1
  -2  -8  -6 1820.85 176.493   3
  -2  -8  -5 1884.14 175.202   3
  -2  -8  -5 1944.44 189.698   1
  -2  -8  -3 1278.38 161.741   3
  -2  -8  -2 1786.32 172.485   1
  -2  -8  -2 2243.70 180.642   3
  -2  -8  -1 413.563 142.761   1
  -2  -8  -1 327.311 149.616   3
  -2  -8   0 563.557 141.711   1
  -2  -7 -10 1932.39 201.122   1
  -2  -7  -9 3223.12 218.919   1
  -2  -7  -7 1141.38 166.467   1
  -2  -7  -6 7939.80 261.808   1
  -2  -7  -6 7251.41 242.416   3
  -2  -7  -5 1588.13 169.210   1
  -2  -7  -5 1841.52 162.117   3
  -2  -7  -4 429.154 136.494   3
  -2  -7  -4 33.9522 121.811   1
  -2  -7  -3 4410.25 188.022   1
  -2  -7  -3 4743.70 203.499   3
  -2  -7  -1 1852.92 159.250   3
  -2  -7  -1 2114.03 162.739   1
  -2  -7   0 1914.07 157.624   1
  -2  -7   0 1810.71 162.326   3
  -2  -7   1 1069.19 137.656   1
  -2  -7   2 914.256 131.018   1
  -2  -7   2 1272.15 157.189   3
  -2  -7   3 252.451 130.256   3
  -2  -7   3 440.030 117.589   1
  -2  -7   4-0.60050 116.333   1
  -2  -7   5 1949.85 155.382   1
  -2  -7   5 1897.28 160.528   3
  -2  -7   6 2260.37 172.298   3
  -2  -7   6 2189.58 168.309   1
  -2  -6 -12 2596.38 197.635   4
  -2  -6 -10 222.816 131.250   4
  -2  -6 -10 91.7266 148.262   1
  -2  -6  -9 527.635 137.295   4
  -2  -6  -7 1719.79 137.341   4
  -2  -6  -6 1445.66 154.320   1
  -2  -6  -5 1321.66 142.037   1
  -2  -6  -4 5754.40 198.447   1
  -2  -6  -4 6015.30 195.328   3
  -2  -6  -1 6403.13 201.421   1
  -2  -6  -1 7387.17 213.856   3
  -2  -6   0 4277.54 186.278   3
  -2  -6   0 3496.78 168.970   1
  -2  -6   2 40.9585 123.606   3
  -2  -6   2-1.84773 98.3073   1
  -2  -6   3 467.276 121.282   3
  -2  -6   3 317.799 111.068   1
  -2  -6   4 1956.80 146.396   1
  -2  -6   4 1877.10 148.390   3
  -2  -6   5 1598.22 144.131   3
  -2  -6   5 1908.81 147.678   1
  -2  -6   6 3504.98 174.096   1
  -2  -6   6 3345.20 170.799   3
  -2  -6   7 959.742 134.155   3
  -2  -6   7 705.247 138.292   1
  -2  -6   8 2479.21 169.465   1
  -2  -6   8 2340.28 159.256   3
  -2  -6   9 499.489 136.820   1
  -2  -6   9 414.907 123.940   3
  -2  -5 -13 297.027 141.502   4
  -2  -5 -12 2982.15 191.222   4
  -2  -5 -10 235.853 143.746   1
  -2  -5 -10 286.105 121.967   4
  -2  -5  -9 2441.11 151.726   4
  -2  -5  -9 2587.02 185.301   1
  -2  -5  -8 127.740 100.930   4
  -2  -5  -7 967.416 135.560   1
  -2  -5  -7 730.377 108.754   4
  -2  -5  -6 1929.44 150.287   1
  -2  -5  -6 2123.18 121.901   4
  -2  -5  -5 532.559 86.3533   4
  -2  -5  -5 687.284 115.787   1
  -2  -5  -4 1626.62 104.692   4
  -2  -5  -4 1323.09 125.003   1
  -2  -5  -4 1437.77 125.419   3
  -2  -5  -3 2878.41 112.551   4
  -2  -5  -3 2820.39 144.608   3
  -2  -5  -3 2725.85 144.168   1
  -2  -5  -1 6903.86 191.324   1
  -2  -5  -1 7087.83 192.856   3
  -2  -5   0 3746.37 153.835   1
  -2  -5   0 3923.11 169.293   3
  -2  -5   1 6643.28 201.619   3
  -2  -5   1 5660.76 166.946   1
  -2  -5   2 5630.62 185.697   3
  -2  -5   2 5481.44 172.898   1
  -2  -5   3 2396.31 140.207   3
  -2  -5   3 2379.39 132.845   1
  -2  -5   4 1387.84 126.803   1
  -2  -5   4 1747.21 133.609   3
  -2  -5   5 5480.75 179.709   3
  -2  -5   5 5466.40 183.980   1
  -2  -5   6 3776.50 167.612   1
  -2  -5   6 3461.72 157.193   3
  -2  -5   7 1082.99 135.343   1
  -2  -5   7 1014.76 121.976   3
  -2  -5   8 352.838 112.488   3
  -2  -5   8 490.613 125.530   1
  -2  -5   9 393.919 127.959   1
  -2  -5   9 262.077 109.836   3
  -2  -5  10 3018.30 173.529   1
  -2  -5  10 3125.27 158.878   3
  -2  -4 -13-8.51580 130.674   4
  -2  -4 -11 275.316 120.600   4
  -2  -4 -10 3926.06 168.038   4
  -2  -4  -8 1524.44 152.748   1
  -2  -4  -8 1591.92 116.182   4
  -2  -4  -7 4691.87 146.227   4
  -2  -4  -7 5605.61 196.545   1
  -2  -4  -6 5031.68 179.752   1
  -2  -4  -6 4561.56 135.697   4
  -2  -4  -5 10097.9 218.368   1
  -2  -4  -5 8965.88 161.341   4
  -2  -4  -4 796.828 73.2846   4
  -2  -4  -4 929.366 103.960   1
  -2  -4  -3 20559.5 264.055   3
  -2  -4  -3 20595.3 198.814   4
  -2  -4  -3 21214.6 277.477   1
  -2  -4  -2 5586.09 172.744   1
  -2  -4  -2 5881.60 116.186   4
  -2  -4  -2 5937.27 173.577   3
  -2  -4  -1 21910.0 268.443   3
  -2  -4  -1 22045.0 275.419   1
  -2  -4   0 1732.13 117.340   1
  -2  -4   1 10207.6 198.471   3
  -2  -4   1 9746.67 192.579   1
  -2  -4   2 15982.3 232.957   1
  -2  -4   2 16834.7 242.741   3
  -2  -4   3 776.636 102.944   1
  -2  -4   3 749.495 103.306   3
  -2  -4   4 5185.05 155.742   3
  -2  -4   4 4841.88 156.013   1
  -2  -4   5 8754.25 199.127   1
  -2  -4   5 8844.30 191.739   3
  -2  -4   6 2622.77 140.671   1
  -2  -4   6 2906.57 134.906   3
  -2  -4   7 1262.21 126.603   1
  -2  -4   7 991.094 110.561   3
  -2  -4   8 773.173 126.668   1
  -2  -4   8 666.085 104.637   3
  -2  -4   9 1596.30 123.957   3
  -2  -4   9 1335.74 136.380   1
  -2  -4  10 2292.63 132.519   3
  -2  -4  10 2238.83 160.012   1
  -2  -4  11 2772.40 173.144   1
  -2  -4  12 302.274 136.557   1
  -2  -3 -15 332.611 147.384   4
  -2  -3 -14 455.315 147.719   4
  -2  -3 -13 1394.33 148.948   4
  -2  -3 -12 1282.87 136.816   4
  -2  -3 -11 2158.27 144.204   4
  -2  -3 -10 4857.49 167.641   4
  -2  -3  -9 7476.09 183.772   4
  -2  -3  -8 1241.33 125.528   1
  -2  -3  -8 1295.21 104.883   4
  -2  -3  -7 5705.06 144.066   4
  -2  -3  -7 6321.23 191.398   1
  -2  -3  -6 5111.69 165.341   1
  -2  -3  -6 4655.07 122.792   4
  -2  -3  -5 381.700 64.9716   4
  -2  -3  -4 11779.6 194.890   1
  -2  -3  -4 11828.1 144.398   4
  -2  -3  -3 12133.4 132.006   4
  -2  -3  -3 12502.9 196.342   1
  -2  -3  -2 31705.5 170.980   4
  -2  -3  -2 31712.1 293.831   1
  -2  -3  -2 31256.2 276.735   3
  -2  -3  -1 5688.98 148.451   1
  -2  -3  -1 5950.44 157.688   3
  -2  -3   0 17168.9 216.178   1
  -2  -3   0 17173.3 210.662   3
  -2  -3   1 7102.41 151.297   1
  -2  -3   1 7519.90 148.970   3
  -2  -3   2 24833.9 262.010   1
  -2  -3   2 25013.3 248.094   3
  -2  -3   3 2532.60 106.761   3
  -2  -3   3 2499.37 112.347   1
  -2  -3   4 14337.3 220.039   1
  -2  -3   4 14739.1 198.908   3
  -2  -3   5 3752.37 141.412   1
  -2  -3   5 3909.23 121.653   3
  -2  -3   6 87.5958 99.3937   1
  -2  -3   6 192.327 78.9981   3
  -2  -3   7 1100.24 115.925   1
  -2  -3   7 1050.46 92.4477   3
  -2  -3   8 3547.01 159.051   1
  -2  -3   8 3631.35 128.628   3
  -2  -3   9 7743.02 172.130   3
  -2  -3   9 6925.90 205.131   1
  -2  -3  10 12493.1 272.193   1
  -2  -3  11 3252.36 176.978   1
  -2  -3  13 3365.00 195.706   1
  -2  -2 -15 3856.19 217.624   4
  -2  -2 -14 1374.26 164.897   4
  -2  -2 -13 2659.45 173.471   4
  -2  -2 -12 1494.16 145.521   4
  -2  -2 -11 1538.63 138.897   4
  -2  -2 -10 1668.78 131.709   4
  -2  -2  -9 4117.20 158.047   4
  -2  -2  -8 3090.98 132.005   4
  -2  -2  -7 38835.3 340.334   4
  -2  -2  -7 38305.9 355.640   1
  -2  -2  -6 18132.5 245.106   1
  -2  -2  -6 17192.3 217.517   4
  -2  -2  -5 7926.76 141.516   4
  -2  -2  -5 7927.02 157.052   1
  -2  -2  -4 14486.3 190.127   1
  -2  -2  -4 14619.8 164.072   4
  -2  -2  -3 2013.55 71.9888   4
  -2  -2  -3 2040.81 92.1296   1
  -2  -2  -2 633.969 51.4881   4
  -2  -2  -2 649.445 77.3312   1
  -2  -2  -1 20191.5 110.271   4
  -2  -2  -1 20376.6 199.675   1
  -2  -2   0 26398.5 106.388   4
  -2  -2   0 26186.6 96.7609   4
  -2  -2   1 15192.5 182.538   1
  -2  -2   1 15018.5 75.6217   4
  -2  -2   1 14904.5 162.585   3
  -2  -2   2 13977.6 182.870   1
  -2  -2   2 14037.3 155.568   3
  -2  -2   3 3656.49 114.183   1
  -2  -2   3 3342.66 89.3197   3
  -2  -2   4 2729.96 109.949   1
  -2  -2   4 2812.10 84.7489   3
  -2  -2   5 2873.33 88.2103   3
  -2  -2   5 2921.61 123.318   1
  -2  -2   6 4466.48 147.013   1
  -2  -2   6 4768.82 106.568   3
  -2  -2   7 8489.53 140.881   3
  -2  -2   7 8273.35 195.798   1
  -2  -2   8 5393.80 120.302   3
  -2  -2   8 5018.86 172.877   1
  -2  -2   9 1801.48 137.409   1
  -2  -2   9 1741.48 89.9341   3
  -2  -2  10 7369.50 217.799   1
  -2  -2  11 3897.59 182.663   1
  -2  -2  12 2371.78 166.997   1
  -2  -2  13 331.256 143.467   1
  -2  -2  14 1321.92 170.421   1
  -2  -1 -15 108.026 149.106   4
  -2  -1 -14 242.788 143.063   4
  -2  -1 -13 238.553 130.542   4
  -2  -1 -12 360.717 132.707   4
  -2  -1 -11 1571.18 146.555   4
  -2  -1 -10 5883.60 193.923   4
  -2  -1  -9 3332.00 150.864   4
  -2  -1  -8 1911.83 126.273   4
  -2  -1  -8 1472.95 49.7739   2
  -2  -1  -7 484.597 32.2038   2
  -2  -1  -7 765.873 100.436   4
  -2  -1  -6 279.197 29.7086   2
  -2  -1  -6 253.595 86.9672   4
  -2  -1  -5 11812.0 169.999   4
  -2  -1  -5 11503.2 92.0162   2
  -2  -1  -4 21191.2 208.837   4
  -2  -1  -4 19725.9 192.098   1
  -2  -1  -3 32503.7 221.169   1
  -2  -1  -3 34861.4 236.498   4
  -2  -1  -2 32015.0 200.167   1
  -2  -1  -2 32310.6 205.364   4
  -2  -1  -1 4208.44 81.3253   4
  -2  -1  -1 4067.60 88.5125   1
  -2  -1   0 10071.0 107.067   4
  -2  -1   0 9563.33 121.665   1
  -2  -1   1 6986.21 115.030   1
  -2  -1   1 7617.00 96.0996   4
  -2  -1   2 4961.90 109.738   1
  -2  -1   3 4199.74 112.805   1
  -2  -1   4 19626.4 222.105   1
  -2  -1   5 22810.0 251.488   1
  -2  -1   5 23507.3 143.346   3
  -2  -1   6 13442.6 115.456   3
  -2  -1   6 13306.1 210.350   1
  -2  -1   7 8526.79 189.857   1
  -2  -1   7 9088.66 102.314   3
  -2  -1   8 3526.11 145.268   1
  -2  -1   8 4012.31 80.5178   3
  -2  -1   9 3610.82 163.051   1
  -2  -1  10 2274.97 155.226   1
  -2  -1  11 555.359 128.021   1
  -2  -1  12 549.560 131.748   1
  -2  -1  13 1445.44 159.988   1
  -2  -1  14 673.723 147.571   1
  -2   0 -15 858.995 161.110   4
  -2   0 -14 479.356 147.799   4
  -2   0 -13 3414.04 194.087   4
  -2   0 -12 311.674 133.508   4
  -2   0 -11 6643.22 213.540   4
  -2   0 -10 6236.95 203.146   4
  -2   0  -9 485.001 124.532   4
  -2   0  -8 110.116 61.1440   2
  -2   0  -8 69.8133 112.810   4
  -2   0  -7 9430.52 144.628   2
  -2   0  -7 8598.88 184.980   4
  -2   0  -6 2404.19 114.312   4
  -2   0  -6 2752.04 86.0592   2
  -2   0  -5 23895.5 258.510   4
  -2   0  -5 25196.0 199.310   2
  -2   0  -4 28629.7 261.846   4
  -2   0  -3 38949.8 281.970   4
  -2   0  -2 22607.6 132.532   1
  -2   0  -2 21757.4 201.588   4
  -2   0  -1 2470.63 89.3240   4
  -2   0  -1 2254.16 47.5005   1
  -2   0   0 2917.12 61.1587   1
  -2   0   0 2739.84 88.6951   4
  -2   0   1 69696.5 254.563   1
  -2   0   1 68529.8 331.058   4
  -2   0   2 15130.0 167.892   4
  -2   0   2 15428.7 150.895   1
  -2   0   3 7282.44 125.609   1
  -2   0   4 12437.8 170.583   1
  -2   0   5 1010.79 87.0245   1
  -2   0   6 9708.28 182.923   1
  -2   0   7 4111.18 146.300   1
  -2   0   8 1478.89 120.475   1
  -2   0   9 8692.78 216.889   1
  -2   0  10 1684.77 142.621   1
  -2   0  11 152.933 118.906   1
  -2   0  13 2821.52 188.397   1
  -2   0  14 481.458 151.768   1
  -2   1 -13 194.430 132.683   4
  -2   1 -12 165.935 130.581   4
  -2   1 -11 5260.38 205.348   4
  -2   1 -10 2844.96 171.021   4
  -2   1 -10 2441.12 119.419   2
  -2   1  -9 2175.63 112.299   2
  -2   1  -9 2028.42 139.637   4
  -2   1  -8 18894.3 249.799   2
  -2   1  -8 17674.0 282.882   4
  -2   1  -7 1005.56 90.3850   2
  -2   1  -7 990.157 115.787   4
  -2   1  -6 1664.97 98.6936   2
  -2   1  -6 1579.22 113.191   4
  -2   1  -5 4018.13 118.935   2
  -2   1  -5 4028.59 137.652   4
  -2   1  -4 1040.60 98.7632   4
  -2   1  -4 1144.41 85.3173   2
  -2   1  -3 9679.66 170.342   4
  -2   1  -2 677.051 81.2929   4
  -2   1  -1 11467.3 174.381   4
  -2   1   0 9532.68 160.727   4
  -2   1   1 29525.7 149.498   1
  -2   1   1 29211.0 265.471   4
  -2   1   2 14316.3 135.376   1
  -2   1   2 13728.5 193.122   4
  -2   1   3 1900.50 78.1356   1
  -2   1   3 1661.34 93.8512   4
  -2   1   4 3909.95 108.889   1
  -2   1   5 84.9866 72.3444   1
  -2   1   6 4190.50 136.742   1
  -2   1   7 4913.28 157.599   1
  -2   1   8 1608.85 127.821   1
  -2   1   9 5840.78 194.041   1
  -2   1  10 2909.98 169.664   1
  -2   1  11 1261.19 149.282   1
  -2   1  12 2325.87 169.055   1
  -2   1  14 1746.42 170.664   1
  -2   2 -13 1565.50 165.123   4
  -2   2 -12 1194.21 153.966   4
  -2   2 -11 3150.59 188.945   4
  -2   2 -10 918.951 115.701   2
  -2   2 -10 640.422 121.733   4
  -2   2  -9 6647.94 195.241   2
  -2   2  -9 6104.35 205.261   4
  -2   2  -8 955.463 129.467   4
  -2   2  -7 127.619 95.0994   2
  -2   2  -7 137.910 106.527   4
  -2   2  -6 1998.84 124.090   2
  -2   2  -6 1985.20 134.357   4
  -2   2  -5 8920.54 196.012   2
  -2   2  -5 8885.19 198.292   4
  -2   2  -4 3416.49 134.242   2
  -2   2  -4 3701.92 140.470   4
  -2   2  -3 3952.75 137.442   4
  -2   2  -2 4451.40 142.722   4
  -2   2  -1 908.629 96.1281   4
  -2   2   0 1322.26 109.092   4
  -2   2   1 30178.9 308.927   4
  -2   2   1 28498.3 160.617   1
  -2   2   2 9762.43 125.978   1
  -2   2   2 9479.59 191.513   4
  -2   2   3 2995.94 92.4132   1
  -2   2   3 3546.09 137.683   4
  -2   2   4 27.6631 92.9517   4
  -2   2   4-14.3241 61.6419   1
  -2   2   5 847.534 86.9519   1
  -2   2   6 6766.96 167.842   1
  -2   2   7 6345.42 175.062   1
  -2   2   8 4076.29 163.085   1
  -2   2   9 9260.64 231.845   1
  -2   2  10 6063.87 208.317   1
  -2   2  11 1256.75 145.886   1
  -2   2  12 2891.31 188.722   1
  -2   2  13 1098.88 158.155   1
  -2   2  14 318.008 142.859   1
  -2   3 -11-15.9997 115.841   2
  -2   3 -11 95.6885 132.088   4
  -2   3 -10 382.219 125.869   2
  -2   3 -10 240.478 131.368   4
  -2   3  -9 3932.48 187.270   2
  -2   3  -9 3996.20 185.968   4
  -2   3  -8 3144.33 172.494   2
  -2   3  -8 2859.29 166.377   4
  -2   3  -7 1472.45 138.138   2
  -2   3  -7 1646.34 142.553   4
  -2   3  -6 4644.20 186.309   2
  -2   3  -6 4178.43 171.813   4
  -2   3  -5 6584.49 203.685   2
  -2   3  -5 7065.06 199.474   4
  -2   3  -4 723.044 115.074   4
  -2   3  -3 2778.61 145.857   2
  -2   3  -3 3286.44 150.175   4
  -2   3  -2 7634.89 195.222   4
  -2   3   0 1716.00 51.0288   1
  -2   3   0 2147.46 131.855   4
  -2   3   1 837.286 111.953   4
  -2   3   1 737.179 54.7097   1
  -2   3   2 2852.74 89.7834   1
  -2   3   2 2752.57 147.744   4
  -2   3   3 6047.56 130.899   1
  -2   3   3 6873.53 192.566   4
  -2   3   4 926.329 86.1533   1
  -2   3   4 1194.05 123.653   4
  -2   3   5 1428.12 98.4707   1
  -2   3   5 1853.50 134.235   4
  -2   3   6 5778.62 170.363   1
  -2   3   6 6064.55 188.744   4
  -2   3   7 2195.68 135.981   1
  -2   3   8 278.507 107.534   1
  -2   3  11 588.292 133.139   1
  -2   3  12 1846.86 168.678   1
  -2   3  13 2086.25 177.432   1
  -2   4 -10 230.295 144.115   2
  -2   4 -10 231.069 134.439   4
  -2   4  -9 821.645 139.732   4
  -2   4  -8 1207.01 146.168   4
  -2   4  -7 16.7829 123.504   4
  -2   4  -7 121.271 129.253   2
  -2   4  -6 1652.01 160.310   2
  -2   4  -6 1728.88 141.359   4
  -2   4  -5 3407.07 189.527   2
  -2   4  -5 3463.79 171.055   4
  -2   4  -4 7351.51 233.137   2
  -2   4  -4 7470.26 217.107   4
  -2   4  -3 24681.6 378.904   2
  -2   4  -3 25601.9 353.986   4
  -2   4  -1 1416.81 138.573   2
  -2   4  -1 1401.37 133.785   4
  -2   4   0 2533.20 148.155   4
  -2   4   2 6017.32 206.668   4
  -2   4   3 9295.98 242.635   4
  -2   4   4 1142.94 137.167   4
  -2   4   5 1654.59 142.549   4
  -2   4   6 1721.70 147.735   4
  -2   4   7 906.569 131.485   4
  -2   4   8 1173.92 131.912   1
  -2   4   8 1531.83 145.517   4
  -2   4   9 4813.92 193.624   1
  -2   4   9 5335.70 207.363   4
  -2   4  11 1521.73 149.458   1
  -2   5  -8 633.706 161.904   2
  -2   5  -8 707.167 143.035   4
  -2   5  -7 1582.27 161.734   4
  -2   5  -6 206.337 121.626   4
  -2   5  -6 482.466 138.544   2
  -2   5  -5-65.5528 137.296   2
  -2   5  -5-9.52891 121.444   4
  -2   5  -4 2107.27 172.957   2
  -2   5  -3 2303.31 170.195   2
  -2   5  -2 1592.83 160.353   2
  -2   5  -2 1366.05 140.336   4
  -2   5  -1 1218.89 147.786   2
  -2   5  -1 1320.69 139.350   4
  -2   5   0 254.126 124.513   2
  -2   5   1 215.774 134.313   2
  -2   5   2 2273.07 160.888   4
  -2   5   3 1672.52 150.068   4
  -2   5   4 523.557 129.894   4
  -2   5   7 264.708 133.964   4
  -2   5   8 5923.28 229.095   4
  -2   5   9 551.066 138.092   4
  -2   6  -2 70.0776 140.008   2
  -2   6  -2 139.218 113.080   4
  -2   6  -1 266.370 124.340   4
  -2   6   0 2798.83 192.607   2
  -2   6   1 151.876 144.152   2
  -2   6   3 2796.94 203.058   2
  -2   6   3 2969.04 180.758   4
  -2   6   5 1753.74 156.504   4
  -2   6   6 205.583 130.082   4
  -1  -7  -9 52.2722 146.489   1
  -1  -7  -8 1560.65 170.123   1
  -1  -7  -7 2728.62 193.118   1
  -1  -7  -7 2226.79 167.130   3
  -1  -7  -6 756.407 131.155   2
  -1  -7  -6 1267.72 155.281   1
  -1  -7  -5 99.2385 125.062   3
  -1  -7  -5 315.841 124.101   2
  -1  -7  -4 161.348 125.670   2
  -1  -7  -4 58.9419 128.080   1
  -1  -7  -4-58.5383 121.742   3
  -1  -7  -3 1604.40 147.674   1
  -1  -7  -3 1934.14 164.465   3
  -1  -7  -2 2017.29 148.987   1
  -1  -7  -2 2942.02 177.585   3
  -1  -7   0 386.923 137.746   3
  -1  -7   1 2308.81 167.923   3
  -1  -7   2 598.997 139.362   3
  -1  -7   3 1517.99 151.521   3
  -1  -7   4 1947.18 162.697   3
  -1  -7   5 161.849 120.895   3
  -1  -7   6 622.304 135.387   3
  -1  -6 -10 2618.81 188.014   4
  -1  -6  -9 670.097 141.549   1
  -1  -6  -9 768.855 143.038   4
  -1  -6  -8 941.280 142.165   4
  -1  -6  -8 733.747 138.707   1
  -1  -6  -7 281.705 117.473   3
  -1  -6  -7 356.389 139.885   1
  -1  -6  -7 355.679 131.659   4
  -1  -6  -6 4328.23 191.333   1
  -1  -6  -6 4057.55 188.421   4
  -1  -6  -6 4238.28 164.709   2
  -1  -6  -6 3863.18 174.528   3
  -1  -6  -5 4368.65 181.231   3
  -1  -6  -5 4255.43 183.944   4
  -1  -6  -5 4178.94 168.536   2
  -1  -6  -4 2948.54 162.533   1
  -1  -6  -4 2837.01 167.211   4
  -1  -6  -4 2591.42 154.637   2
  -1  -6  -4 3061.76 163.309   3
  -1  -6  -3 4676.74 195.176   2
  -1  -6  -3 4479.69 176.663   1
  -1  -6  -2 14460.4 293.671   2
  -1  -6  -2 14297.4 265.785   1
  -1  -6  -2 15111.0 284.372   3
  -1  -6   0 4859.53 186.370   3
  -1  -6   0 4642.28 170.613   1
  -1  -6   1 3373.94 166.773   3
  -1  -6   1 3366.80 154.477   1
  -1  -6   2 1074.44 136.943   3
  -1  -6   2 868.786 116.691   1
  -1  -6   3 813.166 127.921   3
  -1  -6   3 565.679 105.987   1
  -1  -6   4 1572.84 131.747   1
  -1  -6   4 1507.81 136.658   3
  -1  -6   5 532.348 124.202   3
  -1  -6   6 4592.78 183.464   1
  -1  -6   6 4101.91 181.118   3
  -1  -6   7 1343.31 140.174   1
  -1  -6   7 979.121 135.773   3
  -1  -6   8 882.100 131.997   3
  -1  -6   9 1944.36 155.604   3
  -1  -5 -13 420.461 148.173   4
  -1  -5 -12 1942.85 177.539   4
  -1  -5 -11 1748.09 165.665   4
  -1  -5 -10 171.827 123.017   4
  -1  -5  -9 1704.95 150.120   4
  -1  -5  -9 1835.52 162.449   1
  -1  -5  -8 2485.29 170.766   1
  -1  -5  -8 2345.21 152.597   4
  -1  -5  -7 2615.61 124.820   2
  -1  -5  -7 2497.75 144.648   4
  -1  -5  -7 2910.26 166.330   1
  -1  -5  -6 4769.81 182.397   1
  -1  -5  -6 4307.26 168.014   4
  -1  -5  -6 4501.58 148.243   2
  -1  -5  -6 4412.90 159.500   3
  -1  -5  -5 9040.20 217.335   4
  -1  -5  -5 8918.77 224.015   1
  -1  -5  -5 8964.28 197.728   2
  -1  -5  -4 375.371 103.469   4
  -1  -5  -4 353.233 101.653   3
  -1  -5  -3 4323.69 147.716   2
  -1  -5  -3 4362.31 151.692   1
  -1  -5  -3 4222.76 151.867   4
  -1  -5  -3 4582.90 163.238   3
  -1  -5  -2 1808.88 124.215   1
  -1  -5  -2 1532.43 123.229   2
  -1  -5  -2 1609.60 134.220   3
  -1  -5  -1 8102.03 205.197   3
  -1  -5  -1 7884.61 187.439   1
  -1  -5   0 6278.78 172.476   1
  -1  -5   0 6191.87 184.769   3
  -1  -5   1 554.140 96.4069   1
  -1  -5   2 2324.93 138.540   3
  -1  -5   2 2296.90 123.388   1
  -1  -5   3 7646.93 196.909   3
  -1  -5   3 7482.80 181.942   1
  -1  -5   4 6240.30 188.317   3
  -1  -5   4 6456.04 177.331   1
  -1  -5   5 1538.34 131.821   3
  -1  -5   5 1483.09 126.750   1
  -1  -5   6 5927.56 188.531   1
  -1  -5   6 5831.50 188.252   3
  -1  -5   7 640.299 121.794   1
  -1  -5   7 730.962 125.404   3
  -1  -5   8 22.2304 111.974   1
  -1  -5   8 86.7454 114.290   3
  -1  -5   9 1927.48 141.242   3
  -1  -5  10 277.258 123.761   1
  -1  -5  10 491.374 122.438   3
  -1  -5  11 1769.54 159.027   1
  -1  -5  11 1956.18 145.087   3
  -1  -4 -13 630.025 145.646   4
  -1  -4  -9 383.802 110.938   4
  -1  -4  -8 9104.52 214.542   4
  -1  -4  -8 9106.05 234.962   1
  -1  -4  -7 1667.87 91.6042   2
  -1  -4  -7 1972.81 123.457   4
  -1  -4  -7 1949.51 142.375   1
  -1  -4  -6 8310.19 160.296   2
  -1  -4  -6 7732.95 182.093   4
  -1  -4  -5 2866.82 138.070   1
  -1  -4  -5 2647.63 103.806   2
  -1  -4  -5 2539.36 120.076   4
  -1  -4  -5 2687.67 119.820   3
  -1  -4  -4 681.210 84.8764   4
  -1  -4  -4 783.589 97.0725   1
  -1  -4  -4 785.942 77.9068   2
  -1  -4  -4 805.285 92.4721   3
  -1  -4  -3 1783.56 96.8180   2
  -1  -4  -3 1671.45 99.4591   4
  -1  -4  -3 1806.76 108.471   1
  -1  -4  -3 1800.03 109.164   3
  -1  -4  -2 1113.08 85.8238   4
  -1  -4  -2 939.884 84.2977   2
  -1  -4  -2 998.926 94.9387   1
  -1  -4  -2 1149.63 104.849   3
  -1  -4  -1 719.603 90.8825   2
  -1  -4  -1 800.172 91.6244   1
  -1  -4   0 7508.83 168.379   3
  -1  -4   0 6811.78 156.568   1
  -1  -4   1 1399.46 109.242   3
  -1  -4   1 1277.75 95.1510   1
  -1  -4   2 965.348 103.311   3
  -1  -4   2 1107.70 93.8416   1
  -1  -4   3 3835.68 133.030   1
  -1  -4   3 3891.68 141.918   3
  -1  -4   4 1706.67 109.194   1
  -1  -4   4 2034.08 122.848   3
  -1  -4   5 4025.21 149.708   3
  -1  -4   5 3804.64 146.177   1
  -1  -4   6 8381.51 196.612   1
  -1  -4   6 8271.26 191.296   3
  -1  -4   7 1030.12 116.457   1
  -1  -4   7 1268.77 118.843   3
  -1  -4   8 255.757 109.185   1
  -1  -4   8 336.652 102.739   3
  -1  -4   9 450.769 119.727   1
  -1  -4   9 338.636 104.474   3
  -1  -4  10 442.901 125.336   1
  -1  -4  11 5582.00 183.298   3
  -1  -4  11 5390.20 203.506   1
  -1  -4  12 1655.61 157.909   1
  -1  -3 -14 1478.18 171.754   4
  -1  -3 -13 168.501 131.043   4
  -1  -3 -12 4092.65 186.932   4
  -1  -3 -11 3528.25 171.199   4
  -1  -3 -10 2744.84 150.970   4
  -1  -3  -9 7287.69 191.607   4
  -1  -3  -7 1542.37 106.013   4
  -1  -3  -7 1631.62 124.745   1
  -1  -3  -7 1646.96 73.8932   2
  -1  -3  -6 7896.77 122.679   2
  -1  -3  -6 7493.53 159.889   4
  -1  -3  -5 3447.37 133.403   1
  -1  -3  -5 3262.87 87.9470   2
  -1  -3  -4 959.560 75.7582   4
  -1  -3  -4 1074.15 98.0593   1
  -1  -3  -4 1081.45 66.5705   2
  -1  -3  -4 1003.58 80.0125   3
  -1  -3  -3 10615.4 140.411   2
  -1  -3  -3 10742.2 147.793   4
  -1  -3  -3 10295.3 169.299   1
  -1  -3  -3 10796.5 167.614   3
  -1  -3  -2 5354.27 110.040   4
  -1  -3  -2 5149.52 110.630   2
  -1  -3  -2 5415.72 132.404   1
  -1  -3  -2 5074.13 127.383   3
  -1  -3  -1 23878.1 236.349   1
  -1  -3  -1 24136.3 187.411   4
  -1  -3  -1 24354.6 243.950   3
  -1  -3   1 23109.0 232.646   3
  -1  -3   1 23891.6 232.738   1
  -1  -3   2 57165.7 364.033   3
  -1  -3   2 59535.5 372.781   1
  -1  -3   3 13134.3 191.203   3
  -1  -3   3 12866.2 187.122   1
  -1  -3   4 793.657 87.7573   1
  -1  -3   4 862.741 91.2222   3
  -1  -3   5 8256.05 162.377   3
  -1  -3   5 9046.62 178.468   1
  -1  -3   6 4093.85 130.189   3
  -1  -3   6 4100.87 141.636   1
  -1  -3   7 3749.57 132.236   3
  -1  -3   7 3487.51 145.265   1
  -1  -3   8 2066.96 116.732   3
  -1  -3   8 2406.88 137.443   1
  -1  -3   9 7849.15 188.149   3
  -1  -3   9 8963.53 218.553   1
  -1  -3  10 7028.31 185.458   3
  -1  -3  10 8082.63 220.062   1
  -1  -3  11 1625.21 126.283   3
  -1  -3  11 1887.61 151.626   1
  -1  -3  12 1985.27 160.664   1
  -1  -3  13 415.279 137.743   1
  -1  -2 -15 5561.08 248.689   4
  -1  -2 -14 2651.25 189.270   4
  -1  -2 -13 450.937 136.519   4
  -1  -2 -12 3097.88 168.066   4
  -1  -2 -11 2932.24 158.181   4
  -1  -2 -10 204.557 102.275   4
  -1  -2  -9 1864.66 119.813   4
  -1  -2  -8 1881.51 62.3194   2
  -1  -2  -8 1727.05 109.958   4
  -1  -2  -7 17047.8 140.328   2
  -1  -2  -7 17202.4 224.299   4
  -1  -2  -6 4744.26 123.318   4
  -1  -2  -6 5011.13 76.9767   2
  -1  -2  -5 9422.89 145.522   4
  -1  -2  -5 9823.67 99.9186   2
  -1  -2  -4 2727.34 58.6841   2
  -1  -2  -4 2593.99 86.4193   4
  -1  -2  -4 2691.88 101.627   1
  -1  -2  -3 43563.6 277.371   1
  -1  -2  -3 43996.6 191.991   2
  -1  -2  -2 16481.3 172.058   1
  -1  -2  -2 16583.9 169.663   3
  -1  -2  -1 2422.03 58.7901   4
  -1  -2  -1 2295.71 89.6746   1
  -1  -2  -1 2409.75 92.1751   3
  -1  -2   0 74142.8 339.693   3
  -1  -2   0 74633.1 344.747   1
  -1  -2   1 13096.4 149.806   3
  -1  -2   1 13439.1 158.207   1
  -1  -2   2 587.180 68.0834   3
  -1  -2   2 643.585 76.0676   1
  -1  -2   3 13420.1 175.180   1
  -1  -2   3 13696.1 160.088   3
  -1  -2   4 39511.5 267.783   3
  -1  -2   4 39715.5 308.209   1
  -1  -2   5 7171.55 132.126   3
  -1  -2   5 7081.67 156.022   1
  -1  -2   6 1853.42 109.385   1
  -1  -2   6 1832.60 87.7191   3
  -1  -2   7 3069.56 103.934   3
  -1  -2   7 3082.41 130.646   1
  -1  -2   8 10512.8 175.278   3
  -1  -2   8 10893.8 217.330   1
  -1  -2   9 2839.96 151.206   1
  -1  -2   9 2676.37 114.430   3
  -1  -2  10 152.121 110.182   1
  -1  -2  10 135.682 86.1565   3
  -1  -2  11 1670.34 148.655   1
  -1  -2  12 10078.5 263.501   1
  -1  -2  13 3380.30 191.600   1
  -1  -2  14 4965.47 228.671   1
  -1  -1 -15 2461.46 192.479   4
  -1  -1 -13 3770.69 189.238   4
  -1  -1 -11 461.955 121.951   4
  -1  -1 -10 5943.73 187.446   4
  -1  -1  -9 10531.9 220.397   4
  -1  -1  -9 10690.7 147.895   2
  -1  -1  -8 5175.98 101.350   2
  -1  -1  -8 5134.48 156.697   4
  -1  -1  -7 30430.0 302.148   4
  -1  -1  -7 30420.2 189.822   2
  -1  -1  -6 3642.74 119.421   4
  -1  -1  -6 3580.47 67.6023   2
  -1  -1  -5 31389.4 139.485   2
  -1  -1  -5 33747.4 262.549   4
  -1  -1  -4 164760. 503.923   4
  -1  -1  -4 164209. 531.743   1
  -1  -1  -3 58526.4 285.608   1
  -1  -1  -3 59960.5 269.189   4
  -1  -1  -2 96597.3 169.135   2
  -1  -1  -2 101504. 302.673   1
  -1  -1  -1 46346.6 144.641   4
  -1  -1  -1 45110.2 207.397   1
  -1  -1   0 9493.78 104.811   1
  -1  -1   0 9327.96 98.0829   3
  -1  -1   1 21159.0 155.104   1
  -1  -1   1 21123.8 133.633   3
  -1  -1   2 46290.5 194.487   3
  -1  -1   2 45858.7 250.995   1
  -1  -1   3 531.019 73.3196   1
  -1  -1   3 500.065 50.8138   3
  -1  -1   4 44910.3 300.076   1
  -1  -1   4 46414.9 216.481   3
  -1  -1   5 11329.2 124.977   3
  -1  -1   5 10661.9 176.881   1
  -1  -1   6 2728.70 79.0352   3
  -1  -1   6 2678.96 118.445   1
  -1  -1   7 3784.22 93.2520   3
  -1  -1   7 3853.07 139.596   1
  -1  -1   8 1605.26 79.2007   3
  -1  -1   8 1671.12 123.557   1
  -1  -1   9 8829.34 148.152   3
  -1  -1   9 9475.71 219.994   1
  -1  -1  10 3806.97 116.278   3
  -1  -1  10 3714.87 170.301   1
  -1  -1  11 3589.72 180.782   1
  -1  -1  12 353.591 134.705   1
  -1  -1  13 2473.92 178.892   1
  -1  -1  14 546.995 154.585   1
  -1  -1  15 1925.44 180.400   1
  -1   0 -15 1619.53 173.490   4
  -1   0 -14 319.495 140.347   4
  -1   0 -13 1386.91 153.445   4
  -1   0 -12 2362.11 162.451   4
  -1   0 -11 429.005 126.529   4
  -1   0 -10 3930.74 171.036   4
  -1   0 -10 3373.00 114.599   2
  -1   0  -9 8166.69 202.836   4
  -1   0  -9 7813.60 146.836   2
  -1   0  -8 5329.69 162.691   4
  -1   0  -8 5044.35 110.409   2
  -1   0  -6 1745.08 68.8732   2
  -1   0  -6 1888.85 107.638   4
  -1   0  -5 9826.48 117.903   2
  -1   0  -5 9704.71 163.639   4
  -1   0  -4 5588.95 90.4650   2
  -1   0  -4 5126.33 117.989   4
  -1   0  -3 4298.87 72.4730   2
  -1   0  -3 4454.02 100.207   4
  -1   0  -2 61860.9 256.747   4
  -1   0  -1 9400.75 63.8593   1
  -1   0  -1 9563.60 98.5239   4
  -1   0   0 71774.6 161.903   1
  -1   0   0 71960.3 238.324   4
  -1   0   1 69757.9 213.166   1
  -1   0   2 13107.3 57.6337   3
  -1   0   2 13345.5 129.926   1
  -1   0   3 11810.9 148.360   1
  -1   0   4 2156.99 96.1629   1
  -1   0   5 1526.16 33.0531   3
  -1   0   5 1836.95 98.9286   1
  -1   0   6 1610.36 43.4617   3
  -1   0   6 1751.09 108.067   1
  -1   0   7 7489.24 89.3206   3
  -1   0   7 7857.39 181.508   1
  -1   0   8 11762.5 230.656   1
  -1   0   8 12012.0 123.223   3
  -1   0   9 6100.09 103.242   3
  -1   0   9 6199.08 195.271   1
  -1   0  10 6040.99 207.302   1
  -1   0  11 3460.47 183.415   1
  -1   0  12 351.047 131.793   1
  -1   0  13 577.796 146.764   1
  -1   0  14 447.210 148.385   1
  -1   0  15 716.626 164.076   1
  -1   1 -15 1889.95 176.475   4
  -1   1 -14 13.3745 133.518   4
  -1   1 -13 1049.61 146.219   4
  -1   1 -11 217.655 89.1920   2
  -1   1 -11 180.431 113.576   4
  -1   1 -10 6367.39 159.419   2
  -1   1 -10 6542.28 197.449   4
  -1   1  -9 25303.0 275.159   2
  -1   1  -9 25935.2 335.698   4
  -1   1  -8 2567.04 104.897   2
  -1   1  -8 2734.44 139.647   4
  -1   1  -7 718.356 98.1911   4
  -1   1  -6 1866.53 92.7865   2
  -1   1  -6 1801.89 106.107   4
  -1   1  -5 6807.44 130.589   2
  -1   1  -5 6719.53 144.226   4
  -1   1  -4 15883.1 177.813   2
  -1   1  -4 15865.8 196.034   4
  -1   1  -3 8895.42 135.128   2
  -1   1  -3 8922.19 143.164   4
  -1   1  -2 9877.62 139.012   4
  -1   1  -1 15581.4 163.434   4
  -1   1   0 35657.1 106.823   1
  -1   1   0 36695.4 233.455   4
  -1   1   1 5324.72 71.5642   1
  -1   1   1 5154.13 106.612   4
  -1   1   2 65110.0 266.170   1
  -1   1   3 39401.6 255.697   1
  -1   1   4 13201.5 175.313   1
  -1   1   4 12033.7 73.9885   3
  -1   1   5 23864.0 93.5891   3
  -1   1   5 26406.3 261.579   1
  -1   1   6 1745.31 25.5485   3
  -1   1   6 2905.15 121.694   1
  -1   1   7 3500.19 138.917   1
  -1   1   8 748.075 109.137   1
  -1   1   8 447.260 21.3620   3
  -1   1   9 1804.24 137.291   1
  -1   1  10 6166.66 208.621   1
  -1   1  12-37.2135 127.963   1
  -1   1  13 2467.89 187.821   1
  -1   1  14 603.366 161.858   1
  -1   1  15 617.485 159.761   1
  -1   2 -14 262.794 138.097   4
  -1   2 -13 461.553 132.028   4
  -1   2 -12 379.440 123.734   4
  -1   2 -11 88.0226 95.7010   2
  -1   2 -11-20.2079 116.736   4
  -1   2 -10 2056.84 149.198   4
  -1   2 -10 2364.44 132.997   2
  -1   2  -9 10612.7 212.251   2
  -1   2  -9 11025.5 247.763   4
  -1   2  -8 5201.04 158.954   2
  -1   2  -8 4740.81 156.476   4
  -1   2  -7 2609.12 123.663   2
  -1   2  -7 2431.30 128.732   4
  -1   2  -6 9310.45 188.300   4
  -1   2  -6 9041.60 181.622   2
  -1   2  -5 8010.62 168.589   2
  -1   2  -5 7851.10 170.699   4
  -1   2  -4 40524.4 346.220   2
  -1   2  -4 39901.7 323.982   4
  -1   2  -3 3773.59 122.648   2
  -1   2  -3 3956.61 117.565   4
  -1   2  -2 3873.82 127.051   2
  -1   2  -2 4287.01 117.211   4
  -1   2  -1 5175.57 123.442   4
  -1   2   0 8390.50 146.409   4
  -1   2   1 24673.6 166.140   1
  -1   2   1 24677.5 240.076   4
  -1   2   2 1604.25 91.2912   4
  -1   2   2 1589.26 70.8944   1
  -1   2   3 21869.9 200.865   1
  -1   2   4 7958.40 141.816   1
  -1   2   5 337.253 79.8616   1
  -1   2   6 5244.19 152.888   1
  -1   2   6 4755.40 82.7015   3
  -1   2   7 9719.08 210.714   1
  -1   2   7 9248.25 108.019   3
  -1   2   8 3214.73 161.377   1
  -1   2  10 3289.28 181.920   1
  -1   2  14 1158.13 169.972   1
  -1   2  15 1307.67 179.866   1
  -1   3 -13 1579.13 150.548   4
  -1   3 -12 305.149 114.733   2
  -1   3 -12 226.418 126.085   4
  -1   3 -11 1961.57 143.651   2
  -1   3 -11 1618.74 148.938   4
  -1   3 -10 1357.14 131.795   2
  -1   3 -10 1082.70 142.839   4
  -1   3  -9 364.744 109.414   2
  -1   3  -9 204.252 104.397   4
  -1   3  -8 11763.8 250.893   2
  -1   3  -8 11181.2 234.055   4
  -1   3  -7 6983.03 197.671   2
  -1   3  -7 6291.15 185.063   4
  -1   3  -6 1913.35 132.171   2
  -1   3  -6 1909.18 125.593   4
  -1   3  -5 11210.5 229.821   2
  -1   3  -5 10136.6 200.582   4
  -1   3  -4 11669.3 231.079   2
  -1   3  -4 11743.9 209.005   4
  -1   3  -3 2215.29 129.431   2
  -1   3  -3 2171.50 114.652   4
  -1   3  -2 189.609 79.1422   4
  -1   3  -1 238.878 92.7904   2
  -1   3  -1 256.050 82.1385   4
  -1   3   0 14192.5 212.810   4
  -1   3   1 195.452 84.6262   4
  -1   3   2 1027.13 94.7225   4
  -1   3   2 1008.12 68.8628   1
  -1   3   3 4664.24 117.209   1
  -1   3   3 5003.84 147.170   4
  -1   3   4 8607.57 183.963   4
  -1   3   4 8277.20 155.980   1
  -1   3   5 9182.69 174.243   1
  -1   3   6 16425.2 242.156   1
  -1   3   6 15401.4 184.535   3
  -1   3   7 9571.09 209.858   1
  -1   3   7 9571.48 142.813   3
  -1   3   8 5743.56 187.992   1
  -1   3   9 453.631 117.411   1
  -1   3  10 11.5125 126.466   1
  -1   3  12 5725.41 231.522   1
  -1   3  13 7140.55 260.375   1
  -1   4 -11 1781.06 159.664   2
  -1   4 -11 1214.69 149.536   4
  -1   4 -10 713.387 134.025   2
  -1   4 -10 483.126 127.886   4
  -1   4  -9 240.624 125.083   2
  -1   4  -9 508.284 122.497   4
  -1   4  -8 212.602 126.769   2
  -1   4  -8 105.936 110.908   4
  -1   4  -7 1239.11 143.299   2
  -1   4  -7 1275.68 127.158   4
  -1   4  -6 421.947 125.896   2
  -1   4  -6 230.487 107.698   4
  -1   4  -5 5995.01 202.802   2
  -1   4  -5 5310.01 168.174   4
  -1   4  -4 3753.90 174.919   2
  -1   4  -4 3537.93 147.928   4
  -1   4  -3 6949.60 216.532   2
  -1   4  -3 6375.08 176.511   4
  -1   4  -2 3476.36 164.182   2
  -1   4  -2 3764.46 143.422   4
  -1   4  -1 2633.59 149.484   2
  -1   4  -1 2747.28 133.922   4
  -1   4   0 212.477 108.812   2
  -1   4   1 7572.18 190.003   4
  -1   4   2 1087.43 82.1988   1
  -1   4   2 1088.98 111.940   4
  -1   4   3 496.138 103.124   4
  -1   4   3 517.550 80.0305   1
  -1   4   4 3326.58 125.495   1
  -1   4   4 3775.39 161.286   4
  -1   4   5 224.810 100.182   4
  -1   4   5 183.088 76.5648   1
  -1   4   6 1269.27 101.371   3
  -1   4   6 1098.47 104.352   1
  -1   4   6 1060.87 119.286   4
  -1   4   7 2720.71 139.596   1
  -1   4   8 1295.62 132.053   1
  -1   4   9 2338.58 156.012   1
  -1   4  10 1549.80 158.698   1
  -1   4  11 407.378 136.048   1
  -1   4  12 1562.65 164.954   1
  -1   4  13 589.170 145.854   1
  -1   5  -9 93.7464 129.166   2
  -1   5  -9 29.5732 113.567   4
  -1   5  -7 107.172 128.940   2
  -1   5  -7 162.974 111.236   4
  -1   5  -6 330.195 137.250   2
  -1   5  -6 339.375 114.019   4
  -1   5  -5 1900.53 169.147   2
  -1   5  -5 1815.58 133.870   4
  -1   5  -4 3998.76 198.024   2
  -1   5  -4 3813.67 164.187   4
  -1   5  -3 824.408 118.713   4
  -1   5  -2 6262.71 232.518   2
  -1   5  -2 5185.63 177.989   4
  -1   5  -1 11336.2 279.437   2
  -1   5  -1 10783.3 241.737   4
  -1   5   0 11755.1 250.011   4
  -1   5   0 12067.4 282.174   2
  -1   5   1 9396.50 253.840   2
  -1   5   1 9738.10 232.561   4
  -1   5   3 3456.36 164.109   4
  -1   5   3 3546.36 184.315   2
  -1   5   4 3015.82 160.937   4
  -1   5   5 1244.64 113.624   1
  -1   5   5 1463.19 135.713   4
  -1   5   6 1624.61 122.867   1
  -1   5   6 1885.84 148.200   4
  -1   5   7 3841.71 159.785   1
  -1   5   7 4707.91 191.475   4
  -1   5   8 1208.22 125.146   1
  -1   5   8 1207.33 135.226   4
  -1   5  10 1874.19 160.232   1
  -1   6  -6 117.649 156.919   2
  -1   6  -5 2048.29 188.246   2
  -1   6  -5 2256.96 151.651   4
  -1   6  -4 269.753 151.097   2
  -1   6  -3 5376.19 233.189   2
  -1   6  -3 4228.54 180.290   4
  -1   6  -2 2113.30 143.214   4
  -1   6  -2 2303.57 196.710   2
  -1   6   0 2543.66 184.190   2
  -1   6   0 2125.24 152.398   4
  -1   6   1 1660.50 143.591   4
  -1   6   3 531.090 115.291   4
  -1   6   4 417.706 129.788   2
  -1   6   4 334.128 115.546   4
  -1   6   5 88.2089 115.401   2
  -1   6   5 200.774 119.196   4
  -1   6   6 210.372 113.632   2
  -1   6   6 136.372 120.283   4
  -1   6   7 124.438 114.247   4
  -1   6   8 475.665 129.883   4
  -1   6   9 1990.35 163.722   4
  -1   7   2 374.071 157.934   2
  -1   7   3 3012.72 204.714   2
  -1   7   3 1830.56 152.428   4
   0  -7  -6 1131.72 154.224   2
   0  -7  -5 64.9556 129.948   2
   0  -7  -5-111.793 120.916   3
   0  -7  -4 555.245 132.746   3
   0  -7  -3 207.453 128.349   2
   0  -7  -3 180.371 128.952   3
   0  -7  -2 494.825 139.770   2
   0  -7  -2 1057.79 142.018   3
   0  -7   0 2994.28 182.096   3
   0  -7   1 1668.14 162.640   3
   0  -7   3 646.220 143.870   3
   0  -7   4 3536.15 199.737   3
   0  -6 -10 4045.61 236.431   4
   0  -6  -9 1456.65 178.950   4
   0  -6  -8 300.550 143.994   4
   0  -6  -7 1457.55 143.940   2
   0  -6  -7 1186.54 136.040   1
   0  -6  -5 96.6948 119.036   2
   0  -6  -5 47.6088 115.461   1
   0  -6  -5-19.7655 114.893   3
   0  -6  -5 280.397 135.304   4
   0  -6  -4 4358.99 174.640   1
   0  -6  -4 4778.08 197.524   2
   0  -6  -4 4757.14 190.816   3
   0  -6  -3 9172.33 222.843   1
   0  -6  -3 9494.92 256.618   2
   0  -6  -2 3908.75 199.369   2
   0  -6  -2 4745.86 188.676   3
   0  -6  -1 5588.95 209.272   2
   0  -6  -1 5741.33 194.507   3
   0  -6   1 1703.30 147.114   3
   0  -6   1 1618.29 160.829   2
   0  -6   2 1139.13 134.350   3
   0  -6   3 1535.97 143.231   3
   0  -6   4 880.447 132.116   3
   0  -6   5 372.289 128.894   3
   0  -6   7 1266.84 146.827   3
   0  -6   8 562.248 134.421   3
   0  -5 -12 482.836 148.925   4
   0  -5 -10 1841.61 161.632   4
   0  -5  -8 1622.46 128.636   2
   0  -5  -7 2381.68 141.476   2
   0  -5  -7 2819.38 156.404   1
   0  -5  -7 2517.88 169.551   4
   0  -5  -7 2321.60 137.167   3
   0  -5  -6 3381.30 156.169   2
   0  -5  -6 3445.16 160.940   1
   0  -5  -6 3277.06 172.856   4
   0  -5  -6 3242.52 149.800   3
   0  -5  -5 2141.39 151.181   4
   0  -5  -5 2545.40 140.637   1
   0  -5  -5 2237.87 140.565   2
   0  -5  -5 2221.88 132.996   3
   0  -5  -4 1456.14 133.747   4
   0  -5  -4 1598.29 128.315   2
   0  -5  -4 1469.58 121.894   1
   0  -5  -4 1558.59 122.714   3
   0  -5  -3 310.692 105.685   3
   0  -5  -2 3549.27 159.523   2
   0  -5  -2 3581.72 128.935   1
   0  -5  -2 3798.98 154.219   3
   0  -5  -1 5296.19 170.724   3
   0  -5  -1 5421.91 154.090   1
   0  -5  -1 5035.24 186.379   2
   0  -5   0 9088.24 210.546   3
   0  -5   0 8744.84 222.592   2
   0  -5   0 9263.04 186.047   1
   0  -5   1 7599.85 198.529   3
   0  -5   1 8060.28 176.395   1
   0  -5   1 7322.07 211.879   2
   0  -5   2 1976.15 154.215   2
   0  -5   2 1939.10 108.824   1
   0  -5   2 2224.88 144.117   3
   0  -5   3 2111.26 141.175   3
   0  -5   3 1730.37 106.499   1
   0  -5   4 6541.56 193.391   3
   0  -5   4 6655.33 169.765   1
   0  -5   5 6186.72 192.034   3
   0  -5   5 6136.90 171.699   1
   0  -5   6 430.677 110.593   1
   0  -5   6 346.730 113.929   3
   0  -5   7 1717.04 140.927   3
   0  -5   8 1325.83 140.119   3
   0  -5   9 1197.40 138.264   3
   0  -5  10 103.890 120.504   3
   0  -4 -13 3039.46 210.805   4
   0  -4 -12 1624.09 166.135   4
   0  -4 -11 1494.61 156.067   4
   0  -4 -10 3183.66 177.543   4
   0  -4  -9 580.328 123.911   4
   0  -4  -8 3438.27 170.048   4
   0  -4  -8 3084.58 138.254   2
   0  -4  -7 3009.68 154.164   4
   0  -4  -7 3308.05 143.749   2
   0  -4  -6 952.715 111.579   1
   0  -4  -6 738.906 108.171   4
   0  -4  -6 858.793 93.0331   3
   0  -4  -5 5858.64 178.643   4
   0  -4  -5 6234.71 166.937   2
   0  -4  -5 5808.04 152.218   3
   0  -4  -4 6390.04 178.364   4
   0  -4  -4 6245.56 167.367   2
   0  -4  -4 6203.25 154.643   3
   0  -4  -3 4092.54 148.885   4
   0  -4  -3 4260.95 149.554   2
   0  -4  -3 4448.71 139.046   3
   0  -4  -2 9978.75 185.751   3
   0  -4  -2 9870.39 197.886   4
   0  -4  -2 9794.74 207.082   2
   0  -4  -2 9801.10 165.543   1
   0  -4  -1 10191.5 190.623   3
   0  -4  -1 10215.3 209.963   2
   0  -4  -1 10737.4 172.543   1
   0  -4   0 11178.9 203.009   3
   0  -4   0 11073.7 218.994   2
   0  -4   0 11604.9 177.070   1
   0  -4   1 11587.9 205.838   3
   0  -4   1 11807.1 175.800   1
   0  -4   1 11437.8 219.981   2
   0  -4   2 4771.19 149.500   3
   0  -4   2 4792.99 161.834   2
   0  -4   2 4899.21 127.246   1
   0  -4   3 2244.04 103.006   1
   0  -4   3 2439.39 129.341   3
   0  -4   4 7515.16 166.040   1
   0  -4   4 7294.34 185.477   3
   0  -4   5 1285.60 120.896   3
   0  -4   5 1499.18 109.598   1
   0  -4   6 3418.66 152.414   3
   0  -4   6 3658.59 144.498   1
   0  -4   7 1103.14 112.446   1
   0  -4   7 883.158 120.009   3
   0  -4   8 1787.16 135.548   3
   0  -4   8 1806.39 133.627   1
   0  -4   9 4239.64 172.245   3
   0  -4   9 4724.40 174.911   1
   0  -4  10 1103.90 129.144   3
   0  -4  10 1035.01 134.901   1
   0  -4  11 319.206 120.566   3
   0  -4  12 3394.76 170.499   3
   0  -4  12 2813.65 172.965   1
   0  -3 -15 604.308 163.269   4
   0  -3 -14 606.059 153.032   4
   0  -3 -13 2.44750 134.522   4
   0  -3 -12 475.475 137.643   4
   0  -3 -11 212.807 122.144   4
   0  -3 -10 504.909 118.812   4
   0  -3  -9 1209.21 127.259   4
   0  -3  -9 1256.57 99.6126   2
   0  -3  -8 5850.12 187.065   4
   0  -3  -8 6333.71 157.399   2
   0  -3  -6 3948.61 144.614   4
   0  -3  -6 3678.81 142.244   1
   0  -3  -6 3981.33 123.325   2
   0  -3  -5 39939.2 350.054   1
   0  -3  -5 40602.6 322.550   2
   0  -3  -5 40556.0 290.541   3
   0  -3  -4 11136.0 181.965   2
   0  -3  -4 11610.6 187.459   1
   0  -3  -4 11096.7 160.368   3
   0  -3  -3 3874.92 126.180   4
   0  -3  -3 3670.76 111.650   3
   0  -3  -3 3634.20 117.571   2
   0  -3  -3 4029.25 117.290   1
   0  -3  -2 5140.11 120.089   3
   0  -3  -2 5327.02 136.268   4
   0  -3  -2 5143.54 133.669   2
   0  -3  -2 4969.59 111.818   1
   0  -3  -1 3853.75 113.590   3
   0  -3  -1 3911.92 118.237   4
   0  -3  -1 3675.53 100.345   1
   0  -3   0 2540.43 102.336   3
   0  -3   0 2410.53 107.726   2
   0  -3   0 2583.34 89.4789   1
   0  -3   1 488.954 80.6242   3
   0  -3   1 388.133 78.1942   2
   0  -3   1 402.671 64.7347   1
   0  -3   2 18093.8 224.858   3
   0  -3   2 18460.9 193.007   1
   0  -3   2 18164.4 237.844   2
   0  -3   3 2880.67 102.404   1
   0  -3   3 2939.61 116.766   3
   0  -3   4 6258.34 153.426   3
   0  -3   4 6270.03 138.966   1
   0  -3   5 133.666 77.8131   1
   0  -3   5 253.393 93.0217   3
   0  -3   6 2955.88 123.935   1
   0  -3   6 2889.65 126.310   3
   0  -3   7 6753.24 170.048   1
   0  -3   7 6637.99 173.037   3
   0  -3   8 3032.63 139.864   3
   0  -3   8 3078.66 142.055   1
   0  -3   9 4205.65 158.215   3
   0  -3   9 3918.39 159.164   1
   0  -3  11 432.723 111.931   3
   0  -3  11 585.163 123.898   1
   0  -3  12 1503.50 135.520   3
   0  -3  12 1355.97 146.421   1
   0  -3  13 1283.93 151.527   1
   0  -2 -15 128.277 142.799   4
   0  -2 -13 2850.92 180.203   4
   0  -2 -12 349.214 127.233   4
   0  -2 -11 5533.41 200.907   4
   0  -2 -10 832.717 123.813   4
   0  -2  -9 2051.57 133.198   4
   0  -2  -9 1825.81 96.0368   2
   0  -2  -8 6007.30 171.366   4
   0  -2  -8 6168.94 135.081   2
   0  -2  -7 4082.58 137.651   4
   0  -2  -7 4188.49 117.061   2
   0  -2  -6 9716.65 177.826   4
   0  -2  -6 10470.9 157.263   2
   0  -2  -5 20444.5 201.160   2
   0  -2  -5 19663.4 230.646   4
   0  -2  -4 2900.02 106.460   1
   0  -2  -4 2858.76 105.790   4
   0  -2  -4 3176.22 95.1666   2
   0  -2  -4 3068.34 83.4153   3
   0  -2  -3 9465.64 144.299   1
   0  -2  -3 8764.21 144.185   4
   0  -2  -3 9205.87 136.967   2
   0  -2  -3 8903.67 123.847   3
   0  -2  -2 9520.42 142.053   2
   0  -2  -2 9250.18 127.736   1
   0  -2  -2 9378.09 139.242   4
   0  -2  -1 10225.9 142.513   2
   0  -2  -1 10644.1 143.440   4
   0  -2  -1 10504.2 124.001   1
   0  -2   0 14335.0 155.828   3
   0  -2   0 14678.0 168.973   2
   0  -2   1 2279.35 77.4457   1
   0  -2   1 2285.25 89.1305   3
   0  -2   1 2212.66 87.6433   2
   0  -2   2 12221.3 166.058   2
   0  -2   2 12412.7 143.271   1
   0  -2   3 857.439 79.0114   3
   0  -2   3 953.538 73.2952   1
   0  -2   4 10787.0 170.098   3
   0  -2   4 10788.3 161.911   1
   0  -2   5 13675.7 190.237   1
   0  -2   5 13143.9 191.860   3
   0  -2   6 35390.8 314.091   1
   0  -2   6 35415.7 313.387   3
   0  -2   7 1023.38 96.6784   3
   0  -2   7 881.437 95.4583   1
   0  -2   8 3878.96 142.104   1
   0  -2   8 4070.63 138.759   3
   0  -2   9 7783.45 185.946   3
   0  -2   9 8191.93 201.270   1
   0  -2  10 4256.30 163.579   3
   0  -2  10 5139.17 176.102   1
   0  -2  11 1665.92 131.042   3
   0  -2  11 2157.48 150.038   1
   0  -2  12 4393.53 190.191   1
   0  -2  12 4379.01 167.225   3
   0  -2  13 1766.52 162.262   1
   0  -2  14 2034.02 179.331   1
   0  -1 -15-39.4898 141.034   4
   0  -1 -14 503.842 141.683   4
   0  -1 -13 3856.83 192.862   4
   0  -1 -12 3258.04 177.469   4
   0  -1 -11 10030.9 241.848   4
   0  -1 -10 125.614 75.7642   2
   0  -1 -10 13.0976 101.138   4
   0  -1  -9 2310.01 130.453   4
   0  -1  -9 2309.50 103.726   2
   0  -1  -8 4327.60 145.180   4
   0  -1  -8 4687.45 122.019   2
   0  -1  -7 4238.31 130.561   4
   0  -1  -7 4549.98 113.628   2
   0  -1  -6 9934.21 163.768   4
   0  -1  -6 11469.1 148.585   2
   0  -1  -5 34501.4 264.583   4
   0  -1  -5 36348.4 226.078   2
   0  -1  -4 215.559 62.6304   4
   0  -1  -4 209.801 58.5034   2
   0  -1  -3 37295.3 222.172   4
   0  -1  -3 37614.1 198.474   2
   0  -1  -2 20162.9 154.396   1
   0  -1  -2 20220.5 142.307   2
   0  -1  -2 20159.6 122.052   3
   0  -1  -2 19881.6 151.442   4
   0  -1  -1 29192.8 142.343   3
   0  -1  -1 29850.5 154.765   4
   0  -1  -1 29410.7 156.783   2
   0  -1   0 37562.2 173.664   3
   0  -1   0 37721.6 181.081   2
   0  -1   0 38190.5 146.896   1
   0  -1   1 41391.8 200.428   3
   0  -1   1 41723.7 177.835   1
   0  -1   1 41894.0 200.606   2
   0  -1   2 8942.45 114.595   3
   0  -1   2 9010.67 109.599   1
   0  -1   3 20011.4 174.279   1
   0  -1   3 20029.8 171.348   3
   0  -1   4 37380.4 261.897   1
   0  -1   4 38130.9 246.599   3
   0  -1   5 9211.74 155.411   1
   0  -1   5 8898.30 141.286   3
   0  -1   6 10096.2 155.776   3
   0  -1   6 10121.0 179.157   1
   0  -1   7 3128.82 105.683   3
   0  -1   7 3110.89 126.439   1
   0  -1   8 311.518 76.0567   3
   0  -1   8 253.383 96.8593   1
   0  -1   9 2129.85 112.854   3
   0  -1   9 2262.37 139.241   1
   0  -1  10 1776.35 116.864   3
   0  -1  10 2029.76 144.878   1
   0  -1  11 2097.76 126.140   3
   0  -1  11 2173.05 156.781   1
   0  -1  12 1490.67 155.756   1
   0  -1  13 1792.50 171.500   1
   0  -1  14 1962.46 181.572   1
   0  -1  15 56.8367 152.364   1
   0   0 -14 2203.12 172.500   4
   0   0 -13 449.309 130.497   4
   0   0 -12 10183.6 247.357   4
   0   0 -11 11453.1 248.545   4
   0   0 -11 11084.6 219.852   2
   0   0 -10 403.841 88.5531   2
   0   0 -10 333.514 107.818   4
   0   0  -9 805.635 111.177   4
   0   0  -9 793.236 85.5199   2
   0   0  -8 12649.2 216.944   4
   0   0  -8 12902.9 187.181   2
   0   0  -7 4632.85 133.664   4
   0   0  -7 4520.03 113.954   2
   0   0  -6 1955.88 97.5405   4
   0   0  -6 1772.88 79.5591   2
   0   0  -5 1459.58 85.9142   4
   0   0  -5 1551.42 72.1459   2
   0   0  -4 878.525 71.2812   4
   0   0  -4 804.938 60.4967   2
   0   0  -3 41703.6 221.502   4
   0   0  -3 42085.1 197.527   2
   0   0  -2 1205.14 42.8219   2
   0   0  -2 1264.73 50.2672   4
   0   0  -1 19734.9 96.0689   1
   0   0  -1 19653.9 85.1077   4
   0   0  -1 19787.7 75.0361   2
   0   0   1 20000.8 71.5895   2
   0   0   1 19665.2 94.9135   1
   0   0   1 19726.8 70.7138   3
   0   0   2 1182.79 57.6628   1
   0   0   2 1307.10 42.8815   3
   0   0   3 41331.6 236.524   1
   0   0   3 42043.5 181.389   3
   0   0   4 750.618 79.8086   1
   0   0   4 805.235 60.3444   3
   0   0   5 1503.67 94.3310   1
   0   0   5 1656.64 75.9491   3
   0   0   6 1776.75 79.8731   3
   0   0   6 1926.02 105.763   1
   0   0   7 4605.01 107.459   3
   0   0   7 4881.45 151.015   1
   0   0   8 12379.4 167.645   3
   0   0   8 13589.7 235.376   1
   0   0   9 783.104 76.7869   3
   0   0   9 840.735 118.313   1
   0   0  10 224.525 74.5927   3
   0   0  11 9512.58 184.611   3
   0   0  11 11611.9 278.979   1
   0   0  12 8677.54 262.522   1
   0   0  13 345.220 145.656   1
   0   0  15 606.775 170.945   1
   0   1 -15-60.7685 135.040   4
   0   1 -14 1738.38 157.587   4
   0   1 -13 1788.18 151.667   4
   0   1 -12 1643.74 146.834   4
   0   1 -12 1619.52 129.812   2
   0   1 -11 2125.02 150.641   4
   0   1 -11 2356.02 130.805   2
   0   1 -10 2036.70 139.986   4
   0   1 -10 2292.48 129.002   2
   0   1  -9 2312.83 133.315   4
   0   1  -9 2173.88 115.803   2
   0   1  -8 157.921 74.2476   2
   0   1  -8 120.689 87.7925   4
   0   1  -7 2893.09 106.641   2
   0   1  -7 3207.70 122.930   4
   0   1  -6 10975.9 165.096   2
   0   1  -6 10439.1 174.619   4
   0   1  -5 9738.72 158.182   4
   0   1  -5 9822.48 151.488   2
   0   1  -4 39599.6 263.059   2
   0   1  -4 38487.2 263.687   4
   0   1  -3 20816.4 179.198   2
   0   1  -3 19930.2 169.914   4
   0   1  -2 8630.68 115.087   2
   0   1  -2 9801.56 109.231   4
   0   1  -1 40925.7 200.217   2
   0   1  -1 42083.9 173.410   4
   0   1   0 37787.9 181.406   2
   0   1   0 37713.7 162.448   4
   0   1   2 20797.1 155.448   1
   0   1   2 20073.1 117.986   3
   0   1   3 37405.5 163.586   3
   0   1   3 35576.5 237.448   1
   0   1   4 210.617 44.4129   3
   0   1   4 210.561 74.2000   1
   0   1   5 36443.4 197.451   3
   0   1   5 33577.9 303.150   1
   0   1   6 10795.4 120.691   3
   0   1   6 11165.3 195.832   1
   0   1   7 4263.05 96.0418   3
   0   1   7 4700.47 155.770   1
   0   1   8 4791.55 173.929   1
   0   1   8 4273.52 103.798   3
   0   1   9 1984.04 148.572   1
   0   1   9 1895.17 89.1321   3
   0   1  10 64.2836 118.447   1
   0   1  10 146.487 73.5569   3
   0   1  11 8800.85 256.467   1
   0   1  12 3201.98 193.472   1
   0   1  13 4199.27 213.245   1
   0   1  14 422.891 154.764   1
   0   1  15 352.358 160.231   1
   0   2 -14 2188.11 157.795   4
   0   2 -13 1640.38 144.279   4
   0   2 -12 4118.66 179.329   4
   0   2 -12 4290.40 183.374   2
   0   2 -11 1992.02 145.955   4
   0   2 -11 1978.72 140.136   2
   0   2 -10 4882.06 163.092   2
   0   2 -10 4858.54 171.314   4
   0   2  -9 8169.94 192.279   2
   0   2  -9 7512.69 188.229   4
   0   2  -8 3599.96 131.847   2
   0   2  -8 3822.45 142.185   4
   0   2  -7 1089.29 97.4911   2
   0   2  -7 971.591 98.3886   4
   0   2  -6 35067.5 318.345   2
   0   2  -6 35700.3 311.479   4
   0   2  -5 13888.7 197.772   2
   0   2  -5 13283.5 182.203   4
   0   2  -4 10901.9 173.152   2
   0   2  -4 11240.5 158.145   4
   0   2  -3 853.221 77.5890   2
   0   2  -3 816.166 63.6691   4
   0   2  -2 11832.2 163.442   2
   0   2  -2 12164.0 139.006   4
   0   2  -1 2336.07 92.1538   2
   0   2  -1 2303.40 75.2133   4
   0   2   0 15444.2 170.606   2
   0   2   0 15568.4 154.014   4
   0   2   1 10480.5 131.565   4
   0   2   3 8840.94 137.846   1
   0   2   4 3006.09 78.8641   3
   0   2   4 3287.26 109.907   1
   0   2   5 19895.0 168.820   3
   0   2   5 20114.4 239.954   1
   0   2   6 10518.3 134.434   3
   0   2   6 10026.4 192.536   1
   0   2   7 3792.89 91.9380   3
   0   2   7 3948.51 149.749   1
   0   2   8 6233.43 117.753   3
   0   2   8 6084.76 186.515   1
   0   2   9 1935.34 83.1657   3
   0   2   9 2279.89 153.627   1
   0   2  11 5854.65 228.804   1
   0   2  13 3334.03 204.337   1
   0   2  14 682.506 155.761   1
   0   2  15-102.442 149.314   1
   0   3 -13 1351.91 135.172   4
   0   3 -12 1548.96 143.414   2
   0   3 -12 1353.66 135.076   4
   0   3 -11 323.054 116.550   2
   0   3 -11 202.025 102.599   4
   0   3 -10 839.427 115.209   2
   0   3 -10 875.265 119.574   4
   0   3  -9 4453.93 165.120   2
   0   3  -9 4149.86 157.194   4
   0   3  -8 2995.24 141.234   2
   0   3  -8 3135.58 144.303   4
   0   3  -7 6808.98 177.899   2
   0   3  -7 5949.12 151.512   4
   0   3  -6 2989.38 115.374   4
   0   3  -6 2965.60 128.071   2
   0   3  -5 201.986 86.5396   2
   0   3  -5 46.2320 71.4943   4
   0   3  -4 5949.93 156.960   2
   0   3  -4 6192.47 132.345   4
   0   3  -3 2752.95 120.245   2
   0   3  -3 2791.98 98.0148   4
   0   3  -2 17989.0 239.516   2
   0   3  -2 17932.2 197.679   4
   0   3  -1 513.130 84.5000   2
   0   3  -1 403.048 62.7730   4
   0   3   0 2841.67 112.086   2
   0   3   0 2640.82 94.1863   4
   0   3   1 3887.37 121.730   2
   0   3   1 3770.89 108.806   4
   0   3   2 4977.17 121.879   4
   0   3   4 11386.9 181.274   1
   0   3   4 11083.0 160.397   3
   0   3   5 39859.3 273.530   3
   0   3   5 41011.9 353.846   1
   0   3   6 3643.07 100.980   3
   0   3   6 3905.83 149.085   1
   0   3   7 356.417 103.115   1
   0   3   7 495.234 71.1479   3
   0   3   8 6845.21 140.547   3
   0   3   8 6059.03 193.852   1
   0   3   9 1160.98 137.935   1
   0   3  10 742.697 138.879   1
   0   3  11 353.646 141.262   1
   0   3  12 762.899 153.613   1
   0   3  13 497.320 155.114   1
   0   3  15 309.440 164.024   1
   0   4 -12 2972.99 176.037   2
   0   4 -12 2842.88 157.923   4
   0   4 -11 245.382 123.792   2
   0   4 -11 257.825 109.022   4
   0   4 -10 1243.21 123.295   4
   0   4  -9 4449.83 182.953   2
   0   4  -9 4872.32 178.853   4
   0   4  -8 1617.33 132.709   2
   0   4  -8 1780.34 117.737   4
   0   4  -7 892.460 115.863   2
   0   4  -7 1068.15 108.481   4
   0   4  -6 3522.26 165.150   2
   0   4  -6 3377.56 136.665   4
   0   4  -5 1354.97 127.520   2
   0   4  -5 1486.62 104.897   4
   0   4  -4 7316.75 200.256   2
   0   4  -4 6481.30 150.684   4
   0   4  -3 2474.22 138.258   2
   0   4  -3 2125.46 104.482   4
   0   4  -2 5285.63 175.857   2
   0   4  -2 4487.68 124.652   4
   0   4  -1 13165.3 246.539   2
   0   4  -1 12006.0 189.255   4
   0   4   0 11955.7 229.363   2
   0   4   0 11383.2 185.842   4
   0   4   1 10713.2 216.637   2
   0   4   1 10362.1 183.976   4
   0   4   2 10230.7 185.787   4
   0   4   2 10709.9 208.550   2
   0   4   3 4503.38 146.810   2
   0   4   3 4097.11 132.245   4
   0   4   4 6251.41 155.823   1
   0   4   4 6616.39 160.268   4
   0   4   5 6037.98 153.539   3
   0   4   5 6010.41 165.232   1
   0   4   6 983.232 107.004   1
   0   4   7 3098.21 118.839   3
   0   4   7 3408.20 154.959   1
   0   4   8 3105.08 160.163   1
   0   4   8 3163.69 125.765   3
   0   4  10 3647.56 187.107   1
   0   4  11 1365.03 153.211   1
   0   4  12 1778.97 176.867   1
   0   4  13 3644.25 216.481   1
   0   4  14 2155.55 200.274   1
   0   5 -10 230.050 130.484   2
   0   5  -9 695.728 118.993   4
   0   5  -8 1519.24 153.673   2
   0   5  -8 1379.37 125.832   4
   0   5  -7 1497.21 148.778   2
   0   5  -7 1811.90 131.804   4
   0   5  -6 571.567 135.261   2
   0   5  -6 480.304 106.033   4
   0   5  -5 7070.17 226.453   2
   0   5  -5 6755.42 186.927   4
   0   5  -4 6799.71 226.052   2
   0   5  -4 6567.74 175.514   4
   0   5  -3 1786.40 147.401   2
   0   5  -3 1735.81 115.386   4
   0   5  -2 2143.36 155.159   2
   0   5  -2 1904.33 118.265   4
   0   5  -1 8567.75 238.172   2
   0   5  -1 7416.49 180.108   4
   0   5   0 10699.4 253.328   2
   0   5   0 8935.98 192.236   4
   0   5   1 5849.22 198.823   2
   0   5   1 4940.50 159.161   4
   0   5   2 3696.26 164.956   2
   0   5   2 3398.96 140.972   4
   0   5   3 449.512 105.203   2
   0   5   4 2073.26 129.347   2
   0   5   4 1837.60 119.289   4
   0   5   5 2175.45 125.811   1
   0   5   5 2657.97 140.577   2
   0   5   5 2214.60 145.387   3
   0   5   5 2434.66 130.454   4
   0   5   6 3322.97 157.865   3
   0   5   6 3275.29 151.473   1
   0   5   6 3668.71 152.820   4
   0   5   7 2273.59 137.046   3
   0   5   7 2347.94 150.491   1
   0   5   8 1714.13 140.141   1
   0   5   9 46.3413 112.539   1
   0   5  10 1326.74 152.714   1
   0   5  11 1061.57 151.021   1
   0   6  -8 623.104 153.420   2
   0   6  -7 1667.47 172.396   2
   0   6  -6 376.788 145.324   2
   0   6  -5 318.362 141.447   2
   0   6  -3 1748.69 164.820   2
   0   6  -3 1420.96 123.832   4
   0   6  -2 1179.06 111.807   4
   0   6  -1 1244.40 113.758   4
   0   6   0 564.326 144.996   2
   0   6   1 6462.75 230.100   2
   0   6   1 5584.62 174.257   4
   0   6   2 4180.44 209.229   2
   0   6   2 3324.62 162.459   4
   0   6   3 9898.01 263.130   2
   0   6   3 9557.35 232.948   4
   0   6   4 5005.77 187.567   1
   0   6   4 5217.40 200.139   2
   0   6   4 5273.74 186.569   4
   0   6   5 172.257 102.160   1
   0   6   5 310.902 125.367   3
   0   6   5 27.7181 102.742   2
   0   6   5 219.982 96.4888   4
   0   6   6 835.882 116.030   1
   0   6   6 1016.93 119.800   4
   0   6   7 1530.33 134.852   2
   0   6   7 1449.78 132.509   1
   0   6   7 1206.45 122.742   4
   0   6   8 448.285 120.288   2
   0   6   8 290.448 109.634   1
   0   6   8 300.520 104.734   4
   0   6   9 1156.71 139.936   1
   0   6   9 1418.18 137.711   4
   0   6  10 3705.76 191.803   1
   0   7  -4 2923.53 213.317   2
   0   7  -3 764.589 161.232   2
   0   7   0 3388.18 212.441   2
   0   7   2 574.461 147.236   2
   0   7   3 76.5250 127.942   2
   0   7   4 553.973 127.816   2
   0   7   5 376.341 118.915   2
   0   7   5 359.210 133.009   3
   0   7   6 1106.01 125.868   4
   0   7   7 1233.80 132.404   4
   1  -7  -3 2600.24 199.190   2
   1  -7  -3 2340.15 180.715   3
   1  -7  -2 322.421 137.085   3
   1  -7  -1 683.205 138.706   3
   1  -7  -1 539.321 158.026   2
   1  -7   0 472.457 158.684   2
   1  -7   0 600.697 135.007   3
   1  -6  -8 529.056 161.444   4
   1  -6  -8 509.048 143.778   2
   1  -6  -7 68.7388 141.496   4
   1  -6  -7 171.298 133.753   2
   1  -6  -6 259.578 131.813   2
   1  -6  -6 257.137 144.979   4
   1  -6  -5 204.855 128.006   2
   1  -6  -5 236.966 146.694   4
   1  -6  -4 529.740 121.962   3
   1  -6  -1 2238.58 154.534   3
   1  -6  -1 1781.96 171.497   2
   1  -6   0 2314.26 157.996   3
   1  -6   0 2288.42 180.276   2
   1  -6   1 1496.20 150.958   3
   1  -6   2 2497.06 168.286   3
   1  -6   2 2579.31 192.496   2
   1  -6   3 5442.39 209.356   3
   1  -6   3 4998.25 237.290   2
   1  -6   4 645.702 140.687   3
   1  -6   5 2396.23 170.128   3
   1  -6   6 394.296 135.278   3
   1  -5 -10 2212.23 195.837   4
   1  -5  -9 387.481 130.629   2
   1  -5  -8 1467.38 168.886   4
   1  -5  -8 1202.06 149.779   2
   1  -5  -7 4172.67 194.848   2
   1  -5  -7 4747.58 212.760   4
   1  -5  -6 1774.81 153.983   2
   1  -5  -6 1676.41 160.180   4
   1  -5  -5 1342.26 146.590   2
   1  -5  -5 1426.06 119.823   3
   1  -5  -4 2903.84 173.262   2
   1  -5  -4 2535.38 170.208   4
   1  -5  -4 2749.68 139.676   3
   1  -5  -3 3397.68 147.291   3
   1  -5  -3 3154.02 180.834   2
   1  -5  -1 9698.38 221.862   3
   1  -5  -1 9992.11 264.985   2
   1  -5   0 12803.5 252.024   3
   1  -5   0 12240.4 287.807   2
   1  -5   1 10889.3 237.637   3
   1  -5   1 11085.6 279.890   2
   1  -5   2 5838.10 187.530   3
   1  -5   2 5919.74 216.935   2
   1  -5   3 877.138 128.621   3
   1  -5   3 1087.02 143.174   2
   1  -5   4 3809.00 173.875   3
   1  -5   4 4139.57 201.108   2
   1  -5   5 1772.98 150.432   3
   1  -5   6 367.648 124.303   3
   1  -5   7 192.407 126.644   3
   1  -5   8 1151.27 145.807   3
   1  -5   9 416.267 137.587   3
   1  -4 -13 244.679 158.756   4
   1  -4 -12 1480.81 175.754   4
   1  -4 -11 328.025 141.588   4
   1  -4 -10 1611.28 158.515   4
   1  -4  -9 2267.69 169.036   4
   1  -4  -9 2393.19 154.632   2
   1  -4  -8 1188.59 152.710   4
   1  -4  -8 1124.37 130.450   2
   1  -4  -7 2628.49 161.268   2
   1  -4  -7 2746.97 174.800   4
   1  -4  -6 1451.17 146.405   4
   1  -4  -6 1080.04 122.582   2
   1  -4  -5 245.697 107.237   2
   1  -4  -5 232.205 84.8756   3
   1  -4  -5 251.578 121.674   4
   1  -4  -4 3591.06 129.186   3
   1  -4  -4 3350.11 122.894   1
   1  -4  -4 3394.98 160.945   4
   1  -4  -4 3546.56 170.113   2
   1  -4  -3 429.747 116.434   4
   1  -4  -2 1286.62 106.390   3
   1  -4  -2 1003.53 82.2451   1
   1  -4  -2 1074.51 123.511   2
   1  -4  -1 7032.13 167.124   3
   1  -4  -1 7060.97 203.211   2
   1  -4  -1 6616.30 139.484   1
   1  -4   1 2432.39 134.307   3
   1  -4   1 2611.18 151.970   2
   1  -4   1 2422.84 90.6227   1
   1  -4   2 4012.28 153.904   3
   1  -4   2 3833.72 169.283   2
   1  -4   2 3628.37 103.528   1
   1  -4   3 6795.68 188.163   3
   1  -4   3 6701.22 201.806   2
   1  -4   4 3440.24 166.401   2
   1  -4   4 3418.65 160.091   3
   1  -4   5 5543.58 187.598   3
   1  -4   6 476.051 121.274   3
   1  -4   7 1290.21 134.397   3
   1  -4   8 423.318 120.782   3
   1  -4   9 434.334 118.714   3
   1  -4  11 1494.01 151.277   3
   1  -3 -14 672.805 170.163   4
   1  -3 -13 6795.34 262.387   4
   1  -3 -12 5549.99 235.459   4
   1  -3 -11 755.504 142.272   4
   1  -3 -10 163.915 104.855   2
   1  -3 -10 111.584 123.607   4
   1  -3  -9 256.678 107.312   2
   1  -3  -9 333.388 131.169   4
   1  -3  -8 6723.74 217.398   4
   1  -3  -8 6336.58 192.170   2
   1  -3  -7 8742.72 220.687   4
   1  -3  -7 9897.08 223.510   2
   1  -3  -6 15987.1 273.470   4
   1  -3  -6 15465.3 186.478   3
   1  -3  -5 9228.21 207.412   2
   1  -3  -5 9170.32 218.624   4
   1  -3  -5 8910.26 151.854   3
   1  -3  -4 8719.17 203.472   2
   1  -3  -4 8362.87 145.733   3
   1  -3  -3 4555.46 115.488   3
   1  -3  -3 4257.17 115.308   1
   1  -3  -3 4142.54 150.287   2
   1  -3  -3 4668.53 158.285   4
   1  -3  -2 1033.82 80.4176   3
   1  -3  -2 1191.50 74.1487   1
   1  -3  -2 1106.82 109.935   2
   1  -3  -2 992.793 108.360   4
   1  -3  -1 58.9794 90.3707   2
   1  -3   0 13331.2 195.117   3
   1  -3   0 13525.7 236.328   2
   1  -3   0 12880.5 141.263   1
   1  -3   1 284.787 96.0017   2
   1  -3   2 199.749 90.7881   3
   1  -3   2 211.633 90.9676   2
   1  -3   2 177.802 50.3760   1
   1  -3   3 2465.77 86.9882   1
   1  -3   3 2662.90 133.667   3
   1  -3   3 2415.94 129.529   2
   1  -3   4 11615.2 221.246   3
   1  -3   4 11147.4 160.976   1
   1  -3   4 11223.0 215.287   2
   1  -3   5 10801.0 223.586   3
   1  -3   5 10836.3 175.100   1
   1  -3   6 1771.78 137.856   3
   1  -3   6 1967.89 105.624   1
   1  -3   7 6944.69 203.281   3
   1  -3   7 6271.98 162.981   1
   1  -3   8 11513.7 251.710   3
   1  -3   8 10701.9 210.578   1
   1  -3   9 218.566 124.472   3
   1  -3  10 1228.50 146.296   3
   1  -3  10 1200.21 126.404   1
   1  -3  11 1859.86 161.544   3
   1  -3  11 2197.65 147.050   1
   1  -3  12 231.205 119.168   1
   1  -3  12 312.956 130.771   3
   1  -3  13 1758.75 153.639   3
   1  -2 -15 654.181 171.418   4
   1  -2 -10 3593.02 179.498   4
   1  -2 -10 3519.82 148.150   2
   1  -2  -9 565.848 95.0477   2
   1  -2  -9 602.504 123.950   4
   1  -2  -8 3436.17 160.294   4
   1  -2  -8 3548.35 138.816   2
   1  -2  -7 9071.40 214.838   4
   1  -2  -7 9651.96 194.912   2
   1  -2  -6 4784.17 160.155   4
   1  -2  -6 4918.41 149.274   2
   1  -2  -5 195.237 86.0763   2
   1  -2  -5 172.456 92.2204   4
   1  -2  -4 7334.17 165.935   4
   1  -2  -4 7652.11 169.961   2
   1  -2  -4 7347.27 109.811   3
   1  -2  -3 21649.4 178.196   3
   1  -2  -3 22531.9 267.681   4
   1  -2  -3 22256.6 261.326   2
   1  -2  -2 1627.90 75.2152   3
   1  -2  -2 1585.53 70.8011   1
   1  -2  -2 1599.30 103.834   4
   1  -2  -1 23924.0 208.907   3
   1  -2  -1 24340.8 164.082   1
   1  -2  -1 23897.3 264.420   2
   1  -2  -1 24270.4 257.111   4
   1  -2   0 8081.36 146.803   3
   1  -2   0 7820.89 166.951   2
   1  -2   0 8101.04 87.6439   1
   1  -2   1 5090.51 127.859   3
   1  -2   1 4905.85 135.842   2
   1  -2   1 5067.80 74.4220   1
   1  -2   2 4226.03 81.6773   1
   1  -2   2 4422.03 127.421   3
   1  -2   2 4131.26 127.511   2
   1  -2   3 3540.95 86.1113   1
   1  -2   3 3690.24 118.291   2
   1  -2   4 40609.3 270.227   1
   1  -2   4 40651.5 328.346   2
   1  -2   5 8000.36 180.541   3
   1  -2   5 7996.35 141.582   1
   1  -2   6 9390.62 201.024   3
   1  -2   6 8624.06 161.600   1
   1  -2   7 2296.16 135.914   3
   1  -2   7 2208.33 110.153   1
   1  -2   8 5422.52 184.147   3
   1  -2   8 5324.62 151.261   1
   1  -2   9 10899.5 243.396   3
   1  -2   9 10040.9 214.002   1
   1  -2  10 2378.06 138.417   1
   1  -2  10 2202.52 148.490   3
   1  -2  11 103.189 115.374   3
   1  -2  11 47.1357 108.114   1
   1  -2  12 519.508 122.630   3
   1  -2  12 425.465 123.204   1
   1  -2  13 361.604 126.245   3
   1  -2  13 253.159 126.642   1
   1  -2  14-13.2506 135.968   1
   1  -1 -15 189.383 149.442   4
   1  -1 -14 476.579 149.842   4
   1  -1 -13 2621.99 181.385   4
   1  -1 -12 13.2879 124.245   4
   1  -1 -11 758.815 108.776   2
   1  -1 -10 5958.48 195.934   4
   1  -1 -10 5622.19 170.187   2
   1  -1  -9 1983.63 134.584   4
   1  -1  -9 1651.21 112.984   2
   1  -1  -8 770.981 104.017   4
   1  -1  -8 834.022 95.8706   2
   1  -1  -7 3363.78 139.525   4
   1  -1  -7 3348.08 122.378   2
   1  -1  -6 2739.16 112.120   2
   1  -1  -6 2926.28 122.755   4
   1  -1  -5 25620.0 268.819   4
   1  -1  -5 24502.3 254.189   2
   1  -1  -4 13129.9 187.268   4
   1  -1  -4 12803.1 185.136   2
   1  -1  -4 12458.6 78.3097   3
   1  -1  -3 39330.0 295.366   2
   1  -1  -3 39034.9 288.754   4
   1  -1  -2 64740.1 228.829   3
   1  -1  -2 64041.2 355.304   4
   1  -1  -1 4972.93 92.2566   3
   1  -1  -1 5049.32 118.184   4
   1  -1  -1 4847.61 118.915   2
   1  -1   0 35359.3 109.566   1
   1  -1   0 35822.8 254.907   2
   1  -1   1 15347.7 163.662   3
   1  -1   1 15320.1 167.876   2
   1  -1   2 9789.78 146.551   3
   1  -1   2 9787.00 138.227   2
   1  -1   3 9171.59 133.278   2
   1  -1   3 8981.89 112.313   1
   1  -1   4 15579.8 200.475   3
   1  -1   4 15928.1 164.201   1
   1  -1   5 6292.66 149.669   3
   1  -1   5 6330.95 126.676   1
   1  -1   6 1831.81 112.973   3
   1  -1   6 1695.86 95.3716   1
   1  -1   7 582.741 96.0572   3
   1  -1   7 588.900 86.0875   1
   1  -1   8 2299.77 126.337   3
   1  -1   8 2298.41 121.009   1
   1  -1   9 24174.9 313.141   3
   1  -1   9 25949.8 325.661   1
   1  -1  10 6126.17 189.417   3
   1  -1  10 6810.34 198.782   1
   1  -1  11 84.0588 107.484   3
   1  -1  11 333.879 122.605   1
   1  -1  12 713.872 125.488   3
   1  -1  13 1121.35 155.153   1
   1  -1  14 45.9504 136.419   1
   1  -1  15 1698.63 182.739   1
   1   0 -14 376.971 135.737   4
   1   0 -13 522.034 134.940   4
   1   0 -12 272.085 117.689   2
   1   0 -12 166.427 117.308   4
   1   0 -11 3970.54 175.461   4
   1   0 -11 4096.51 174.840   2
   1   0 -10 5769.69 183.820   4
   1   0 -10 6064.53 184.088   2
   1   0  -9 5899.60 173.208   4
   1   0  -9 6502.41 177.951   2
   1   0  -8 11531.9 209.117   4
   1   0  -8 11972.5 208.508   2
   1   0  -7 7105.09 162.599   4
   1   0  -7 7709.20 167.179   2
   1   0  -6 1605.30 99.9894   2
   1   0  -6 1603.04 98.9475   4
   1   0  -5 1623.38 88.2363   4
   1   0  -5 1919.67 98.5648   2
   1   0  -4 2090.31 89.8222   4
   1   0  -4 2274.61 101.635   2
   1   0  -3 12450.2 147.189   4
   1   0  -3 14222.8 180.660   2
   1   0  -2 12971.6 58.1925   3
   1   0  -2 13273.2 160.236   2
   1   0  -1 69475.1 175.959   3
   1   0  -1 68556.2 293.269   2
   1   0  -1 68617.6 277.365   4
   1   0   0 71780.2 222.493   3
   1   0   0 71666.7 270.178   2
   1   0   1 9429.73 106.334   3
   1   0   1 9323.00 99.7986   2
   1   0   2 61056.8 274.108   3
   1   0   2 60968.9 220.680   2
   1   0   2 60896.0 219.418   1
   1   0   3 4570.31 74.8099   2
   1   0   3 4336.63 95.9293   1
   1   0   4 5087.11 121.426   3
   1   0   4 4974.73 116.510   1
   1   0   5 8903.29 159.382   1
   1   0   5 9005.42 160.036   3
   1   0   6 1766.25 109.202   1
   1   0   6 1702.29 102.675   3
   1   0   7 552.611 97.5638   3
   1   0   8 5167.50 165.672   1
   1   0   8 5232.16 158.983   3
   1   0   9 8355.88 192.017   3
   1   0   9 8412.77 212.344   1
   1   0  10 3448.44 149.199   3
   1   0  10 3722.68 174.441   1
   1   0  11 361.388 111.526   3
   1   0  11 262.927 121.934   1
   1   0  12 1860.17 140.628   3
   1   0  12 1967.66 163.185   1
   1   0  13 1383.53 164.782   1
   1   0  14 56.4622 146.633   1
   1   0  15 1600.87 185.334   1
   1   1 -15 2149.00 171.751   4
   1   1 -13 2512.54 164.436   4
   1   1 -12 149.945 120.114   2
   1   1 -12 317.692 111.641   4
   1   1 -11 3208.43 154.997   4
   1   1 -11 3229.40 158.129   2
   1   1 -10 3794.34 152.154   4
   1   1 -10 3927.45 157.408   2
   1   1  -9 8874.00 195.578   4
   1   1  -9 9750.29 204.891   2
   1   1  -8 1672.48 105.124   4
   1   1  -8 1598.75 107.956   2
   1   1  -7 3747.82 121.789   4
   1   1  -7 3733.09 130.014   2
   1   1  -6 2790.18 101.892   4
   1   1  -6 2505.29 107.948   2
   1   1  -5 10671.8 149.903   4
   1   1  -5 10731.4 171.817   2
   1   1  -4 45440.5 255.758   4
   1   1  -4 44382.7 305.132   2
   1   1  -3 517.630 52.7295   4
   1   1  -3 497.308 72.2235   2
   1   1  -2 46961.0 181.573   4
   1   1  -2 45701.4 262.771   2
   1   1  -1 20899.1 133.262   3
   1   1  -1 20637.1 157.261   2
   1   1   0 8867.74 92.9572   3
   1   1   0 8735.79 45.7275   4
   1   1   1 44973.2 203.946   3
   1   1   1 39512.9 145.349   2
   1   1   2 123742. 361.396   3
   1   1   2 84220.4 144.473   2
   1   1   3 58280.1 294.366   1
   1   1   3 60244.4 275.219   3
   1   1   4 169946. 504.166   3
   1   1   4 164454. 561.269   1
   1   1   5 32956.5 246.666   3
   1   1   5 33744.3 285.539   1
   1   1   6 3452.98 107.056   3
   1   1   6 3410.02 127.014   1
   1   1   7 29618.7 265.210   3
   1   1   7 30211.0 328.716   1
   1   1   8 5043.84 137.738   3
   1   1   8 4898.50 167.806   1
   1   1   9 9963.32 189.505   3
   1   1   9 10840.5 248.390   1
   1   1  10 5701.28 208.910   1
   1   1  10 5763.10 165.866   3
   1   1  11 506.836 136.787   1
   1   1  13 3466.96 204.132   1
   1   1  14 2492.00 194.363   1
   1   1  15 2651.50 219.259   1
   1   2 -14 4363.86 183.610   4
   1   2 -13 3069.70 160.826   4
   1   2 -13 3583.23 189.387   2
   1   2 -12 9500.90 229.866   4
   1   2 -12 10705.8 264.373   2
   1   2 -11 1392.44 126.967   4
   1   2 -11 1777.10 149.558   2
   1   2 -10 91.0528 111.830   2
   1   2 -10 184.542 96.8853   4
   1   2  -9 2622.25 128.488   4
   1   2  -9 2691.58 142.433   2
   1   2  -8 10127.0 187.347   4
   1   2  -8 10783.3 219.223   2
   1   2  -7 2937.15 125.285   2
   1   2  -7 3109.67 113.316   4
   1   2  -6 1806.69 102.469   2
   1   2  -6 1840.60 89.3369   4
   1   2  -5 6687.98 153.021   2
   1   2  -5 6833.90 123.680   4
   1   2  -4 40690.1 318.462   2
   1   2  -4 39328.5 240.307   4
   1   2  -3 14105.2 183.333   2
   1   2  -3 14354.9 132.406   4
   1   2  -2 664.363 75.8705   2
   1   2  -2 724.592 43.7388   4
   1   2  -1 14280.9 160.945   2
   1   2  -1 13979.1 85.0672   4
   1   2   0 80278.2 337.268   2
   1   2   0 75730.3 193.367   4
   1   2   1 2383.97 77.6641   2
   1   2   1 2151.14 84.5518   3
   1   2   2 17244.3 133.834   2
   1   2   2 17413.1 164.884   3
   1   2   3 44055.2 188.787   2
   1   2   3 44841.0 254.097   3
   1   2   4 2509.74 110.694   1
   1   2   4 2634.46 90.4574   3
   1   2   5 9490.94 152.299   3
   1   2   5 9477.41 182.293   1
   1   2   6 5351.23 118.590   3
   1   2   6 4864.04 154.117   1
   1   2   7 17411.7 204.794   3
   1   2   7 17100.2 262.663   1
   1   2   8 1756.33 95.8688   3
   1   2   8 1766.70 131.619   1
   1   2   9 1566.30 102.884   3
   1   2   9 1909.98 150.007   1
   1   2  10 398.642 87.4701   3
   1   2  10 332.993 128.610   1
   1   2  11 3191.48 141.315   3
   1   2  11 3294.69 195.345   1
   1   2  12 3306.95 207.982   1
   1   2  13 484.698 156.863   1
   1   2  14 2654.65 204.438   1
   1   2  15 4576.39 247.930   1
   1   3 -13 383.175 138.450   2
   1   3 -13 259.244 107.455   4
   1   3 -12 1646.24 127.887   4
   1   3 -12 1718.94 165.271   2
   1   3 -11 1658.86 126.811   4
   1   3 -11 1654.26 157.694   2
   1   3 -10 7448.49 216.687   2
   1   3 -10 6596.57 182.291   4
   1   3  -9 8452.33 210.815   2
   1   3  -9 7936.56 183.380   4
   1   3  -8 2213.87 134.078   2
   1   3  -8 2116.59 110.347   4
   1   3  -7 3792.21 144.588   2
   1   3  -7 3290.53 114.071   4
   1   3  -6 4181.69 143.257   2
   1   3  -6 3701.22 109.792   4
   1   3  -5 8489.67 180.276   2
   1   3  -5 7973.82 143.907   4
   1   3  -4 819.459 90.1376   2
   1   3  -4 791.008 59.6698   4
   1   3  -3 12046.5 189.106   2
   1   3  -3 12587.6 134.833   4
   1   3  -2 59802.0 394.341   2
   1   3  -2 58565.2 253.880   4
   1   3  -1 24360.7 240.239   2
   1   3  -1 24741.4 161.702   4
   1   3   0 732.529 55.3797   4
   1   3   1 22684.2 212.071   2
   1   3   1 23300.1 182.211   4
   1   3   2 5658.26 116.061   2
   1   3   2 5076.22 128.403   3
   1   3   3 10697.8 141.976   2
   1   3   3 10005.4 162.923   3
   1   3   4 974.468 62.5703   2
   1   3   4 831.724 74.7408   3
   1   3   5 2962.22 128.791   1
   1   3   5 2821.69 100.039   3
   1   3   6 8037.66 151.764   3
   1   3   6 7843.00 191.286   1
   1   3   7 1732.10 91.2017   3
   1   3   7 1717.47 131.044   1
   1   3   8 628.195 84.8884   3
   1   3   9 8071.24 181.640   3
   1   3   9 7338.47 223.616   1
   1   3  10 2911.67 129.305   3
   1   3  10 2666.74 171.807   1
   1   3  11 3659.03 206.515   1
   1   3  12 4048.99 208.481   1
   1   3  13 91.4744 142.865   1
   1   3  15 256.714 165.826   1
   1   4 -12 1724.11 167.977   2
   1   4 -11 4703.07 196.582   2
   1   4 -11 5081.35 174.298   4
   1   4 -10 442.568 98.9749   4
   1   4  -9 334.931 109.892   2
   1   4  -9 342.421 89.7246   4
   1   4  -8 103.045 101.089   2
   1   4  -8 213.813 83.0963   4
   1   4  -7 941.550 115.946   2
   1   4  -7 1012.74 90.0017   4
   1   4  -6 7855.59 194.419   2
   1   4  -6 7502.34 152.575   4
   1   4  -5 3851.51 149.525   2
   1   4  -5 3631.25 109.672   4
   1   4  -4 1558.61 112.330   2
   1   4  -4 1760.99 81.6144   4
   1   4  -3 3656.15 142.224   2
   1   4  -3 3596.49 97.2180   4
   1   4  -2 1265.37 104.145   2
   1   4  -2 910.001 64.5913   4
   1   4  -1 1466.74 104.635   2
   1   4  -1 1350.12 72.1638   4
   1   4   0 7565.77 165.777   2
   1   4   0 6430.50 125.236   4
   1   4   1 729.360 83.0327   2
   1   4   1 540.389 66.3026   4
   1   4   2 1147.80 86.1425   2
   1   4   2 874.801 73.1932   4
   1   4   3 2063.15 96.4367   2
   1   4   3 1832.22 112.776   3
   1   4   4 819.963 77.3411   2
   1   4   4 647.725 88.2981   3
   1   4   5 2728.70 142.046   1
   1   4   5 2806.36 102.435   2
   1   4   5 2595.37 112.096   3
   1   4   6 7928.95 206.258   1
   1   4   6 8123.25 153.020   2
   1   4   6 8387.97 165.690   3
   1   4   7 1689.74 101.763   3
   1   4   7 1853.98 143.251   1
   1   4   8 8714.83 197.384   3
   1   4   8 9202.17 240.915   1
   1   4  10 304.206 95.3135   3
   1   4  10 168.060 126.484   1
   1   4  11 1052.00 152.642   1
   1   4  12 1615.34 174.601   1
   1   4  14 683.328 172.208   1
   1   5 -11 1954.57 161.483   2
   1   5 -10 383.676 119.812   2
   1   5  -9 1851.93 149.245   2
   1   5  -8 199.625 114.111   2
   1   5  -7 742.428 122.290   2
   1   5  -6 4898.50 183.335   2
   1   5  -6 5189.29 142.237   4
   1   5  -5 1125.49 125.111   2
   1   5  -5 1350.92 95.8452   4
   1   5  -4 6375.02 192.886   2
   1   5  -4 6058.83 147.534   4
   1   5  -3 7541.40 207.684   2
   1   5  -3 6938.45 143.746   4
   1   5  -2 2543.32 142.508   2
   1   5  -2 2204.09 94.5543   4
   1   5  -1 470.237 68.7481   4
   1   5   0 6330.34 184.426   2
   1   5   0 5893.70 137.209   4
   1   5   1 8848.89 204.148   2
   1   5   1 7289.99 155.586   4
   1   5   2 1817.97 125.957   2
   1   5   2 1152.76 95.2859   4
   1   5   3 4769.53 153.073   2
   1   5   3 4628.91 177.898   3
   1   5   4 748.357 99.6955   2
   1   5   4 340.740 85.5240   4
   1   5   5 9081.46 191.440   2
   1   5   5 9216.35 228.585   1
   1   5   5 8785.37 206.356   3
   1   5   6 4796.36 183.544   1
   1   5   6 4634.67 145.714   2
   1   5   7 3053.97 129.473   2
   1   5   7 2802.92 164.351   1
   1   5   8 2002.30 129.711   3
   1   5   8 2466.91 167.164   1
   1   5   9 1388.96 123.008   3
   1   5   9 1563.69 155.063   1
   1   5  10 457.242 131.990   1
   1   5  11 1655.98 165.366   1
   1   5  12 2034.45 180.120   1
   1   5  13 124.626 140.617   1
   1   6  -9 2406.55 178.889   2
   1   6  -8 812.381 139.872   2
   1   6  -6 4590.61 198.154   2
   1   6  -5 402.250 121.431   2
   1   6  -4 1396.92 140.180   2
   1   6  -1 3328.71 176.699   2
   1   6   0 4910.26 199.503   2
   1   6   2 14987.9 288.911   2
   1   6   2 14361.2 234.021   4
   1   6   3 5069.72 190.415   2
   1   6   3 5345.86 229.545   3
   1   6   3 4757.83 164.984   4
   1   6   4 2976.22 155.082   2
   1   6   4 2993.85 183.308   3
   1   6   4 2610.49 140.176   4
   1   6   5 4430.50 171.889   2
   1   6   5 4456.30 192.914   1
   1   6   5 4949.12 198.875   3
   1   6   6 4175.44 184.730   1
   1   6   6 4252.77 168.324   2
   1   6   6 4396.87 179.192   3
   1   6   6 3761.85 158.655   4
   1   6   7 333.721 102.041   2
   1   6   7 394.539 127.474   1
   1   6   8 781.705 111.381   3
   1   6   8 510.797 131.170   1
   1   6  10 3091.86 186.030   1
   1   7  -5 68.8213 136.523   2
   1   7  -3 2049.16 176.414   2
   1   7  -2 407.064 138.236   2
   1   7  -1 2128.33 172.260   2
   1   7   2 2623.91 173.586   2
   1   7   3 1787.86 149.248   2
   1   7   3 2035.65 190.585   3
   1   7   4 189.259 109.307   2
   1   7   4 162.568 139.537   3
   1   7   5-15.6111 101.466   2
   1   7   5 214.406 111.994   1
   1   7   6 1449.63 145.402   1
   1   7   7 2072.83 166.212   3
   1   7   7 2430.51 170.623   1
   1   7   8 1498.15 158.096   1
   1   7   8 1375.78 130.138   4
   1   7   9 344.091 138.677   1
   1   7   9 200.114 106.657   4
   2  -6  -6 102.575 154.489   2
   2  -6  -3 3376.71 228.737   2
   2  -6  -2 1084.90 140.074   3
   2  -6  -1-95.8172 155.833   2
   2  -6  -1 279.905 130.594   3
   2  -6   0 2708.75 172.698   3
   2  -6   0 2489.37 199.872   2
   2  -6   1 254.213 137.042   3
   2  -6   1 290.299 164.186   2
   2  -6   2 169.089 145.953   2
   2  -6   2 337.146 132.443   3
   2  -5  -9 379.539 147.807   2
   2  -5  -9 489.387 168.121   4
   2  -5  -8 5042.83 244.142   4
   2  -5  -8 5264.68 245.147   2
   2  -5  -7 146.101 150.592   2
   2  -5  -7-186.463 160.616   4
   2  -5  -6 752.352 158.200   4
   2  -5  -6 788.016 160.985   2
   2  -5  -5 152.441 140.575   2
   2  -5  -5-122.333 146.572   4
   2  -5  -4 556.324 146.392   2
   2  -5  -3 1375.07 128.033   3
   2  -5  -2 2000.19 141.480   3
   2  -5  -2 2260.45 180.753   2
   2  -5  -1 264.084 110.007   3
   2  -5  -1 367.180 147.015   2
   2  -5   0 548.411 119.888   3
   2  -5   2 1866.96 152.809   3
   2  -5   2 1461.70 165.358   2
   2  -5   3 2770.50 166.791   3
   2  -5   3 2603.21 179.874   2
   2  -5   4 2167.58 163.406   3
   2  -5   4 2296.62 172.276   2
   2  -5   5-18.5436 131.348   3
   2  -5   5 388.032 148.914   2
   2  -5   6 388.947 143.411   3
   2  -5   7 1960.31 169.785   3
   2  -5   8 1448.32 169.178   3
   2  -4 -11 1916.88 199.452   4
   2  -4 -10 331.251 141.464   2
   2  -4 -10 332.456 167.251   4
   2  -4  -9 6209.88 262.170   4
   2  -4  -9 5229.34 226.331   2
   2  -4  -6 1560.33 166.164   4
   2  -4  -6 1456.46 156.729   2
   2  -4  -5 1404.98 147.507   2
   2  -4  -4 827.199 99.2466   3
   2  -4  -3 8132.27 188.191   3
   2  -4  -3 10054.7 274.178   2
   2  -4  -2 6271.87 173.030   3
   2  -4  -2 6524.47 235.851   2
   2  -4   0 2156.87 132.616   3
   2  -4   0 2012.44 165.192   2
   2  -4   1 1446.08 133.142   3
   2  -4   1 1380.49 154.090   2
   2  -4   3 27121.5 357.079   3
   2  -4   3 26552.6 394.051   2
   2  -4   4 8213.83 229.863   3
   2  -4   4 8876.59 248.665   2
   2  -4   5 3865.59 185.844   3
   2  -4   5 3540.76 180.530   2
   2  -4   6 1675.38 155.609   3
   2  -4   6 1999.26 153.804   2
   2  -4   7 163.910 136.328   3
   2  -4   8 1367.75 160.050   3
   2  -4   9 1311.35 167.563   3
   2  -4  10 134.317 140.451   3
   2  -3 -13 1679.64 189.897   4
   2  -3 -12 2080.86 191.698   4
   2  -3 -11 607.771 161.040   4
   2  -3 -10 567.943 135.137   2
   2  -3  -9 335.911 126.672   2
   2  -3  -8 383.824 125.418   2
   2  -3  -8 394.297 137.447   4
   2  -3  -7 2837.44 183.227   4
   2  -3  -7 2467.70 159.640   2
   2  -3  -6 6677.41 226.566   4
   2  -3  -6 5851.47 207.908   2
   2  -3  -5 1660.91 153.171   4
   2  -3  -5 1488.95 140.826   2
   2  -3  -5 1228.08 83.3714   3
   2  -3  -4 958.112 83.2404   3
   2  -3  -4 1166.90 134.840   4
   2  -3  -3 6297.62 200.393   4
   2  -3  -3 6925.64 214.824   2
   2  -3  -2 2706.92 117.210   3
   2  -3  -2 2557.77 164.874   2
   2  -3  -1 810.112 96.7709   3
   2  -3   0 2005.40 115.966   3
   2  -3   0 2136.37 151.168   2
   2  -3   1 276.305 117.283   2
   2  -3   2 7851.62 194.772   3
   2  -3   2 8105.11 214.281   2
   2  -3   3 3150.40 156.013   3
   2  -3   3 3505.14 162.641   2
   2  -3   4 859.024 131.040   3
   2  -3   5 7075.10 210.874   3
   2  -3   5 7353.66 200.557   2
   2  -3   6 4571.63 187.831   3
   2  -3   6 4494.93 172.598   2
   2  -3   7 1848.58 158.717   3
   2  -3   8 3326.98 187.060   3
   2  -3   9 4142.62 198.060   3
   2  -3  10 102.528 138.552   3
   2  -3  11 299.806 143.114   3
   2  -3  12 882.183 156.689   3
   2  -2 -13 994.348 170.631   4
   2  -2 -12 3734.10 215.283   4
   2  -2 -12 3594.44 187.368   2
   2  -2 -11 1405.30 169.209   4
   2  -2 -10 6430.94 238.797   4
   2  -2 -10 6165.64 207.590   2
   2  -2  -9 9407.83 259.904   4
   2  -2  -9 9201.94 234.972   2
   2  -2  -8 4016.08 185.064   4
   2  -2  -8 4607.00 179.245   2
   2  -2  -7 5831.88 207.099   4
   2  -2  -7 5978.19 198.383   2
   2  -2  -6 7310.83 217.951   4
   2  -2  -6 6377.81 198.267   2
   2  -2  -5 1030.58 129.942   4
   2  -2  -5 882.897 115.637   2
   2  -2  -5 676.880 57.0376   3
   2  -2  -4 6.61675 99.8023   2
   2  -2  -4 25.6758 50.2113   3
   2  -2  -4 154.909 112.389   4
   2  -2  -3 3154.78 92.2192   3
   2  -2  -3 3161.29 147.279   4
   2  -2  -3 2881.60 141.879   2
   2  -2  -2 9077.25 153.452   3
   2  -2  -2 8598.20 204.026   4
   2  -2  -2 8542.75 214.831   2
   2  -2  -1 29240.2 269.164   3
   2  -2  -1 29049.8 348.453   2
   2  -2   1 958.244 104.067   3
   2  -2   2 4539.33 146.458   3
   2  -2   2 4256.31 149.002   2
   2  -2   3 3563.93 62.2282   1
   2  -2   3 3788.04 142.643   3
   2  -2   3 3685.61 141.194   2
   2  -2   4 3717.42 153.397   3
   2  -2   4 3482.02 81.0957   1
   2  -2   5 8587.58 208.263   3
   2  -2   5 8161.00 134.140   1
   2  -2   6 1696.40 144.048   3
   2  -2   6 1738.81 114.679   2
   2  -2   6 1435.62 87.0736   1
   2  -2   7 139.620 76.1857   1
   2  -2   7 183.079 118.373   3
   2  -2   8 890.646 141.072   3
   2  -2   9 6957.33 227.195   3
   2  -2   9 5310.93 165.229   1
   2  -2  10 1010.81 150.178   3
   2  -2  10 537.499 105.705   1
   2  -2  11 2874.37 186.772   3
   2  -2  12 1337.93 163.673   3
   2  -2  13 1303.53 165.168   3
   2  -1 -12 1729.01 159.355   2
   2  -1 -11 1519.79 158.146   4
   2  -1 -11 1073.52 130.126   2
   2  -1 -10 3183.16 178.446   4
   2  -1 -10 3264.07 161.052   2
   2  -1  -9 5755.64 209.433   4
   2  -1  -9 5788.34 186.512   2
   2  -1  -8 1621.01 141.758   4
   2  -1  -8 1518.78 129.450   2
   2  -1  -7 5032.99 178.867   4
   2  -1  -7 4911.73 165.414   2
   2  -1  -6 4146.18 162.764   4
   2  -1  -6 3900.87 149.181   2
   2  -1  -5 129.225 92.3303   2
   2  -1  -5 151.637 92.8483   4
   2  -1  -4 3631.66 63.5757   3
   2  -1  -4 3829.02 150.255   2
   2  -1  -3 1806.67 67.0462   3
   2  -1  -3 1666.83 113.905   4
   2  -1  -3 1483.04 110.930   2
   2  -1  -2 14164.8 150.487   3
   2  -1  -2 13604.6 213.161   4
   2  -1  -2 13795.2 225.921   2
   2  -1  -1 30435.1 231.805   3
   2  -1  -1 29817.1 299.899   4
   2  -1   0 10207.3 161.979   3
   2  -1   0 9576.95 188.731   2
   2  -1   1 10951.0 176.834   3
   2  -1   1 11047.7 189.448   2
   2  -1   2 666.964 90.8596   3
   2  -1   3 9269.36 182.303   3
   2  -1   3 8828.18 96.7538   1
   2  -1   3 9132.71 164.325   2
   2  -1   4 1464.75 117.752   3
   2  -1   4 1441.79 92.7345   2
   2  -1   4 1187.07 62.1579   1
   2  -1   5 3975.65 151.702   3
   2  -1   5 4159.31 117.453   2
   2  -1   5 3973.76 102.390   1
   2  -1   6 1458.20 128.896   3
   2  -1   6 1679.60 91.4365   2
   2  -1   6 1370.25 87.5798   1
   2  -1   7 931.876 128.739   3
   2  -1   7 835.787 91.7252   1
   2  -1   8 19588.1 313.420   3
   2  -1   8 17917.1 257.074   1
   2  -1   9 2085.89 162.465   3
   2  -1   9 2043.86 132.389   1
   2  -1  10 2948.35 178.510   3
   2  -1  10 2914.68 154.958   1
   2  -1  11 5239.75 205.333   3
   2  -1  11 5590.08 197.957   1
   2  -1  12 91.7000 134.230   3
   2  -1  13-1.32631 128.654   3
   2  -1  13 57.5723 136.742   1
   2  -1  14 605.895 150.325   1
   2   0 -13 2421.24 180.833   4
   2   0 -13 2964.08 181.685   2
   2   0 -12 1314.23 151.439   4
   2   0 -11 269.618 123.769   2
   2   0 -11 198.267 121.383   4
   2   0 -10 1626.93 146.527   4
   2   0 -10 2034.88 151.405   2
   2   0  -9 9120.86 225.584   4
   2   0  -9 9020.25 228.821   2
   2   0  -8 1437.41 128.725   4
   2   0  -8 1416.43 124.624   2
   2   0  -7 4123.44 153.803   4
   2   0  -7 4215.32 162.772   2
   2   0  -6 8956.29 194.231   4
   2   0  -6 8853.37 207.938   2
   2   0  -5 951.687 96.0572   4
   2   0  -5 989.349 106.929   2
   2   0  -4 10855.0 184.828   4
   2   0  -4 11563.1 209.554   2
   2   0  -3 7041.59 145.924   4
   2   0  -3 7047.51 162.740   2
   2   0  -2 15937.6 130.634   3
   2   0  -2 15505.4 197.736   4
   2   0  -1 69059.4 289.734   3
   2   0  -1 68598.2 395.326   2
   2   0   0 2710.04 99.6274   3
   2   0   0 2686.54 108.736   2
   2   0   1 2336.30 96.5209   3
   2   0   1 2294.73 98.9469   2
   2   0   2 21618.9 217.877   3
   2   0   2 22099.2 200.973   2
   2   0   3 38335.2 304.961   3
   2   0   3 38819.5 251.753   2
   2   0   4 29297.9 219.296   1
   2   0   4 28993.4 212.175   2
   2   0   5 24672.1 285.782   3
   2   0   5 24997.5 230.336   1
   2   0   5 25020.9 196.420   2
   2   0   6 2534.94 111.752   1
   2   0   6 2439.03 132.409   3
   2   0   7 9353.61 189.464   1
   2   0   7 9548.69 212.662   3
   2   0   8 34.6448 92.2140   1
   2   0   8 195.981 114.039   3
   2   0  10 7666.38 243.896   3
   2   0  10 6567.99 207.886   1
   2   0  11 6624.97 221.799   3
   2   0  11 6840.61 218.942   1
   2   0  12 43.6693 124.877   3
   2   0  12 208.556 130.393   1
   2   0  13 3134.21 185.094   3
   2   0  13 2902.29 198.678   1
   2   0  14 453.335 140.448   3
   2   0  14 540.508 155.025   1
   2   0  15 885.457 166.522   1
   2   1 -14 393.409 126.924   4
   2   1 -12 299.376 124.115   2
   2   1 -11 466.549 122.717   4
   2   1 -11 692.324 128.102   2
   2   1 -10 2529.32 150.957   2
   2   1  -9 3805.36 158.041   4
   2   1  -9 3454.39 161.950   2
   2   1  -8 3645.02 143.426   4
   2   1  -8 3641.94 155.657   2
   2   1  -7 8537.79 178.862   4
   2   1  -7 8718.69 205.734   2
   2   1  -6 12761.3 198.918   4
   2   1  -6 12505.1 229.373   2
   2   1  -5 23748.0 144.902   3
   2   1  -5 23027.3 239.290   4
   2   1  -4 19192.2 207.743   4
   2   1  -4 19412.9 253.660   2
   2   1  -3 4316.22 74.0720   3
   2   1  -3 4011.91 102.256   4
   2   1  -3 4357.67 132.332   2
   2   1  -2 5037.92 107.682   4
   2   1  -2 5153.52 132.370   2
   2   1  -1 7004.28 122.753   4
   2   1  -1 7279.10 107.060   3
   2   1  -1 7428.61 138.756   2
   2   1   0 9607.98 130.071   3
   2   1   0 10443.8 156.000   2
   2   1   1 3911.92 102.727   3
   2   1   1 4080.91 102.243   2
   2   1   2 32593.6 248.859   3
   2   1   2 32560.9 194.814   2
   2   1   3 32427.2 264.849   3
   2   1   3 34409.7 182.228   2
   2   1   4 19891.5 205.852   1
   2   1   4 19653.7 125.123   2
   2   1   5 12291.4 192.922   3
   2   1   5 11081.6 184.206   1
   2   1   6 405.404 86.6787   3
   2   1   6 459.576 85.5367   1
   2   1   7 753.079 102.486   3
   2   1   7 772.112 97.0583   1
   2   1   8 1793.41 123.935   3
   2   1   8 2252.20 132.232   1
   2   1   9 3465.82 159.859   3
   2   1   9 3068.81 154.477   1
   2   1  10 6208.88 209.580   1
   2   1  10 6202.21 196.866   3
   2   1  11 1449.73 155.729   1
   2   1  11 1090.94 143.973   3
   2   1  12 282.409 131.095   3
   2   1  12 264.974 139.967   1
   2   1  13 394.742 148.965   1
   2   1  13 428.776 140.997   3
   2   1  14 407.927 147.853   1
   2   1  15 410.644 164.479   1
   2   2 -14 1223.97 138.398   4
   2   2 -14 1490.47 170.161   2
   2   2 -13 552.419 158.542   2
   2   2 -12 1899.16 143.824   4
   2   2 -12 2207.04 174.781   2
   2   2 -11 3121.71 156.520   4
   2   2 -11 3875.28 186.644   2
   2   2 -10 6493.96 187.064   4
   2   2 -10 7495.79 223.427   2
   2   2  -9 1748.16 119.171   4
   2   2  -9 1685.60 130.817   2
   2   2  -8 5328.95 152.627   4
   2   2  -8 4890.11 174.741   2
   2   2  -7 7970.90 159.690   4
   2   2  -7 8434.44 200.811   2
   2   2  -6 4109.40 114.581   4
   2   2  -6 4567.91 150.483   2
   2   2  -5 2736.86 92.3783   4
   2   2  -5 2474.96 120.817   2
   2   2  -4 2731.72 81.4436   4
   2   2  -4 2621.09 116.117   2
   2   2  -3 3586.81 90.2603   3
   2   2  -3 3420.73 75.2593   4
   2   2  -3 3297.95 117.318   2
   2   2  -2 14734.4 157.862   3
   2   2  -2 15029.3 114.125   4
   2   2  -2 14462.1 193.864   2
   2   2  -1 15179.8 163.309   3
   2   2  -1 15107.7 183.566   2
   2   2   0 26321.5 211.610   3
   2   2   0 27853.4 224.297   2
   2   2   1 18793.3 186.930   3
   2   2   1 19497.3 173.248   2
   2   2   2 609.855 78.8976   3
   2   2   3 2203.85 96.5421   3
   2   2   3 2017.36 53.6648   2
   2   2   4 14838.1 196.230   3
   2   2   4 11155.3 73.1410   2
   2   2   5 7655.71 163.058   1
   2   2   5 7735.92 152.744   3
   2   2   6 16696.7 228.218   3
   2   2   6 16664.6 246.523   1
   2   2   7 37546.9 343.461   3
   2   2   7 38092.7 383.732   1
   2   2   8 2961.19 129.701   3
   2   2   8 3091.99 150.576   1
   2   2   9 4155.38 149.583   3
   2   2   9 4095.19 176.516   1
   2   2  10 1388.92 127.425   3
   2   2  10 1494.13 151.655   1
   2   2  11 1396.70 135.993   3
   2   2  11 1424.11 152.945   1
   2   2  12 1457.46 145.072   3
   2   2  12 1234.37 162.944   1
   2   2  13 3499.15 213.648   1
   2   2  13 3487.08 179.813   3
   2   2  14 2042.60 196.612   1
   2   2  15 3359.93 232.707   1
   2   3 -13 2890.62 155.701   4
   2   3 -13 3053.41 199.137   2
   2   3 -12 916.558 121.275   4
   2   3 -12 996.277 153.519   2
   2   3 -11 3175.46 140.998   4
   2   3 -11 3264.26 184.204   2
   2   3 -10 12270.6 224.009   4
   2   3 -10 13738.7 290.843   2
   2   3  -9 6747.34 165.741   4
   2   3  -9 7361.60 223.931   2
   2   3  -8 3473.95 122.277   4
   2   3  -8 3856.57 173.636   2
   2   3  -7 875.947 81.2020   4
   2   3  -7 890.169 121.296   2
   2   3  -6 64.9526 95.0140   2
   2   3  -6 98.8453 58.5978   4
   2   3  -5 3628.17 141.315   2
   2   3  -5 3678.61 92.3869   4
   2   3  -4 13885.7 222.250   2
   2   3  -4 14744.0 142.498   4
   2   3  -3 2296.24 114.957   2
   2   3  -3 2656.55 59.7593   4
   2   3  -2 25182.3 263.830   2
   2   3  -2 25382.6 111.163   4
   2   3  -1 7288.37 147.528   2
   2   3  -1 7193.45 143.881   3
   2   3   0 17086.9 200.793   2
   2   3   0 16838.6 202.661   3
   2   3   1 5379.47 133.550   2
   2   3   1 5516.08 145.415   3
   2   3   2 31201.8 228.842   2
   2   3   2 29951.1 267.683   3
   2   3   3 12493.9 139.370   2
   2   3   3 12055.3 180.578   3
   2   3   4 12153.5 125.089   2
   2   3   4 12555.7 196.185   3
   2   3   5 480.311 42.0969   2
   2   3   6 4887.25 164.219   1
   2   3   6 4971.96 145.530   3
   2   3   7 5964.60 162.284   3
   2   3   7 6040.88 189.469   1
   2   3   8 1281.38 106.808   3
   2   3   8 1226.61 134.284   1
   2   3   9 7748.50 190.651   3
   2   3   9 8014.04 233.788   1
   2   3  10 4434.17 170.777   3
   2   3  10 4412.39 204.207   1
   2   3  11 1656.85 138.524   3
   2   3  11 1722.49 164.841   1
   2   3  12 1139.86 127.355   3
   2   3  12 1330.24 167.541   1
   2   3  15 419.265 179.447   1
   2   4 -12 338.673 145.994   2
   2   4 -11 2463.38 180.070   2
   2   4 -10 2212.14 172.519   2
   2   4  -9 1495.86 145.514   2
   2   4  -8 524.041 118.380   2
   2   4  -8 566.209 83.5946   4
   2   4  -7 992.760 113.939   2
   2   4  -7 938.502 82.1818   4
   2   4  -6 2457.85 139.940   2
   2   4  -6 2468.87 92.0727   4
   2   4  -5 8221.23 197.702   2
   2   4  -5 7884.73 126.053   4
   2   4  -4 4587.98 153.834   2
   2   4  -4 4481.35 87.9082   4
   2   4  -3 622.504 96.4270   2
   2   4  -3 619.218 44.0392   4
   2   4  -2 15513.8 229.872   2
   2   4  -2 15330.1 111.138   4
   2   4  -1 9158.02 174.611   2
   2   4  -1 8812.59 77.5353   4
   2   4   0 1353.58 42.1361   4
   2   4   1 22605.6 268.565   3
   2   4   1 22157.1 160.081   4
   2   4   2 6284.73 146.715   2
   2   4   2 5862.80 167.975   3
   2   4   3 20474.6 215.215   2
   2   4   3 21090.7 260.188   3
   2   4   4 844.112 69.9158   2
   2   4   4 816.160 99.9251   3
   2   4   5 9050.27 141.301   2
   2   4   5 9468.62 189.853   3
   2   4   6 4687.82 105.876   2
   2   4   6 4680.31 183.272   1
   2   4   6 4855.43 159.280   3
   2   4   7 4747.21 184.085   1
   2   4   7 4924.85 103.502   2
   2   4   7 5188.58 166.106   3
   2   4   8 1473.52 122.684   3
   2   4   8 1263.80 141.491   1
   2   4   9 906.984 139.692   1
   2   4  10 3696.80 167.812   3
   2   4  10 4194.25 205.451   1
   2   4  11 134.798 109.284   3
   2   4  11 374.828 139.295   1
   2   4  13 131.672 148.294   1
   2   5 -11 848.761 155.183   2
   2   5 -10 3121.08 182.727   2
   2   5  -9 460.090 125.188   2
   2   5  -8 460.175 116.196   2
   2   5  -7 983.347 121.733   2
   2   5  -6 3034.99 149.582   2
   2   5  -5 4780.37 168.672   2
   2   5  -4 1297.12 116.134   2
   2   5  -3 1919.23 125.462   2
   2   5  -2 5294.59 162.717   2
   2   5  -1 6244.17 169.101   2
   2   5  -1 6273.72 99.5191   4
   2   5   0 3915.65 145.204   2
   2   5   0 3682.67 86.0505   4
   2   5   1 7230.07 173.965   2
   2   5   1 7405.45 199.233   3
   2   5   2 480.228 64.6340   4
   2   5   3 3040.97 115.121   2
   2   5   3 3252.55 149.680   3
   2   5   4 1588.46 96.1662   2
   2   5   4 1519.93 125.369   3
   2   5   5 574.739 78.7458   2
   2   5   5 549.433 108.602   3
   2   5   6 1836.11 97.3437   2
   2   5   6 1994.89 127.314   3
   2   5   8-36.8739 111.063   1
   2   5   8 128.041 103.469   3
   2   5   9 2012.18 142.212   3
   2   5   9 2075.07 173.052   1
   2   5  10 220.877 139.482   1
   2   5  10 183.216 110.236   3
   2   5  11 1213.98 160.117   1
   2   5  12 2998.71 200.786   1
   2   5  13-25.1365 147.165   1
   2   6  -9 207.725 130.429   2
   2   6  -8 2146.91 158.296   2
   2   6  -6 2994.63 162.260   2
   2   6  -5 1470.29 133.212   2
   2   6  -4 1581.64 132.524   2
   2   6  -3 266.737 104.185   2
   2   6  -2-18.8964 97.6033   2
   2   6   0 3908.11 171.640   2
   2   6   1 7078.15 199.354   2
   2   6   1 7243.03 223.591   3
   2   6   2 1435.77 151.155   3
   2   6   4 5726.38 168.792   2
   2   6   4 5730.36 202.730   3
   2   6   5 1332.09 113.207   2
   2   6   5 1223.21 137.948   3
   2   6   6 1419.63 114.147   2
   2   6   6 1437.12 136.240   3
   2   6   7 1930.15 141.167   3
   2   6   8 1034.15 143.556   1
   2   6   8 920.074 128.136   3
   2   6   9 601.245 143.263   1
   2   6  10 281.283 113.682   3
   2   6  10 64.2650 134.983   1
   2   6  11 1416.15 174.683   1
   2   6  12 2493.62 196.052   1
   2   7  -6 1321.76 156.081   2
   2   7  -5 1518.41 154.609   2
   2   7  -4 79.2674 116.787   2
   2   7  -3 315.660 120.700   2
   2   7   0 2104.41 152.983   2
   2   7   1 2274.45 157.885   2
   2   7   1 2136.85 183.696   3
   2   7   3 4619.15 181.817   2
   2   7   3 5453.66 231.170   3
   2   7   4 394.173 146.123   3
   2   7   5 1843.82 176.819   3
   2   7   6 7074.35 257.218   1
   2   7   6 7875.48 257.953   3
   2   7   7 1187.24 158.692   1
   2   7   7 1433.33 149.354   3
   2   7   8 668.504 149.734   1
   2   7   9 2904.39 182.420   3
   2   7   9 2698.50 197.203   1
   2   7  10 2325.22 196.915   1
   2   8  -2 629.972 140.899   2
   2   8  -1 407.731 134.172   2
   2   8   0 250.274 123.255   2
   2   8   1 266.783 135.815   2
   2   8   1 405.248 169.803   3
   2   8   2 2713.65 217.083   3
   2   8   5 2010.29 195.120   3
   2   8   6 1521.85 162.634   1
   3  -5  -6 15.5595 169.634   2
   3  -5  -5 1704.32 211.652   2
   3  -5  -4 3040.22 225.135   2
   3  -5  -2 2805.86 167.639   3
   3  -5  -2 3601.62 228.405   2
   3  -5  -1 1823.95 155.288   3
   3  -5  -1 1778.85 201.597   2
   3  -5   0 1783.48 154.935   3
   3  -5   0 1695.82 190.114   2
   3  -5   1 1290.29 153.866   3
   3  -5   2 286.877 150.099   2
   3  -5   2 338.414 137.788   3
   3  -5   3 309.590 152.117   2
   3  -5   4 3503.53 199.722   3
   3  -5   4 2788.11 198.921   2
   3  -5   5 719.795 157.274   3
   3  -5   5 762.797 159.609   2
   3  -4  -9 16.8000 154.065   2
   3  -4  -9 268.122 170.770   4
   3  -4  -8 1975.07 202.047   4
   3  -4  -8 1784.56 193.576   2
   3  -4  -6 1640.17 191.204   2
   3  -4  -5 4295.79 219.819   4
   3  -4  -5 4441.90 230.046   2
   3  -4  -4 1808.48 182.747   2
   3  -4  -3 2491.94 203.143   2
   3  -4  -2 2538.20 144.670   3
   3  -4  -2 2448.52 198.258   2
   3  -4  -1 1461.42 131.960   3
   3  -4   0 398.896 144.205   2
   3  -4   1 573.983 120.715   3
   3  -4   1 232.578 142.260   2
   3  -4   2 1046.43 136.333   3
   3  -4   3 2972.36 175.399   3
   3  -4   3 2653.30 189.180   2
   3  -4   4 295.018 132.201   2
   3  -4   5 892.183 156.150   3
   3  -4   5 727.682 140.767   2
   3  -4   6 1304.50 167.591   3
   3  -4   7 375.160 156.684   3
   3  -4   7 291.027 140.449   2
   3  -3 -11 671.742 187.368   4
   3  -3 -11 725.916 160.977   2
   3  -3  -9 269.662 142.484   2
   3  -3  -9 716.506 174.899   4
   3  -3  -8 1623.05 181.729   4
   3  -3  -8 1544.01 169.705   2
   3  -3  -7 1772.88 182.095   4
   3  -3  -7 1513.78 169.172   2
   3  -3  -6 3025.52 197.463   4
   3  -3  -6 3581.56 204.214   2
   3  -3  -5 6469.18 238.844   4
   3  -3  -5 6856.71 244.977   2
   3  -3  -4 1230.44 157.312   4
   3  -3  -3 1538.10 106.273   3
   3  -3  -3 1653.92 171.465   2
   3  -3  -2 5028.23 162.769   3
   3  -3  -2 4886.46 233.826   2
   3  -3  -1 9903.93 221.338   3
   3  -3  -1 9676.60 271.927   2
   3  -3   1 2124.92 145.232   3
   3  -3   1 2173.73 169.418   2
   3  -3   2 2315.28 150.930   3
   3  -3   2 2466.35 171.188   2
   3  -3   3 1283.99 147.694   3
   3  -3   4 3129.94 178.782   3
   3  -3   4 3087.30 183.275   2
   3  -3   5 3452.57 189.015   3
   3  -3   5 2985.59 168.300   2
   3  -3   6 1965.40 177.305   3
   3  -3   6 2003.22 153.551   2
   3  -3   7 11631.4 296.463   3
   3  -3   7 9966.01 254.108   2
   3  -3   8 4627.60 226.472   3
   3  -3   9 2620.86 201.771   3
   3  -3  10 2884.16 209.077   3
   3  -3  11 147.463 157.817   3
   3  -2 -12 1972.39 198.956   4
   3  -2 -11 6543.03 273.853   4
   3  -2 -11 6445.83 252.665   2
   3  -2 -10 4275.94 231.184   4
   3  -2 -10 3113.80 194.728   2
   3  -2  -9 8813.70 280.966   4
   3  -2  -9 8096.92 267.574   2
   3  -2  -8 1701.89 181.385   4
   3  -2  -8 1320.58 162.395   2
   3  -2  -7 316.607 133.521   2
   3  -2  -7 509.304 149.205   4
   3  -2  -6 1283.52 158.647   4
   3  -2  -6 1388.35 153.921   2
   3  -2  -5 2877.76 176.372   4
   3  -2  -5 2600.40 172.498   2
   3  -2  -4 101.635 119.364   2
   3  -2  -4 67.7018 61.4126   3
   3  -2  -4-15.7714 123.044   4
   3  -2  -3 2054.91 106.619   3
   3  -2  -3 2310.38 159.430   4
   3  -2  -3 2201.64 164.781   2
   3  -2  -2 3982.03 135.127   3
   3  -2  -2 4140.04 191.957   2
   3  -2  -1 3435.59 137.637   3
   3  -2  -1 3238.40 183.194   2
   3  -2   0 6231.63 172.990   3
   3  -2   0 5911.43 206.064   2
   3  -2   1 1306.12 124.961   3
   3  -2   2 419.363 123.876   2
   3  -2   3 17044.6 279.371   3
   3  -2   3 18007.5 295.699   2
   3  -2   4 3057.17 164.158   3
   3  -2   4 3437.07 157.477   2
   3  -2   5 286.031 125.351   3
   3  -2   6 3713.24 181.087   3
   3  -2   6 3521.79 154.553   2
   3  -2   7 120.030 103.845   2
   3  -2   7 114.118 136.944   3
   3  -2   8 4183.09 207.266   3
   3  -2   8 4962.62 181.651   2
   3  -2   9 4277.79 211.200   3
   3  -2  10 2426.54 191.037   3
   3  -2  12 2741.96 211.705   3
   3  -1 -12 626.891 164.397   4
   3  -1 -12 621.465 150.458   2
   3  -1 -11 1980.51 171.445   2
   3  -1 -10 1703.09 162.004   4
   3  -1 -10 1743.62 158.113   2
   3  -1  -9 2865.88 184.251   4
   3  -1  -9 2448.25 173.041   2
   3  -1  -8 3654.35 195.537   4
   3  -1  -8 3288.86 180.891   2
   3  -1  -7 833.106 145.839   4
   3  -1  -7 712.911 134.162   2
   3  -1  -6 23033.4 365.246   4
   3  -1  -6 21956.7 353.194   2
   3  -1  -5 5214.61 196.250   4
   3  -1  -5 5267.37 194.954   2
   3  -1  -4 2630.50 87.7471   3
   3  -1  -4 2865.40 157.006   4
   3  -1  -4 2749.49 153.111   2
   3  -1  -3 343.230 67.5742   3
   3  -1  -3 493.644 115.392   2
   3  -1  -3 295.492 111.280   4
   3  -1  -2 6421.33 136.660   3
   3  -1  -2 6343.41 189.529   4
   3  -1  -2 5918.97 187.108   2
   3  -1   0 12366.7 198.164   3
   3  -1   0 11539.5 241.641   2
   3  -1   1 17082.0 243.385   3
   3  -1   1 15876.1 268.001   2
   3  -1   2 21094.1 280.614   3
   3  -1   2 19933.0 284.286   2
   3  -1   3 7360.52 192.496   3
   3  -1   3 7269.40 179.289   2
   3  -1   4 894.780 124.989   3
   3  -1   4 529.297 40.1699   1
   3  -1   5 1128.75 141.222   3
   3  -1   5 692.345 60.6151   1
   3  -1   6 130.591 84.0810   2
   3  -1   6 183.312 131.520   3
   3  -1   6 94.2791 62.6465   1
   3  -1   8 1702.85 164.714   3
   3  -1   8 1682.69 116.280   2
   3  -1   9 2408.45 183.920   3
   3  -1  11 253.578 153.695   3
   3  -1  12 3517.75 211.646   3
   3  -1  13 261.742 150.146   3
   3   0 -13 242.891 148.114   4
   3   0 -12 1841.82 177.985   4
   3   0 -12 2161.60 171.838   2
   3   0 -10 612.908 137.348   2
   3   0  -9 5781.93 218.681   4
   3   0  -9 5568.11 213.520   2
   3   0  -8 7757.63 233.017   4
   3   0  -8 7065.03 229.398   2
   3   0  -7 2972.33 156.193   4
   3   0  -7 3365.09 171.639   2
   3   0  -6 2087.80 145.097   4
   3   0  -6 2196.61 146.068   2
   3   0  -5 3476.78 153.277   4
   3   0  -5 3809.51 161.130   2
   3   0  -4 3159.23 79.5516   3
   3   0  -4 2978.01 148.504   2
   3   0  -3 6351.52 116.214   3
   3   0  -3 6486.28 188.339   2
   3   0  -2 8264.05 193.388   4
   3   0  -2 8710.66 203.576   2
   3   0  -1 22939.7 220.149   3
   3   0  -1 23187.8 293.163   2
   3   0   0 8908.15 165.161   3
   3   0   0 8835.03 192.687   2
   3   0   2 3586.88 129.203   3
   3   0   2 3611.67 130.033   2
   3   0   3 12861.8 215.008   3
   3   0   3 12581.7 193.740   2
   3   0   4 2580.10 134.957   3
   3   0   4 2517.58 84.9314   1
   3   0   4 2326.01 97.6130   2
   3   0   5 2055.79 141.136   3
   3   0   5 1798.53 91.3134   1
   3   0   6 1774.40 145.205   3
   3   0   7 309.045 86.7596   1
   3   0   7 298.579 124.902   3
   3   0   8 868.936 141.867   3
   3   0   9 1167.56 160.381   3
   3   0  10 287.164 151.765   3
   3   0  10 187.340 116.390   1
   3   0  11 5119.75 233.550   3
   3   0  11 5228.81 198.442   1
   3   0  12 1178.83 167.894   3
   3   0  13 2526.52 198.517   3
   3   0  13 2350.12 184.971   1
   3   0  14 652.451 165.301   1
   3   1 -14 1660.70 173.146   4
   3   1 -14 1956.59 194.510   2
   3   1 -13-193.372 145.752   2
   3   1 -13 237.857 142.968   4
   3   1 -12 2308.76 172.855   4
   3   1 -12 1861.25 182.324   2
   3   1 -11 2768.64 176.066   4
   3   1 -11 2234.27 172.775   2
   3   1 -10 539.520 132.663   2
   3   1 -10 477.759 126.500   4
   3   1  -9 1115.27 148.711   2
   3   1  -8 3287.91 163.436   4
   3   1  -8 3450.85 176.351   2
   3   1  -7 3229.75 148.090   4
   3   1  -7 3238.89 171.692   2
   3   1  -6 24092.7 151.539   3
   3   1  -6 24501.0 349.864   2
   3   1  -5 828.445 50.2317   3
   3   1  -5 668.692 112.511   2
   3   1  -5 816.079 94.5702   4
   3   1  -4 7460.38 110.007   3
   3   1  -4 7616.41 202.320   2
   3   1  -3 8506.57 126.400   3
   3   1  -3 7924.52 166.802   4
   3   1  -3 8135.03 200.475   2
   3   1  -2 8339.32 129.101   3
   3   1  -2 8296.19 169.803   4
   3   1  -2 8283.46 189.770   2
   3   1  -1 10803.3 153.272   3
   3   1  -1 10953.7 201.300   2
   3   1   0 11308.6 171.851   3
   3   1   0 11935.0 194.041   2
   3   1   1 10089.0 166.991   3
   3   1   1 10010.7 166.506   2
   3   1   2 315.176 82.8272   3
   3   1   3 10691.3 190.123   3
   3   1   3 10995.8 161.607   2
   3   1   4 3133.92 103.507   1
   3   1   4 3327.83 132.779   3
   3   1   5 4561.55 151.295   3
   3   1   5 4199.28 94.2524   2
   3   1   5 4650.48 127.349   1
   3   1   6 9727.26 213.119   3
   3   1   6 9817.70 184.819   1
   3   1   7 1754.15 136.119   3
   3   1   7 1866.83 117.671   1
   3   1   8 12513.2 259.767   3
   3   1   8 11971.8 230.707   1
   3   1   9 3341.98 179.265   3
   3   1   9 2517.99 147.751   1
   3   1  10 1799.16 164.270   3
   3   1  10 1807.32 153.248   1
   3   1  11 3738.84 186.346   1
   3   1  11 3131.01 190.326   3
   3   1  12 2330.18 178.496   1
   3   1  12 2120.46 177.930   3
   3   1  14 1460.84 176.774   1
   3   1  15 1241.11 176.176   1
   3   2 -13 757.406 163.374   2
   3   2 -13 1180.50 147.346   4
   3   2 -12 3551.55 185.404   4
   3   2 -12 3778.61 208.369   2
   3   2 -11 508.060 125.402   4
   3   2 -10 1525.18 141.535   4
   3   2 -10 1786.35 159.722   2
   3   2  -9 5636.61 186.692   4
   3   2  -9 6044.17 211.742   2
   3   2  -8 1152.57 115.954   4
   3   2  -8 1258.68 142.337   2
   3   2  -7 11245.3 146.121   3
   3   2  -7 11398.1 213.192   4
   3   2  -7 11651.8 258.135   2
   3   2  -6 7490.75 121.207   3
   3   2  -6 7851.55 207.630   2
   3   2  -5 7727.33 119.817   3
   3   2  -5 7491.77 198.167   2
   3   2  -4 1917.01 75.9074   3
   3   2  -4 1585.63 85.6561   4
   3   2  -4 1815.27 122.993   2
   3   2  -3 226.552 92.6580   2
   3   2  -3 204.932 70.6502   4
   3   2  -2 11347.7 153.046   3
   3   2  -2 10850.1 168.040   4
   3   2  -2 11340.7 203.769   2
   3   2  -1 29679.1 249.048   3
   3   2  -1 30965.1 303.204   2
   3   2   0 4739.53 126.421   3
   3   2   0 4988.90 137.551   2
   3   2   1 2833.86 112.116   3
   3   2   1 2966.28 109.109   2
   3   2   2 4152.16 126.698   3
   3   2   2 4073.08 109.448   2
   3   2   3 7484.48 156.905   3
   3   2   3 7702.46 121.465   2
   3   2   4 4777.51 149.852   3
   3   2   5 20216.8 274.947   1
   3   2   5 21420.0 142.570   2
   3   2   6 5747.78 159.945   1
   3   2   6 6128.86 169.620   3
   3   2   7 32389.0 350.622   3
   3   2   7 32351.1 359.260   1
   3   2   8 290.028 105.808   1
   3   2   8 521.949 118.078   3
   3   2   9 4192.22 176.768   3
   3   2   9 4324.97 180.160   1
   3   2  10 1910.37 153.762   3
   3   2  10 1945.05 151.098   1
   3   2  11 583.906 133.796   3
   3   2  12 134.725 136.312   1
   3   2  12 79.4960 130.590   3
   3   2  15 461.863 177.072   1
   3   3 -13 1339.94 183.256   2
   3   3 -12 6520.89 267.941   2
   3   3 -11 656.029 156.265   2
   3   3 -10 1077.36 120.777   4
   3   3 -10 1119.46 157.185   2
   3   3  -9 4199.87 158.487   4
   3   3  -9 4818.68 203.213   2
   3   3  -8 580.339 95.2788   4
   3   3  -8 739.694 131.180   2
   3   3  -7 3740.54 123.864   3
   3   3  -7 3435.52 127.005   4
   3   3  -7 3716.74 175.063   2
   3   3  -6 9161.08 167.158   3
   3   3  -6 8809.53 161.577   4
   3   3  -6 9164.39 230.033   2
   3   3  -5 2123.81 102.699   3
   3   3  -5 1986.63 86.3149   4
   3   3  -5 2071.42 138.495   2
   3   3  -4 4685.88 124.197   3
   3   3  -4 4618.70 99.0045   4
   3   3  -4 4350.99 158.360   2
   3   3  -3 7039.53 141.995   3
   3   3  -3 6631.31 173.179   2
   3   3  -2 3489.60 111.727   3
   3   3  -2 3354.47 131.287   2
   3   3  -1 7539.13 147.124   3
   3   3  -1 7153.60 161.599   2
   3   3   0 5581.48 135.757   3
   3   3   0 5622.73 139.973   2
   3   3   1 5433.08 135.950   3
   3   3   1 5378.18 123.170   2
   3   3   3 1355.16 102.065   3
   3   3   3 1316.99 69.2644   2
   3   3   4 5363.79 151.447   3
   3   3   4 5473.71 96.0743   2
   3   3   5 16896.7 245.465   3
   3   3   5 15887.3 129.891   2
   3   3   6 1899.21 119.643   3
   3   3   6 2013.24 131.932   1
   3   3   7 949.738 117.189   3
   3   3   8 3511.83 156.296   3
   3   3   8 3457.81 170.855   1
   3   3   9 3134.43 162.125   3
   3   3   9 2979.42 171.802   1
   3   3  10 5122.91 183.058   3
   3   3  10 5044.78 202.156   1
   3   3  11 4452.59 184.309   3
   3   3  11 4358.14 204.197   1
   3   3  13 351.310 131.342   3
   3   3  13 378.020 153.378   1
   3   3  14 1664.72 190.993   1
   3   3  15 919.450 186.942   1
   3   4 -12 2017.15 186.887   2
   3   4 -11 232.056 153.687   2
   3   4 -10 1363.13 156.037   2
   3   4  -9 2149.50 170.690   2
   3   4  -8 2265.75 165.902   2
   3   4  -7 17445.1 321.442   2
   3   4  -6 13070.6 278.632   2
   3   4  -5 4922.75 148.653   3
   3   4  -5 4471.97 181.081   2
   3   4  -4 2877.78 122.090   3
   3   4  -4 2608.78 145.724   2
   3   4  -3 695.046 93.7246   3
   3   4  -2 6559.17 170.269   2
   3   4  -2 6812.65 164.124   3
   3   4  -1 14186.9 222.255   2
   3   4  -1 14628.7 219.139   3
   3   4   0 3870.20 136.580   2
   3   4   0 4101.95 147.313   3
   3   4   1 10497.7 176.182   2
   3   4   1 10523.9 198.077   3
   3   4   2 5387.96 127.480   2
   3   4   2 4869.88 154.081   3
   3   4   3 1397.57 83.1376   2
   3   4   3 1628.87 124.789   3
   3   4   4 9914.68 141.818   2
   3   4   4 11676.0 221.797   3
   3   4   5 5059.38 168.667   3
   3   4   5 4388.98 92.9379   2
   3   4   6 5928.65 179.857   3
   3   4   6 5000.94 86.3923   2
   3   4   7 1481.03 141.503   1
   3   4   7 1599.01 132.422   3
   3   4   8 169.213 117.204   1
   3   4   8 423.108 106.077   3
   3   4  10 3243.64 165.246   3
   3   4  10 2909.97 186.166   1
   3   4  11 2752.19 161.583   3
   3   4  11 2437.12 181.529   1
   3   4  12 711.637 153.091   1
   3   4  13 1267.49 149.279   3
   3   4  14 494.207 167.639   1
   3   5 -11 132.252 149.880   2
   3   5 -10 2207.95 176.486   2
   3   5  -8 758.913 141.914   2
   3   5  -7 1227.10 145.154   2
   3   5  -6 107.290 117.995   2
   3   5  -5 1091.90 128.062   2
   3   5  -4 1689.92 128.955   2
   3   5  -3 3716.89 154.844   2
   3   5  -3 3986.39 152.892   3
   3   5  -2 5171.92 166.874   2
   3   5  -2 5316.24 170.180   3
   3   5  -1 16220.3 251.774   2
   3   5  -1 17546.7 271.629   3
   3   5   0 4259.19 150.452   2
   3   5   0 4679.33 170.731   3
   3   5   2 5126.62 140.518   2
   3   5   2 5231.66 174.035   3
   3   5   4 1824.60 96.4992   2
   3   5   4 1865.01 135.157   3
   3   5   5 7350.69 148.542   2
   3   5   5 8182.80 206.901   3
   3   5   6 982.367 125.595   3
   3   5   7-36.6231 111.733   3
   3   5   7 115.491 118.544   1
   3   5   9 1804.64 163.732   1
   3   5   9 2013.24 149.821   3
   3   5  10 8005.00 224.587   3
   3   5  10 7252.42 248.324   1
   3   5  11 635.263 136.409   3
   3   5  11 562.745 150.559   1
   3   5  12 456.206 130.335   3
   3   5  12 342.839 148.539   1
   3   5  13 1546.33 184.640   1
   3   6  -9 1024.31 149.522   2
   3   6  -8 1672.29 156.095   2
   3   6  -7 2352.11 158.763   2
   3   6  -4 4380.86 173.106   2
   3   6  -3 1159.89 119.483   2
   3   6  -3 1649.27 137.985   3
   3   6  -2 2301.85 136.578   2
   3   6  -2 2933.33 158.966   3
   3   6  -1 1219.01 115.619   2
   3   6  -1 1544.25 140.390   3
   3   6   0 1553.22 125.066   2
   3   6   0 1837.52 155.922   3
   3   6   1 7303.99 187.216   2
   3   6   1 8010.67 223.026   3
   3   6   2 2849.66 133.958   2
   3   6   2 3093.41 173.789   3
   3   6   3 1244.11 110.228   2
   3   6   4 3795.19 135.183   2
   3   6   4 3963.48 179.923   3
   3   6   5 1117.77 98.7519   2
   3   6   5 998.633 131.577   3
   3   6   6 994.701 133.457   3
   3   6   7 1112.16 140.155   3
   3   6   8 379.491 138.911   1
   3   6   8 176.383 123.717   3
   3   6  10 2889.31 171.923   3
   3   6  10 2331.74 195.344   1
   3   6  11 418.637 130.431   3
   3   6  11 250.572 157.636   1
   3   7  -7 1673.47 156.027   2
   3   7  -5 1466.04 142.661   2
   3   7  -4 1519.40 138.297   2
   3   7  -3 709.682 133.902   3
   3   7  -2 1577.85 136.906   2
   3   7  -2 1773.37 156.432   3
   3   7  -1 244.012 105.155   2
   3   7  -1 297.192 138.181   3
   3   7   1 2774.11 152.082   2
   3   7   1 3207.62 190.183   3
   3   7   3 1561.34 122.695   2
   3   7   3 1927.86 167.478   3
   3   7   5 128.511 128.426   3
   3   7   7 1016.79 144.469   3
   3   7   8 2548.71 195.642   1
   3   7   8 2438.23 179.967   3
   3   8  -3 351.451 149.815   3
   3   8  -2 541.715 124.398   2
   3   8  -2 346.505 156.884   3
   3   8  -1 570.242 161.473   3
   3   8  -1 90.5410 109.907   2
   3   8   0 1213.24 132.831   2
   3   8   0 1801.59 185.599   3
   3   8   2 325.470 109.599   2
   3   8   3 1546.43 133.839   2
   3   8   3 2297.18 200.262   3
   3   8   4 3017.30 210.531   3
   3   8   5 491.379 159.382   3
   3   8   6 1201.28 170.508   3
   3   8   7 3151.96 216.118   1
   3   8   7 3213.22 204.480   3
   4  -4  -6 1788.54 209.798   2
   4  -4  -4 3115.97 231.524   2
   4  -4  -2 444.524 178.205   2
   4  -4  -1 455.093 170.344   2
   4  -4   2 3788.92 202.450   3
   4  -4   2 4859.39 236.544   2
   4  -4   3 797.041 169.055   2
   4  -4   4 1240.59 163.723   3
   4  -4   4 895.269 160.306   2
   4  -4   5 272.101 144.429   2
   4  -4   5 392.078 161.941   3
   4  -3  -9-149.013 160.971   2
   4  -3  -9-48.1364 165.664   4
   4  -3  -8 923.043 183.567   4
   4  -3  -8 770.192 173.491   2
   4  -3  -7 2257.08 200.601   2
   4  -3  -6 174.524 158.121   2
   4  -3  -6-144.298 164.218   4
   4  -3  -5 1937.15 193.917   2
   4  -3  -4 5364.70 253.798   2
   4  -3  -2 4497.33 255.531   2
   4  -3  -1 7537.44 217.188   3
   4  -3  -1 6623.95 259.341   2
   4  -3   1 500.604 131.909   3
   4  -3   1 279.293 154.690   2
   4  -3   2 375.503 133.674   3
   4  -3   2 21.2018 138.161   2
   4  -3   5 726.722 156.401   3
   4  -3   6 1616.52 186.473   3
   4  -3   7 7903.29 281.027   3
   4  -3   7 7452.14 244.253   2
   4  -3   8 1586.06 196.924   3
   4  -3   8 1758.22 156.800   2
   4  -2 -10 2635.37 221.053   4
   4  -2 -10 2118.91 208.617   2
   4  -2  -9 600.414 161.320   2
   4  -2  -9 721.889 184.734   4
   4  -2  -8 2773.52 209.589   4
   4  -2  -8 2063.53 195.255   2
   4  -2  -7 2282.26 194.820   4
   4  -2  -7 1968.10 187.018   2
   4  -2  -6 6593.00 253.627   4
   4  -2  -6 5665.35 243.381   2
   4  -2  -5 845.865 160.098   2
   4  -2  -4 3603.05 200.981   4
   4  -2  -4 3722.62 209.493   2
   4  -2  -2 3604.86 150.841   3
   4  -2  -2 3408.29 199.594   2
   4  -2  -1 197.478 117.705   3
   4  -2  -1 231.816 147.606   2
   4  -2   0 1681.99 165.276   2
   4  -2   1 4817.60 186.823   3
   4  -2   1 5258.07 220.919   2
   4  -2   2 4922.74 189.303   3
   4  -2   2 4524.40 210.523   2
   4  -2   3 3045.42 173.980   3
   4  -2   3 2748.31 182.578   2
   4  -2   4 6212.43 218.716   3
   4  -2   4 6309.85 216.801   2
   4  -2   5 3144.74 188.181   3
   4  -2   5 3324.70 175.044   2
   4  -2   6 1656.45 168.959   3
   4  -2   6 1937.33 149.878   2
   4  -2   7 1008.97 164.367   3
   4  -2   8 1653.36 187.269   3
   4  -2   8 2066.29 148.413   2
   4  -2   9 734.249 175.376   3
   4  -2  10 3598.62 223.145   3
   4  -2  11 2765.75 222.834   3
   4  -1 -12 369.924 161.417   2
   4  -1 -12 818.890 185.500   4
   4  -1 -11 563.838 168.914   2
   4  -1 -11 998.655 182.498   4
   4  -1 -10 4849.56 256.178   4
   4  -1 -10 4041.85 227.391   2
   4  -1  -9 259.161 153.255   2
   4  -1  -9 238.816 158.367   4
   4  -1  -8 860.729 155.459   2
   4  -1  -8 510.485 158.076   4
   4  -1  -7 12071.8 311.480   4
   4  -1  -7 11892.3 305.282   2
   4  -1  -6 5859.97 240.176   4
   4  -1  -6 6002.35 236.549   2
   4  -1  -5 7776.42 250.281   4
   4  -1  -5 7694.44 254.068   2
   4  -1  -4-0.31107 136.873   2
   4  -1  -4 9.38790 132.289   4
   4  -1  -3 2364.38 114.153   3
   4  -1  -3 2299.44 171.727   2
   4  -1  -2 4836.25 152.154   3
   4  -1  -2 5028.28 214.693   2
   4  -1  -1 4253.50 157.300   3
   4  -1  -1 4173.49 198.973   2
   4  -1   1 20078.9 287.060   3
   4  -1   1 20052.6 339.182   2
   4  -1   2 4612.09 177.780   3
   4  -1   2 4113.39 189.207   2
   4  -1   3 65.5999 112.428   2
   4  -1   3 165.427 122.414   3
   4  -1   4 3367.16 173.518   3
   4  -1   4 3567.10 165.307   2
   4  -1   5 2010.57 162.842   3
   4  -1   6 552.116 145.592   3
   4  -1   6 533.959 107.648   2
   4  -1   7 4509.67 211.516   3
   4  -1   7 3741.44 152.820   2
   4  -1   8 1245.25 171.249   3
   4  -1   9 3080.70 206.671   3
   4  -1  10 3237.26 219.883   3
   4  -1  11 167.592 169.256   3
   4  -1  12 4333.26 248.021   3
   4   0 -12 806.947 162.816   4
   4   0 -11 1985.55 186.518   4
   4   0 -11 1934.99 176.735   2
   4   0  -9 2894.82 197.950   4
   4   0  -9 2458.03 182.511   2
   4   0  -8 7150.75 240.335   2
   4   0  -7 851.388 146.283   4
   4   0  -7 962.494 152.904   2
   4   0  -6 510.551 139.924   2
   4   0  -6 468.264 136.052   4
   4   0  -5 1298.47 148.912   4
   4   0  -5 1328.12 150.978   2
   4   0  -4 1183.37 139.934   4
   4   0  -4 1005.27 145.465   2
   4   0  -3 1471.21 97.8987   3
   4   0  -3 1653.50 148.578   4
   4   0  -3 1778.71 151.869   2
   4   0  -2 11895.5 194.059   3
   4   0  -2 12314.4 268.506   2
   4   0  -1 2894.76 130.861   3
   4   0  -1 2807.66 166.404   2
   4   0   0 8620.69 183.105   3
   4   0   0 8800.43 225.625   2
   4   0   1 11002.4 212.417   3
   4   0   1 10475.5 236.044   2
   4   0   2 4126.04 164.559   3
   4   0   2 4353.65 166.779   2
   4   0   3 6195.64 192.283   3
   4   0   3 5911.93 173.698   2
   4   0   4 6465.65 202.820   3
   4   0   4 6629.63 177.922   2
   4   0   5 4325.01 187.856   3
   4   0   5 3676.17 141.944   2
   4   0   6 3625.81 181.643   3
   4   0   7 1020.80 158.594   3
   4   0   9 3762.05 219.699   3
   4   0  10 2370.12 214.235   3
   4   0  11 934.051 179.559   3
   4   0  12 1567.37 187.979   3
   4   0  13 2016.90 203.620   3
   4   1 -12 1441.49 170.692   4
   4   1 -12 1213.61 172.661   2
   4   1 -11 1827.97 174.582   4
   4   1 -11 1701.40 174.579   2
   4   1 -10 2767.87 176.515   4
   4   1 -10 3422.04 200.814   2
   4   1  -9 2288.49 170.741   4
   4   1  -9 2820.60 184.546   2
   4   1  -8 1700.79 153.331   4
   4   1  -8 1966.91 164.950   2
   4   1  -7 2548.59 160.525   4
   4   1  -7 2895.93 182.191   2
   4   1  -6 369.522 129.501   2
   4   1  -6 373.412 118.043   4
   4   1  -5 5060.58 180.297   4
   4   1  -5 4653.78 197.003   2
   4   1  -4 332.381 120.271   2
   4   1  -4 274.369 62.1431   3
   4   1  -4 346.462 107.573   4
   4   1  -3 6015.69 128.429   3
   4   1  -3 6419.74 189.825   4
   4   1  -3 6540.47 205.362   2
   4   1  -2 13702.2 188.522   3
   4   1  -2 13561.6 255.805   2
   4   1  -1 14821.2 210.577   3
   4   1  -1 15846.4 262.624   2
   4   1   0 4764.02 147.790   3
   4   1   0 5366.06 173.892   2
   4   1   1 6580.78 163.782   3
   4   1   1 6281.83 171.439   2
   4   1   2 4146.10 146.915   3
   4   1   2 4289.15 143.556   2
   4   1   3 4180.76 154.740   3
   4   1   3 4204.71 139.138   2
   4   1   4 272.824 81.0996   2
   4   1   4 406.061 109.661   3
   4   1   6 6522.12 209.908   3
   4   1   6 5987.22 159.587   1
   4   1   7 3574.58 187.133   3
   4   1   7 3326.57 135.741   1
   4   1   8 1147.46 153.116   3
   4   1   9 2903.90 189.128   3
   4   1   9 2438.36 149.967   1
   4   1  10 1517.91 178.094   3
   4   1  10 1380.35 146.146   1
   4   1  11 478.858 137.869   1
   4   1  11 218.778 151.562   3
   4   1  12 1336.29 159.707   1
   4   1  12 1479.69 185.995   3
   4   1  13 647.694 152.301   1
   4   1  13 734.572 186.588   3
   4   2 -12 302.125 153.318   2
   4   2 -12 143.403 135.007   4
   4   2 -11 723.707 140.593   4
   4   2 -11 1225.33 173.772   2
   4   2 -10 667.085 137.516   4
   4   2 -10 1170.86 165.680   2
   4   2  -9 918.399 132.401   4
   4   2  -9 1257.49 167.553   2
   4   2  -8 9205.80 226.814   4
   4   2  -8 11585.0 293.476   2
   4   2  -7 4347.07 169.121   4
   4   2  -7 4739.90 206.887   2
   4   2  -6 1080.94 120.254   4
   4   2  -6 1041.73 148.688   2
   4   2  -5 8416.89 144.001   3
   4   2  -5 8792.87 203.745   4
   4   2  -4 1851.49 88.7820   3
   4   2  -4 1625.87 117.890   4
   4   2  -4 1857.59 148.969   2
   4   2  -3 2063.23 93.7852   3
   4   2  -3 2131.95 148.881   2
   4   2  -2 10025.5 165.483   3
   4   2  -2 10795.4 232.165   2
   4   2  -1 1440.69 96.0734   3
   4   2  -1 1628.40 127.498   2
   4   2   0 3937.33 129.173   3
   4   2   0 4336.85 151.232   2
   4   2   2 7178.75 179.191   3
   4   2   2 6922.66 153.922   2
   4   2   3 13279.5 227.643   3
   4   2   3 13325.5 192.961   2
   4   2   4 3983.67 157.178   3
   4   2   4 4023.21 116.224   2
   4   2   5 1176.10 122.733   3
   4   2   6 2998.25 133.785   1
   4   2   6 2845.67 90.1367   2
   4   2   7 5033.42 188.203   3
   4   2   7 4838.46 169.356   1
   4   2   8 115.143 110.965   1
   4   2   8-48.0316 116.188   3
   4   2   9 1436.86 150.230   3
   4   2   9 1360.88 141.517   1
   4   2  10 6354.61 230.912   3
   4   2  10 5790.01 208.428   1
   4   2  11 444.502 144.941   3
   4   2  11 265.602 128.971   1
   4   2  12 1103.99 161.296   3
   4   2  12 1305.47 159.836   1
   4   2  13 453.049 161.075   1
   4   2  13-116.609 148.735   3
   4   2  14 1749.50 193.400   1
   4   2  14 1981.23 192.333   3
   4   3 -11 13462.3 343.265   2
   4   3 -10 2806.09 194.457   2
   4   3  -9 520.987 144.265   2
   4   3  -8 1834.02 162.577   2
   4   3  -6 5477.45 135.098   3
   4   3  -6 5226.49 157.138   4
   4   3  -5 62.9662 118.797   2
   4   3  -5 18.5747 72.4945   3
   4   3  -5-30.5396 84.3390   4
   4   3  -4 5899.23 154.529   4
   4   3  -4 5910.84 196.059   2
   4   3  -3 17690.0 223.459   3
   4   3  -3 17324.2 285.462   2
   4   3  -2 1556.97 97.3052   3
   4   3  -2 1525.06 122.842   2
   4   3  -1 3278.92 128.159   3
   4   3  -1 3197.09 142.959   2
   4   3   0 8442.71 176.905   3
   4   3   0 9060.96 190.602   2
   4   3   1 8170.24 177.870   3
   4   3   1 8784.40 175.465   2
   4   3   2 5044.57 159.946   3
   4   3   2 5034.23 141.096   2
   4   3   3 7718.88 183.917   3
   4   3   3 7899.82 152.383   2
   4   3   4 358.578 66.0834   2
   4   3   4 359.308 101.408   3
   4   3   5 4107.88 164.125   3
   4   3   5 3658.58 97.3642   2
   4   3   6 8365.23 214.014   3
   4   3   7 60.1023 113.371   3
   4   3   7-51.3709 105.882   1
   4   3   8 9688.24 237.024   3
   4   3   8 9980.62 244.167   1
   4   3   9 12885.6 275.092   3
   4   3   9 13088.6 287.086   1
   4   3  10 2776.97 172.789   3
   4   3  10 3215.26 182.381   1
   4   3  11 1475.46 148.582   3
   4   3  11 2052.63 167.181   1
   4   3  13 593.909 150.397   3
   4   3  14 1793.95 185.032   3
   4   3  14 1683.33 196.481   1
   4   4 -11 4645.54 244.691   2
   4   4  -9 1363.79 163.082   2
   4   4  -8 2780.50 186.358   2
   4   4  -7 6949.87 237.987   2
   4   4  -6 224.683 100.050   3
   4   4  -6 292.025 138.327   2
   4   4  -5 13973.8 229.095   3
   4   4  -5 13235.6 284.422   2
   4   4  -4 3406.14 135.005   3
   4   4  -4 2968.12 160.957   2
   4   4  -3 7080.53 166.853   3
   4   4  -3 6642.93 200.956   2
   4   4  -2 2471.04 118.920   3
   4   4  -2 2681.69 146.916   2
   4   4  -1 1741.23 113.413   3
   4   4  -1 1450.53 120.829   2
   4   4   0 3172.54 135.154   3
   4   4   0 2939.18 134.005   2
   4   4   1 2972.21 141.903   3
   4   4   1 2923.63 123.409   2
   4   4   2 2369.29 141.854   3
   4   4   2 2535.66 116.059   2
   4   4   3 7249.29 193.087   3
   4   4   3 6401.53 144.413   2
   4   4   4 1169.39 128.840   3
   4   4   4 1357.55 84.7979   2
   4   4   5 6458.59 192.310   3
   4   4   5 6038.38 121.743   2
   4   4   6 6133.20 195.394   3
   4   4   7 1182.47 130.191   3
   4   4   8 3932.60 181.532   1
   4   4   8 4646.77 191.324   3
   4   4   9 377.000 124.288   3
   4   4   9 295.869 129.907   1
   4   4  10 575.590 140.863   1
   4   4  11 38.4541 136.302   1
   4   4  11 234.698 128.528   3
   4   4  12 38.2717 125.762   3
   4   4  12 281.186 150.379   1
   4   4  13 239.736 131.725   3
   4   4  13-180.678 148.756   1
   4   4  14 4321.54 215.983   3
   4   4  14 3626.93 231.688   1
   4   5 -10 307.500 156.426   2
   4   5  -9 1245.64 168.109   2
   4   5  -8 288.833 148.219   2
   4   5  -7 192.137 135.189   2
   4   5  -7 233.863 111.136   3
   4   5  -6 4907.56 169.076   3
   4   5  -6 5330.70 208.037   2
   4   5  -5 644.139 116.904   3
   4   5  -5 679.268 139.467   2
   4   5  -4 3593.63 153.997   3
   4   5  -4 3358.35 177.616   2
   4   5  -3 16091.4 263.840   3
   4   5  -3 15399.2 291.447   2
   4   5  -2 9441.60 211.941   3
   4   5  -2 9775.44 236.785   2
   4   5  -1 1507.65 138.267   3
   4   5   0 15706.6 264.949   3
   4   5   0 17602.6 277.979   2
   4   5   1 2691.64 161.630   3
   4   5   1 3055.91 155.452   2
   4   5   2 4903.32 175.579   3
   4   5   2 4980.35 158.891   2
   4   5   3 2462.19 155.855   3
   4   5   3 2390.63 121.478   2
   4   5   4 2152.42 152.639   3
   4   5   4 2214.23 108.097   2
   4   5   5 2223.88 157.515   3
   4   5   6 900.238 128.804   3
   4   5   7 383.136 120.351   3
   4   5   8 1760.47 147.466   3
   4   5   9-42.3525 127.601   1
   4   5   9 51.3642 112.101   3
   4   5  10 1708.94 159.366   3
   4   5  10 1668.93 172.194   1
   4   5  11 3449.89 187.355   3
   4   5  11 3531.86 208.453   1
   4   5  12 998.225 148.478   3
   4   5  12 849.750 158.460   1
   4   5  13 230.838 127.011   3
   4   5  13 290.919 159.345   1
   4   6  -8 194.753 140.150   2
   4   6  -7 3502.54 169.165   3
   4   6  -7 3308.10 190.919   2
   4   6  -6 5320.23 191.984   3
   4   6  -6 4632.12 202.910   2
   4   6  -5 2641.81 154.345   3
   4   6  -5 2055.67 162.617   2
   4   6  -4 299.325 121.527   2
   4   6  -4-88.5641 120.872   3
   4   6  -3 1664.05 139.645   2
   4   6  -3 1859.39 141.741   3
   4   6  -2 1403.59 138.848   3
   4   6  -1 1657.06 141.482   3
   4   6   0 1921.77 132.741   2
   4   6   0 2136.36 154.110   3
   4   6   1 2469.20 138.116   2
   4   6   1 2804.58 162.339   3
   4   6   2 2076.61 127.477   2
   4   6   2 2192.39 151.051   3
   4   6   3 1595.62 118.424   2
   4   6   3 1422.62 142.875   3
   4   6   5 3181.02 182.791   3
   4   6   6 4521.96 197.521   3
   4   6   7 366.538 130.507   3
   4   6   8 1730.92 172.947   1
   4   6   8 1488.74 150.977   3
   4   6   9 521.721 143.692   1
   4   6  10 477.847 153.323   1
   4   6  11 1854.77 160.306   3
   4   6  11 1487.77 187.756   1
   4   6  12 243.526 161.345   1
   4   6  12 449.143 134.426   3
   4   7  -6 2389.74 162.284   3
   4   7  -6 2439.09 181.242   2
   4   7  -5 355.833 123.617   2
   4   7  -5 267.335 127.992   3
   4   7  -4 1819.98 148.499   2
   4   7  -4 2303.31 161.630   3
   4   7  -2 484.065 118.146   2
   4   7  -2 387.431 132.528   3
   4   7  -1 2125.36 147.381   2
   4   7  -1 3020.85 174.057   3
   4   7   0 1137.94 128.728   2
   4   7   0 1486.35 157.558   3
   4   7   1 2281.03 149.906   2
   4   7   1 2803.27 188.191   3
   4   7   2 5014.25 178.390   2
   4   7   2 6399.95 226.326   3
   4   7   5 3410.18 194.117   3
   4   7   6 461.543 148.364   3
   4   7   7 707.839 152.353   3
   4   7   8 2880.07 186.936   3
   4   7   8 2339.34 202.577   1
   4   7   9 722.125 163.224   1
   4   7  10 1948.27 200.036   1
   4   7  10 2500.49 181.634   3
   4   8  -2 40.9952 111.622   2
   4   8  -2 495.670 144.546   3
   4   8  -1 1115.16 132.266   2
   4   8  -1 1210.49 160.632   3
   4   8   0 403.405 118.164   2
   4   8   0 355.935 158.666   3
   4   8   1 2945.12 199.330   3
   4   8   2 483.770 115.706   2
   4   8   4 1554.17 177.438   3
   4   8   5 3153.44 201.780   3
   4   8   6 122.005 150.375   3
   4   8   7 999.725 169.374   3
   5  -3  -5 470.402 176.939   2
   5  -3  -4 33.4856 179.216   2
   5  -3  -3 2790.79 235.021   2
   5  -3   0 787.628 145.324   3
   5  -3   0 755.568 178.795   2
   5  -3   1 379.095 168.748   2
   5  -3   1 427.863 142.093   3
   5  -3   2 578.814 152.697   3
   5  -3   2 394.914 167.410   2
   5  -3   3 2228.82 190.891   3
   5  -3   3 2579.54 205.993   2
   5  -3   4 278.698 153.611   3
   5  -3   5 835.824 166.327   3
   5  -2  -8 752.602 189.303   2
   5  -2  -7 1857.64 196.565   4
   5  -2  -6 3132.13 222.702   4
   5  -2  -6 3757.74 240.963   2
   5  -2  -5 61.9325 159.895   2
   5  -2  -4 1414.74 193.327   2
   5  -2  -3 1822.38 204.860   2
   5  -2  -2 2789.61 220.427   2
   5  -2  -1 1776.96 190.723   2
   5  -2   0 537.036 137.146   3
   5  -2   0 305.971 154.446   2
   5  -2   2 6364.85 228.460   3
   5  -2   2 6512.62 257.962   2
   5  -2   3 6437.74 229.832   3
   5  -2   3 7269.77 264.674   2
   5  -2   4 759.468 157.946   3
   5  -2   4 628.680 148.700   2
   5  -2   5 830.646 148.240   2
   5  -2   6 2695.13 198.071   3
   5  -2   6 2262.48 175.321   2
   5  -2   7 327.979 129.053   2
   5  -2   7 96.5107 161.237   3
   5  -2   8 1573.64 201.907   3
   5  -1  -9 2021.61 204.164   4
   5  -1  -9 1887.63 201.690   2
   5  -1  -8 1885.94 192.239   4
   5  -1  -8 1822.17 193.904   2
   5  -1  -7 85.7809 156.192   2
   5  -1  -7 125.803 159.189   4
   5  -1  -6 439.451 156.809   4
   5  -1  -5 903.465 165.533   2
   5  -1  -4 2806.93 201.550   2
   5  -1  -2 3618.56 221.681   2
   5  -1  -1 7933.11 210.762   3
   5  -1  -1 7975.77 264.328   2
   5  -1   1 3137.12 169.699   3
   5  -1   1 3305.74 198.292   2
   5  -1   2 5244.06 205.929   3
   5  -1   2 5411.36 222.573   2
   5  -1   3 5809.73 212.999   3
   5  -1   3 6002.82 229.901   2
   5  -1   5-31.1837 123.128   2
   5  -1   5 19.2377 146.524   3
   5  -1   6 464.978 157.226   3
   5  -1   6 485.792 126.095   2
   5  -1   7 1752.41 190.270   3
   5  -1   9 2078.43 204.212   3
   5  -1  10 2196.91 213.928   3
   5   0 -10 995.337 176.774   2
   5   0  -9 1726.06 181.388   4
   5   0  -9 1804.70 197.691   2
   5   0  -8 2112.59 188.861   4
   5   0  -8 2132.10 192.402   2
   5   0  -7 2357.78 188.334   4
   5   0  -7 2275.89 198.227   2
   5   0  -6 2299.27 180.783   4
   5   0  -6 2455.14 198.590   2
   5   0  -5 70.4280 149.517   2
   5   0  -5 128.211 145.629   4
   5   0  -4 9248.13 283.039   2
   5   0  -3 22155.6 389.246   2
   5   0  -2 4535.53 185.198   3
   5   0  -2 4360.84 223.322   2
   5   0   0 2346.72 153.245   3
   5   0   0 2419.71 172.559   2
   5   0   1 2339.99 175.849   2
   5   0   2 6960.23 214.421   3
   5   0   2 7022.65 223.198   2
   5   0   3 37.8711 123.125   2
   5   0   4 2648.18 176.780   3
   5   0   4 2701.83 160.728   2
   5   0   5 3154.81 190.959   3
   5   0   6 230.903 110.156   2
   5   0   6 411.272 159.415   3
   5   0   7 1825.94 193.485   3
   5   0   8 6296.86 263.478   3
   5   0  10 2243.32 228.176   3
   5   0  11 736.919 194.871   3
   5   1 -11 412.117 154.132   2
   5   1 -11 403.302 162.448   4
   5   1 -10 2970.24 207.792   4
   5   1 -10 2983.97 215.088   2
   5   1  -9 243.962 151.515   2
   5   1  -9 228.103 144.637   4
   5   1  -8 2404.92 184.469   4
   5   1  -8 1767.42 184.703   2
   5   1  -7 8118.90 259.074   4
   5   1  -7 8396.27 273.480   2
   5   1  -6 1123.78 148.019   4
   5   1  -6 959.752 161.197   2
   5   1  -5 1342.15 155.985   4
   5   1  -5 1130.70 157.662   2
   5   1  -4 3670.39 197.626   4
   5   1  -4 4068.15 200.082   2
   5   1  -3 1129.49 102.708   3
   5   1  -3 1199.43 152.601   2
   5   1  -2 2698.61 130.368   3
   5   1  -2 3195.52 178.707   2
   5   1  -1 2423.78 136.738   3
   5   1  -1 2295.39 162.514   2
   5   1   0 2164.16 139.555   3
   5   1   0 2187.85 157.486   2
   5   1   1 4445.02 172.786   3
   5   1   1 3861.46 175.068   2
   5   1   2 8462.57 215.790   3
   5   1   2 8317.67 215.754   2
   5   1   3 157.988 126.388   3
   5   1   3-5.63606 110.437   2
   5   1   5 4035.96 192.310   3
   5   1   5 4157.90 160.734   2
   5   1   6 169.179 92.2245   2
   5   1   6 223.891 137.009   3
   5   1   7 2315.46 181.891   3
   5   1   8 6143.31 242.960   3
   5   1   9 392.273 163.826   3
   5   1  11 381.719 173.254   3
   5   1  12 837.292 186.754   3
   5   2 -11 1028.23 174.827   2
   5   2 -10 1616.20 187.651   2
   5   2  -9 886.795 167.671   2
   5   2  -9 992.101 155.583   4
   5   2  -8 9463.62 268.723   4
   5   2  -8 10788.6 303.927   2
   5   2  -7 429.724 151.553   2
   5   2  -7 632.839 131.222   4
   5   2  -6 2387.43 161.427   4
   5   2  -6 2457.86 186.777   2
   5   2  -5 1186.67 139.655   4
   5   2  -5 1052.47 151.954   2
   5   2  -4 1585.14 151.923   2
   5   2  -3 3.74052 128.206   2
   5   2  -3 41.9429 87.7919   3
   5   2  -2 5434.15 156.256   3
   5   2  -2 5746.66 202.686   2
   5   2  -1 5167.54 157.569   3
   5   2  -1 5850.63 197.278   2
   5   2   1 1494.96 123.849   3
   5   2   1 1688.32 130.705   2
   5   2   2 3791.49 155.692   3
   5   2   2 4001.87 157.095   2
   5   2   3 6838.27 202.533   3
   5   2   3 7408.11 185.452   2
   5   2   4 9745.80 232.094   3
   5   2   4 10661.6 211.687   2
   5   2   5 388.552 92.9950   2
   5   2   5 417.129 124.116   3
   5   2   6 3428.22 145.726   1
   5   2   6 3786.76 180.396   3
   5   2   7 3459.07 183.502   3
   5   2   7 2761.11 150.161   1
   5   2   8 3068.62 186.595   3
   5   2   8 2653.16 153.473   1
   5   2   9 126.005 143.433   3
   5   2   9 188.080 119.167   1
   5   2  10 3500.28 207.335   3
   5   2  10 3118.73 178.547   1
   5   2  11 169.879 156.769   3
   5   2  13 1773.45 204.714   3
   5   3 -11 594.128 185.883   2
   5   3 -10 1715.41 197.446   2
   5   3  -9 878.366 173.727   2
   5   3  -8 714.266 165.682   2
   5   3  -6 1502.45 163.383   2
   5   3  -5 378.093 134.388   2
   5   3  -4 632.062 91.4969   3
   5   3  -3 3280.93 127.337   3
   5   3  -3 3866.67 189.406   2
   5   3  -2 10170.0 194.493   3
   5   3  -2 11012.9 260.961   2
   5   3  -1 7483.13 174.638   3
   5   3  -1 8676.63 227.629   2
   5   3   1 9891.86 205.254   3
   5   3   1 10808.8 223.506   2
   5   3   4 5717.40 187.656   3
   5   3   4 5650.27 152.986   2
   5   3   5 396.476 119.626   3
   5   3   6 585.305 124.841   3
   5   3   7 1487.54 135.488   1
   5   3   7 1548.61 147.283   3
   5   3   8 41.3983 128.811   3
   5   3   8 161.632 121.235   1
   5   3   9 3380.39 182.641   3
   5   3   9 3015.05 177.967   1
   5   3  11 1147.80 164.624   3
   5   3  11 1048.98 159.051   1
   5   3  12 743.513 154.839   1
   5   3  13 778.023 172.264   3
   5   3  13 649.681 172.779   1
   5   4  -8 2076.01 188.082   2
   5   4  -7 2263.06 187.302   2
   5   4  -6 1816.97 175.214   2
   5   4  -5 7486.45 186.020   3
   5   4  -5 8435.89 256.682   2
   5   4  -4 3417.00 140.562   3
   5   4  -4 3596.91 190.459   2
   5   4  -3 9961.09 208.191   3
   5   4  -3 9110.55 246.221   2
   5   4  -2 11875.0 227.031   3
   5   4  -2 11768.0 261.256   2
   5   4  -1 4605.83 163.701   3
   5   4  -1 4857.67 180.863   2
   5   4   1 1720.59 127.681   3
   5   4   1 1730.53 124.374   2
   5   4   3 3126.24 162.300   3
   5   4   3 2775.44 134.756   2
   5   4   4 5631.07 186.533   3
   5   4   4 5177.18 150.404   2
   5   4   5 1396.53 130.845   3
   5   4   6 4666.78 193.023   3
   5   4   7 4395.90 187.833   3
   5   4   8 42.9677 123.580   3
   5   4   8 50.8936 118.551   1
   5   4   9 3925.99 192.131   1
   5   4   9 4384.54 195.587   3
   5   4  10 6294.94 221.758   3
   5   4  10 5795.44 230.280   1
   5   4  11 39.6223 142.847   1
   5   4  11 29.5227 135.234   3
   5   4  12 422.669 140.364   3
   5   4  12 354.254 150.531   1
   5   4  13 1411.08 174.294   3
   5   4  13 1432.25 182.383   1
   5   5  -9 1710.18 197.608   2
   5   5  -8 3576.66 225.010   2
   5   5  -7 4282.41 219.911   2
   5   5  -5 4053.12 160.694   3
   5   5  -5 4134.10 203.837   2
   5   5  -4 518.562 117.399   3
   5   5  -4 566.452 142.902   2
   5   5  -3 10061.9 225.157   3
   5   5  -3 9310.00 252.091   2
   5   5  -2 5072.42 175.050   3
   5   5  -2 5193.34 196.992   2
   5   5  -1 1361.87 142.335   3
   5   5   0 4398.92 177.005   3
   5   5   0 3995.91 169.073   2
   5   5   1 5021.00 188.933   3
   5   5   1 5011.32 173.780   2
   5   5   3 5619.58 201.108   3
   5   5   3 5486.03 174.186   2
   5   5   4 6168.21 209.385   3
   5   5   5 1615.60 150.234   3
   5   5   6 2003.25 158.607   3
   5   5   7 947.987 133.729   3
   5   5   8 458.179 139.683   1
   5   5   8 537.608 130.031   3
   5   5   9 2608.56 182.442   1
   5   5   9 2572.20 175.437   3
   5   5  10 299.813 139.748   3
   5   5  10 290.823 144.539   1
   5   5  11 1195.41 152.648   3
   5   5  11 1377.14 171.300   1
   5   5  12 2757.79 184.270   3
   5   5  12 3053.40 216.885   1
   5   6  -7 344.849 152.123   2
   5   6  -5 2463.71 160.184   3
   5   6  -4 646.777 129.972   3
   5   6  -4 506.037 138.382   2
   5   6  -3 1492.33 142.872   3
   5   6  -2 2008.77 144.111   3
   5   6  -1 1952.89 157.752   3
   5   6   0 8335.66 235.589   3
   5   6   0 8469.24 236.830   2
   5   6   1 3729.64 198.311   3
   5   6   1 3548.71 176.174   2
   5   6   2 6199.48 222.771   3
   5   6   2 6019.62 199.392   2
   5   6   3 1904.56 143.106   2
   5   6   4 4403.36 206.660   3
   5   6   5 2349.70 176.501   3
   5   6   6 3727.66 191.137   3
   5   6   7 341.711 137.137   3
   5   6   8 3226.61 184.691   3
   5   6   9 497.550 153.809   1
   5   6   9 333.210 130.164   3
   5   6  10 101.903 148.630   1
   5   6  10 353.133 140.621   3
   5   6  11 1410.97 185.894   1
   5   7  -4 210.151 131.661   3
   5   7  -4 542.614 144.699   2
   5   7  -3 2591.25 172.756   3
   5   7  -3 2533.30 176.394   2
   5   7  -2 284.007 131.883   2
   5   7  -2 398.225 135.630   3
   5   7  -1 636.026 141.801   3
   5   7  -1 241.266 130.733   2
   5   7   0 567.393 128.674   2
   5   7   1 323.133 125.079   2
   5   7   2 3059.81 186.403   3
   5   7   2 3225.93 173.458   2
   5   7   3 1882.47 170.579   3
   5   7   5-100.019 144.625   3
   5   7   6 1121.54 167.837   3
   5   7   7 542.073 152.131   3
   5   7   8 1342.64 165.869   3
   5   7   9 21.0746 163.530   1
   5   7   9 431.649 151.583   3
   5   8  -1 63.6026 125.790   2
   5   8  -1 199.892 139.443   3
   5   8   1 344.314 149.569   3
   5   8   3 2141.30 182.928   3
   5   8   4 256.252 151.848   3
   5   8   5 567.940 164.375   3
   5   8   6 1298.18 176.828   3
   6  -2  -2 494.779 174.912   2
   6  -2  -1 415.943 183.780   2
   6  -2   1 4012.68 237.376   2
   6  -2   2 453.246 161.188   3
   6  -2   2 462.176 173.941   2
   6  -2   3 326.410 165.251   2
   6  -2   3 111.054 155.763   3
   6  -1  -6 1593.71 210.073   2
   6  -1  -5 459.876 171.838   2
   6  -1  -4 263.923 170.934   2
   6  -1  -3 4765.30 250.533   2
   6  -1   0 5008.58 241.844   2
   6  -1   1 374.257 165.269   2
   6  -1   2 287.015 146.366   2
   6  -1   2 145.111 143.889   3
   6  -1   4 1730.04 183.300   2
   6  -1   5 85.2464 139.505   2
   6  -1   5-58.4109 166.222   3
   6  -1   6 4103.69 235.851   3
   6  -1   7 299.417 179.605   3
   6   0  -8 2736.09 205.762   4
   6   0  -8 2237.96 212.339   2
   6   0  -7-215.512 181.413   2
   6   0  -7 392.406 159.604   4
   6   0  -6 2909.65 224.141   2
   6   0  -5 1420.72 187.618   2
   6   0  -4 2736.40 210.535   2
   6   0  -3 1518.73 186.231   2
   6   0  -2 2474.78 195.135   2
   6   0  -1 189.795 146.466   2
   6   0   0 361.245 145.338   3
   6   0   0 168.674 142.038   2
   6   0   1 178.815 139.510   2
   6   0   3 3507.36 207.775   3
   6   0   3 3231.65 190.409   2
   6   0   4 612.090 145.311   2
   6   0   5 2655.31 214.441   3
   6   0   5 1930.75 164.210   2
   6   0   6 1804.07 204.049   3
   6   0   7 95.6133 192.200   3
   6   0   8 2088.03 237.792   3
   6   1  -8 2026.87 189.588   4
   6   1  -8 2821.12 218.454   2
   6   1  -7 301.249 160.980   2
   6   1  -7 190.316 143.193   4
   6   1  -6 4275.72 231.438   2
   6   1  -5-1.64929 156.238   2
   6   1  -4 673.846 161.068   2
   6   1  -3 1494.72 166.344   2
   6   1  -2 265.383 140.466   2
   6   1   0 7500.62 253.286   2
   6   1   1 20455.7 333.458   3
   6   1   1 17141.2 333.507   2
   6   1   2 8546.16 253.781   3
   6   1   2 7488.45 242.275   2
   6   1   3 4103.88 204.637   3
   6   1   3 3471.95 186.275   2
   6   1   4 2682.98 192.885   3
   6   1   5 2770.05 192.687   3
   6   1   5 2318.66 162.673   2
   6   1   6 381.204 161.556   3
   6   1   7 313.037 168.859   3
   6   1   8 3172.46 225.058   3
   6   1   9 281.364 178.656   3
   6   1  10 606.840 182.234   3
   6   2  -9 478.022 160.078   2
   6   2  -8 243.753 157.559   2
   6   2  -7 292.561 151.596   2
   6   2  -6 704.947 156.409   2
   6   2  -5 330.487 139.485   2
   6   2  -4 1885.87 170.006   2
   6   2  -3 8776.81 263.000   2
   6   2  -2 145.285 141.073   2
   6   2  -1 2691.85 148.470   3
   6   2  -1 2750.69 173.319   2
   6   2   0 2113.05 149.757   3
   6   2   0 2348.29 162.823   2
   6   2   1 1301.63 132.401   3
   6   2   1 1492.19 146.218   2
   6   2   2 1099.95 130.095   2
   6   2   3 1977.49 160.977   3
   6   2   3 1654.91 148.496   2
   6   2   4 4319.86 194.441   3
   6   2   6 336.299 152.165   3
   6   2   7 4250.40 218.646   3
   6   2   8 4036.73 222.855   3
   6   2   9 3003.69 216.151   3
   6   2  10 142.354 157.249   3
   6   2  11 792.439 180.302   3
   6   3  -9 1320.94 196.796   2
   6   3  -7 1648.80 187.190   2
   6   3  -5 2301.90 186.627   2
   6   3  -4 6995.63 250.237   2
   6   3  -2-32.9794 131.835   2
   6   3  -2 52.8545 104.203   3
   6   3  -1 5312.04 174.232   3
   6   3  -1 5951.03 207.111   2
   6   3   0 4576.14 173.088   3
   6   3   0 4745.89 188.332   2
   6   3   1 2156.35 146.137   2
   6   3   2 1676.34 141.538   3
   6   3   2 1665.14 136.677   2
   6   3   4 2209.19 158.201   3
   6   3   4 2180.82 136.385   2
   6   3   5 3779.70 184.890   3
   6   3   6 1111.47 147.974   3
   6   3   7 2350.81 155.404   1
   6   3   7 2548.24 174.188   3
   6   3   8 3460.99 193.614   3
   6   3   9 1554.94 173.034   3
   6   3  10 608.389 159.792   3
   6   4  -8 831.172 178.647   2
   6   4  -7 163.760 169.334   2
   6   4  -6 120.248 160.959   2
   6   4  -5 76.8522 148.943   2
   6   4  -4 1785.58 172.065   2
   6   4  -3 377.345 106.603   3
   6   4  -3 562.847 148.816   2
   6   4  -2 872.233 120.385   3
   6   4  -1 7223.68 195.747   3
   6   4  -1 7752.06 236.859   2
   6   4   0 4956.88 177.523   3
   6   4   0 5289.54 204.913   2
   6   4   1 3254.59 158.545   3
   6   4   1 3869.64 179.901   2
   6   4   2 3394.46 162.877   3
   6   4   2 3370.43 157.619   2
   6   4   4 3058.07 172.157   3
   6   4   5 2097.55 159.192   3
   6   4   7 116.201 131.462   3
   6   4   8 2247.42 165.838   1
   6   4   8 2105.95 162.057   3
   6   4   9 18.5964 141.284   3
   6   4   9 115.611 142.538   1
   6   4  10 2018.87 175.163   3
   6   4  10 1585.12 169.881   1
   6   4  11 789.564 151.064   3
   6   4  11 590.715 164.819   1
   6   5  -6 775.836 168.817   2
   6   5  -5 220.690 155.108   2
   6   5  -4 1532.38 144.598   3
   6   5  -4 1779.76 166.054   2
   6   5  -3 633.760 125.051   3
   6   5  -3 841.517 146.514   2
   6   5  -2 2536.42 152.511   3
   6   5  -1 1865.16 144.992   3
   6   5   1 9752.14 245.187   3
   6   5   1 9495.46 239.791   2
   6   5   2 6949.72 219.658   3
   6   5   2 6912.14 220.449   2
   6   5   3 2737.55 179.027   3
   6   5   4 3164.57 174.638   3
   6   5   5 1694.34 153.329   3
   6   5   6 332.094 139.207   3
   6   5   7 312.759 137.496   3
   6   5   8 21.5099 128.052   3
   6   5   8 98.0221 134.812   1
   6   5   9 485.106 143.257   3
   6   5   9 406.973 143.713   1
   6   5  10 1216.99 158.582   3
   6   5  11 214.530 146.479   3
   6   5  11 48.1609 151.043   1
   6   6  -6 823.819 170.841   2
   6   6  -5 690.189 162.030   2
   6   6  -4 3240.28 181.212   3
   6   6  -4 3451.34 208.216   2
   6   6  -3 1982.24 165.182   3
   6   6  -2 1718.58 161.616   3
   6   6  -1 2864.23 181.263   3
   6   6  -1 2843.53 183.026   2
   6   6   0 1987.18 173.508   3
   6   6   0 1813.20 164.317   2
   6   6   1 2557.72 171.763   2
   6   6   2 7186.79 233.296   3
   6   6   2 6818.68 222.059   2
   6   6   4 2447.10 174.968   3
   6   6   5 565.160 144.648   3
   6   6   6 1406.83 161.749   3
   6   6   7 2145.89 166.329   3
   6   6   8 288.422 138.493   3
   6   6   9 599.344 153.052   3
   6   6   9 361.032 147.748   1
   6   6  10 2946.21 207.758   1
   6   6  10 3210.09 200.544   3
   6   7  -3 526.786 149.310   3
   6   7  -3 500.963 144.947   2
   6   7  -2 901.416 150.882   3
   6   7  -1 477.227 151.138   3
   6   7  -1 539.612 140.287   2
   6   7   0 389.719 132.242   2
   6   7   0 379.675 151.777   3
   6   7   1 702.672 158.620   3
   6   7   4 11620.2 312.405   3
   6   7   6 475.611 160.122   3
   6   7   7 4511.04 225.543   3
   6   7   8 1472.36 173.067   3
   7   0  -2 494.795 167.694   2
   7   0  -1 233.565 169.137   2
   7   0   1 6381.75 260.995   2
   7   0   3 459.990 153.789   2
   7   0   3 201.205 169.359   3
   7   1  -5 522.491 167.173   2
   7   1  -4 213.271 164.498   2
   7   1  -3 2326.12 203.143   2
   7   1   0 3303.15 206.003   2
   7   1   1 557.567 160.503   3
   7   1   1 40.0445 143.727   2
   7   1   2 594.610 163.990   3
   7   1   4 1258.51 183.868   3
   7   1   6 2282.90 218.565   3
   7   1   7 741.076 194.146   3
   7   2  -6 1847.58 201.526   2
   7   2  -5 1960.94 187.879   2
   7   2  -4 218.527 152.189   2
   7   2  -3 3199.78 211.643   2
   7   2  -2 2693.81 199.355   2
   7   2  -1 389.639 149.257   2
   7   2   0 145.820 130.888   2
   7   2   0 329.194 130.673   3
   7   2   2 507.319 143.466   2
   7   2   3 3906.30 210.559   3
   7   2   3 3184.02 189.560   2
   7   2   4 2977.61 205.497   3
   7   2   5 4882.75 237.131   3
   7   2   6 2780.89 214.030   3
   7   2   7 934.286 185.645   3
   7   2   8 2710.23 225.441   3
   7   3  -6 898.239 166.173   2
   7   3  -5 668.573 154.565   2
   7   3  -4 190.487 141.970   2
   7   3  -3 2758.31 192.204   2
   7   3  -1 253.800 130.031   2
   7   3   0 2296.89 155.698   3
   7   3   0 2022.34 161.773   2
   7   3   2 448.337 134.149   3
   7   3   2 63.3345 117.960   2
   7   3   3 1193.57 153.036   3
   7   3   4 757.210 146.450   3
   7   3   5 2629.21 182.620   3
   7   3   6 2884.96 192.016   3
   7   3   7 175.011 148.378   3
   7   3   8 1450.83 183.535   3
   7   4  -6 100.742 157.507   2
   7   4  -5 805.263 171.967   2
   7   4  -2 3205.90 192.250   2
   7   4  -1 2456.56 155.425   3
   7   4  -1 2551.62 180.837   2
   7   4   0 3033.74 170.600   3
   7   4   0 3484.52 186.532   2
   7   4   1 2154.19 160.339   3
   7   4   1 2196.56 162.566   2
   7   4   2 2111.65 154.830   2
   7   4   3 3414.48 181.069   3
   7   4   5 169.724 132.793   3
   7   4   7 545.048 146.484   3
   7   4   8-27.2752 148.797   3
   7   5  -5 9.14266 162.084   2
   7   5  -4 3085.02 212.335   2
   7   5  -3 2743.39 194.881   2
   7   5  -2 450.624 126.150   3
   7   5  -2 820.873 154.483   2
   7   5  -1 2266.73 155.995   3
   7   5  -1 2967.56 189.413   2
   7   5   0 2211.33 161.638   3
   7   5   0 2552.28 178.762   2
   7   5   1 3752.31 186.855   3
   7   5   1 3808.67 197.169   2
   7   5   3 2206.16 170.480   3
   7   5   5 298.101 139.667   3
   7   5   6 343.680 138.547   3
   7   5   7 68.3816 139.416   3
   7   5   8 1418.17 166.185   1
   7   6  -3 2516.17 192.323   2
   7   6  -2 1885.88 168.867   3
   7   6   0 2018.68 170.158   3
   7   6   2 3223.35 189.071   3
   7   6   5 2693.65 192.147   3
   7   6   6 406.992 162.933   3
   7   6   7 861.786 163.975   3
   7   7   2 3016.22 212.010   3
   8   3   1 2436.52 190.987   3
   8   3   1 2686.70 185.961   2
   8   3   2 1371.37 167.136   3
   8   4   1 2177.14 175.004   3
   8   4   3 386.120 143.781   3
   0   0   0    0.00    0.00   0
;
_shelx_hkl_checksum              62084
_olex2_diffrn_ambient_temperature_device 'Oxford Cryosystems'
_olex2_exptl_crystal_mounting_method
'The crystal was mounted on a loop with paratone oil'
_olex2_submission_original_sample_id cds3-023bF1
_olex2_submission_special_instructions 'No special instructions were received'
_oxdiff_exptl_absorpt_empirical_details
;
Empirical correction (ABSPACK) includes:
- Absorption correction using spherical harmonics
- Frame scaling
- Detector area scaling
;
_oxdiff_exptl_absorpt_empirical_full_max 1.497
_oxdiff_exptl_absorpt_empirical_full_min 0.781
loop_
_space_group_symop_operation_xyz
'x, y, z'
loop_
_atom_site_label
_atom_site_type_symbol
_atom_site_fract_x
_atom_site_fract_y
_atom_site_fract_z
_atom_site_U_iso_or_equiv
_atom_site_adp_type
_atom_site_occupancy
_atom_site_site_symmetry_order
_atom_site_calc_flag
_atom_site_refinement_flags_posn
_atom_site_refinement_flags_adp
Cl1 Cl -0.7638(2) 0.28223(19) -0.42778(11) 0.0245(4) Uani 1 1 d . U
Si1 Si -0.4356(2) 0.1975(2) -0.77883(11) 0.0159(4) Uani 1 1 d . .
F1 F -0.8707(5) 0.3262(5) -0.6144(2) 0.0251(7) Uani 1 1 d . U
O3 O -0.4855(6) 0.0270(6) -0.6874(3) 0.0168(8) Uani 1 1 d . U
O4 O -0.3272(6) -0.4389(6) -0.3712(3) 0.0202(9) Uani 1 1 d . U
O1 O -0.6656(6) -0.1996(6) -0.5118(3) 0.0201(8) Uani 1 1 d . U
O7 O -0.5280(7) -1.2656(7) -0.0495(3) 0.0311(10) Uani 1 1 d . U
O2 O -1.0344(7) 0.0332(7) -0.5106(3) 0.0295(10) Uani 1 1 d . U
O5 O -0.6573(7) -0.2628(6) -0.2810(3) 0.0238(9) Uani 1 1 d . U
O6 O -0.2041(7) -1.4150(7) -0.1334(3) 0.0311(10) Uani 1 1 d . U
N1 N -0.3768(8) -1.2563(7) -0.1092(3) 0.0220(9) Uani 1 1 d . U
C5 C -0.3422(10) -0.2363(9) -0.4228(4) 0.0195(12) Uani 1 1 d . .
H5A H -0.1918 -0.2425 -0.4335 0.023 Uiso 1 1 calc R .
H5B H -0.4334 -0.1207 -0.3799 0.023 Uiso 1 1 calc R .
C17 C -0.6108(10) -0.8653(9) -0.1448(4) 0.0225(12) Uani 1 1 d . U
H17 H -0.7312 -0.8807 -0.1071 0.027 Uiso 1 1 calc R .
C9 C -0.1702(9) 0.0238(9) -0.8535(4) 0.0179(12) Uani 1 1 d . .
C13 C -0.4547(9) -0.6470(9) -0.2500(4) 0.0169(10) Uani 1 1 d . U
C15 C -0.2209(10) -1.0266(9) -0.2135(4) 0.0216(11) Uani 1 1 d . U
H15 H -0.0833 -1.1481 -0.2204 0.026 Uiso 1 1 calc R .
C11 C 0.0354(10) -0.0677(10) -0.7863(5) 0.0254(13) Uani 1 1 d . .
H11A H 0.0587 0.0489 -0.7667 0.038 Uiso 1 1 calc GR .
H11B H 0.1676 -0.1604 -0.8248 0.038 Uiso 1 1 calc GR .
H11C H 0.0089 -0.1489 -0.7253 0.038 Uiso 1 1 calc GR .
C4 C -0.8389(9) -0.0023(9) -0.5201(4) 0.0196(10) Uani 1 1 d . U
C18 C -0.6348(10) -0.6674(9) -0.1899(4) 0.0215(12) Uani 1 1 d . U
H18 H -0.7712 -0.5457 -0.1808 0.026 Uiso 1 1 calc R .
C14 C -0.2484(9) -0.8270(9) -0.2593(4) 0.0199(11) Uani 1 1 d . U
H14 H -0.1273 -0.8127 -0.2969 0.024 Uiso 1 1 calc R .
C16 C -0.4030(9) -1.0420(9) -0.1567(4) 0.0189(10) Uani 1 1 d . U
C6 C -0.4954(9) -0.4286(9) -0.3006(4) 0.0177(10) Uani 1 1 d . U
C8 C -0.4036(10) 0.4048(9) -0.7147(5) 0.0249(13) Uani 1 1 d . .
H8A H -0.5373 0.4778 -0.6719 0.037 Uiso 1 1 calc GR .
H8B H -0.3830 0.5075 -0.7664 0.037 Uiso 1 1 calc GR .
H8C H -0.2740 0.3361 -0.6728 0.037 Uiso 1 1 calc GR .
C2 C -0.4980(8) 0.0351(8) -0.5810(4) 0.0146(10) Uani 1 1 d . U
H2 H -0.3975 0.0911 -0.5604 0.018 Uiso 1 1 calc R .
C3 C -0.7453(9) 0.1661(9) -0.5437(4) 0.0188(9) Uani 1 1 d . U
C1 C -0.4480(9) -0.1903(9) -0.5259(4) 0.0177(11) Uani 1 1 d . U
H1 H -0.3466 -0.2998 -0.5712 0.021 Uiso 1 1 calc R .
C7 C -0.6786(9) 0.3209(10) -0.8639(5) 0.0240(13) Uani 1 1 d . .
H7A H -0.6914 0.2097 -0.8951 0.036 Uiso 1 1 calc GR .
H7B H -0.6549 0.4197 -0.9170 0.036 Uiso 1 1 calc GR .
H7C H -0.8155 0.3974 -0.8237 0.036 Uiso 1 1 calc GR .
C10 C -0.1327(11) 0.1615(10) -0.9499(4) 0.0304(15) Uani 1 1 d . .
H10A H -0.2617 0.2176 -0.9920 0.046 Uiso 1 1 calc GR .
H10B H 0.0008 0.0735 -0.9891 0.046 Uiso 1 1 calc GR .
H10C H -0.1140 0.2791 -0.9285 0.046 Uiso 1 1 calc GR .
C12 C -0.2024(10) -0.1612(10) -0.8893(5) 0.0272(14) Uani 1 1 d . .
H12A H -0.2124 -0.2556 -0.8302 0.041 Uiso 1 1 calc GR .
H12B H -0.0757 -0.2410 -0.9342 0.041 Uiso 1 1 calc GR .
H12C H -0.3395 -0.1031 -0.9260 0.041 Uiso 1 1 calc GR .
loop_
_atom_site_aniso_label
_atom_site_aniso_U_11
_atom_site_aniso_U_22
_atom_site_aniso_U_33
_atom_site_aniso_U_23
_atom_site_aniso_U_13
_atom_site_aniso_U_12
Cl1 0.0202(8) 0.0250(8) 0.0271(8) -0.0077(6) 0.0044(6) -0.0087(6)
Si1 0.0151(8) 0.0154(8) 0.0175(8) 0.0041(6) -0.0001(6) -0.0087(7)
F1 0.0151(16) 0.0255(16) 0.0280(16) 0.0071(12) -0.0034(12) -0.0052(13)
O3 0.018(2) 0.0164(18) 0.0179(16) 0.0026(13) 0.0003(13) -0.0103(16)
O4 0.0165(18) 0.0178(19) 0.0206(18) 0.0055(14) 0.0017(14) -0.0052(15)
O1 0.0185(16) 0.0234(16) 0.023(2) 0.0033(13) -0.0008(14) -0.0145(13)
O7 0.037(2) 0.031(2) 0.029(2) 0.0034(16) 0.0068(16) -0.0221(18)
O2 0.0182(16) 0.041(2) 0.033(2) 0.0027(18) -0.0012(14) -0.0176(15)
O5 0.0191(18) 0.0220(17) 0.024(2) 0.0021(14) 0.0038(14) -0.0052(13)
O6 0.033(2) 0.0224(17) 0.036(2) 0.0022(15) 0.0034(16) -0.0127(15)
N1 0.0277(19) 0.0224(16) 0.019(2) 0.0039(14) -0.0013(15) -0.0152(14)
C5 0.017(3) 0.016(3) 0.027(3) 0.007(2) -0.002(2) -0.011(2)
C17 0.022(2) 0.0241(18) 0.020(3) 0.0027(15) 0.0050(17) -0.0118(15)
C9 0.016(3) 0.020(3) 0.021(3) 0.003(2) -0.002(2) -0.011(2)
C13 0.0181(19) 0.0211(16) 0.012(2) 0.0008(13) -0.0012(15) -0.0096(14)
C15 0.022(2) 0.0202(19) 0.022(2) 0.0012(16) 0.0029(17) -0.0107(16)
C11 0.017(3) 0.025(3) 0.029(3) 0.001(2) -0.001(2) -0.005(2)
C4 0.0175(15) 0.0260(17) 0.017(2) 0.0005(14) -0.0012(13) -0.0116(13)
C18 0.020(2) 0.023(2) 0.020(2) 0.0018(16) 0.0031(18) -0.0092(17)
C14 0.018(2) 0.0210(17) 0.021(3) 0.0018(15) 0.0025(17) -0.0102(14)
C16 0.0214(17) 0.0208(15) 0.0165(18) 0.0008(12) 0.0004(14) -0.0120(12)
C6 0.0155(18) 0.0201(17) 0.016(2) 0.0018(14) -0.0003(15) -0.0081(13)
C8 0.021(3) 0.018(3) 0.033(3) 0.003(2) 0.001(3) -0.008(3)
C2 0.0113(17) 0.0154(17) 0.0174(16) 0.0019(13) -0.0002(13) -0.0071(14)
C3 0.0122(18) 0.0204(17) 0.0208(18) 0.0003(13) 0.0002(13) -0.0053(14)
C1 0.017(3) 0.015(2) 0.020(3) 0.0019(17) 0.004(2) -0.0079(19)
C7 0.016(3) 0.023(3) 0.027(3) 0.004(2) -0.001(2) -0.005(2)
C10 0.029(4) 0.035(4) 0.022(3) 0.005(3) 0.006(3) -0.014(3)
C12 0.022(3) 0.025(3) 0.029(3) -0.003(3) 0.002(3) -0.006(3)
loop_
_atom_type_symbol
_atom_type_description
_atom_type_scat_dispersion_real
_atom_type_scat_dispersion_imag
_atom_type_scat_source
C C 0.0033 0.0016 'International Tables Vol C Tables 4.2.6.8 and 6.1.1.4'
H H 0.0000 0.0000 'International Tables Vol C Tables 4.2.6.8 and 6.1.1.4'
Cl Cl 0.1484 0.1585 'International Tables Vol C Tables 4.2.6.8 and 6.1.1.4'
F F 0.0171 0.0103 'International Tables Vol C Tables 4.2.6.8 and 6.1.1.4'
N N 0.0061 0.0033 'International Tables Vol C Tables 4.2.6.8 and 6.1.1.4'
O O 0.0106 0.0060 'International Tables Vol C Tables 4.2.6.8 and 6.1.1.4'
Si Si 0.0817 0.0704 'International Tables Vol C Tables 4.2.6.8 and 6.1.1.4'
loop_
_geom_angle_atom_site_label_1
_geom_angle_atom_site_label_2
_geom_angle_atom_site_label_3
_geom_angle
O3 Si1 C9 105.5(2)
O3 Si1 C8 108.8(2)
O3 Si1 C7 107.6(2)
C8 Si1 C9 113.0(3)
C7 Si1 C9 110.1(3)
C7 Si1 C8 111.6(3)
C2 O3 Si1 126.3(3)
C6 O4 C5 116.7(4)
C4 O1 C1 111.5(4)
O7 N1 O6 124.1(5)
O7 N1 C16 118.3(5)
O6 N1 C16 117.6(5)
O4 C5 H5A 109.6
O4 C5 H5B 109.6
O4 C5 C1 110.2(4)
H5A C5 H5B 108.1
C1 C5 H5A 109.6
C1 C5 H5B 109.6
C18 C17 H17 120.8
C18 C17 C16 118.4(5)
C16 C17 H17 120.8
C11 C9 Si1 110.8(4)
C11 C9 C10 109.8(5)
C11 C9 C12 109.9(5)
C10 C9 Si1 108.9(4)
C12 C9 Si1 108.7(4)
C12 C9 C10 108.6(5)
C18 C13 C6 117.6(5)
C14 C13 C18 119.6(5)
C14 C13 C6 122.8(5)
C14 C15 H15 120.8
C14 C15 C16 118.3(5)
C16 C15 H15 120.8
C9 C11 H11A 109.5
C9 C11 H11B 109.5
C9 C11 H11C 109.5
H11A C11 H11B 109.5
H11A C11 H11C 109.5
H11B C11 H11C 109.5
O1 C4 C3 109.1(4)
O2 C4 O1 124.4(5)
O2 C4 C3 126.6(5)
C17 C18 C13 120.4(5)
C17 C18 H18 119.8
C13 C18 H18 119.8
C13 C14 H14 119.7
C15 C14 C13 120.6(5)
C15 C14 H14 119.7
C17 C16 N1 118.6(5)
C15 C16 N1 118.7(5)
C15 C16 C17 122.6(5)
O4 C6 C13 111.3(4)
O5 C6 O4 124.0(5)
O5 C6 C13 124.6(5)
Si1 C8 H8A 109.5
Si1 C8 H8B 109.5
Si1 C8 H8C 109.5
H8A C8 H8B 109.5
H8A C8 H8C 109.5
H8B C8 H8C 109.5
O3 C2 H2 112.0
O3 C2 C3 109.8(4)
O3 C2 C1 109.2(4)
C3 C2 H2 112.0
C3 C2 C1 101.2(4)
C1 C2 H2 112.0
F1 C3 Cl1 108.1(4)
F1 C3 C4 110.5(4)
F1 C3 C2 113.9(4)
C4 C3 Cl1 108.6(4)
C2 C3 Cl1 111.7(4)
C2 C3 C4 104.0(4)
O1 C1 C5 110.1(4)
O1 C1 C2 105.8(4)
O1 C1 H1 108.9
C5 C1 C2 114.1(4)
C5 C1 H1 108.9
C2 C1 H1 108.9
Si1 C7 H7A 109.5
Si1 C7 H7B 109.5
Si1 C7 H7C 109.5
H7A C7 H7B 109.5
H7A C7 H7C 109.5
H7B C7 H7C 109.5
C9 C10 H10A 109.5
C9 C10 H10B 109.5
C9 C10 H10C 109.5
H10A C10 H10B 109.5
H10A C10 H10C 109.5
H10B C10 H10C 109.5
C9 C12 H12A 109.5
C9 C12 H12B 109.5
C9 C12 H12C 109.5
H12A C12 H12B 109.5
H12A C12 H12C 109.5
H12B C12 H12C 109.5
loop_
_geom_bond_atom_site_label_1
_geom_bond_atom_site_label_2
_geom_bond_distance
Cl1 C3 1.778(6)
Si1 O3 1.680(4)
Si1 C9 1.883(6)
Si1 C8 1.860(6)
Si1 C7 1.851(6)
F1 C3 1.354(6)
O3 C2 1.391(6)
O4 C5 1.443(6)
O4 C6 1.349(6)
O1 C4 1.336(7)
O1 C1 1.457(6)
O7 N1 1.221(6)
O2 C4 1.196(7)
O5 C6 1.207(7)
O6 N1 1.230(6)
N1 C16 1.476(7)
C5 H5A 0.9700
C5 H5B 0.9700
C5 C1 1.511(8)
C17 H17 0.9300
C17 C18 1.368(8)
C17 C16 1.384(8)
C9 C11 1.530(8)
C9 C10 1.544(7)
C9 C12 1.532(8)
C13 C18 1.405(8)
C13 C14 1.385(8)
C13 C6 1.489(7)
C15 H15 0.9300
C15 C14 1.375(8)
C15 C16 1.383(8)
C11 H11A 0.9600
C11 H11B 0.9600
C11 H11C 0.9600
C4 C3 1.535(8)
C18 H18 0.9300
C14 H14 0.9300
C8 H8A 0.9600
C8 H8B 0.9600
C8 H8C 0.9600
C2 H2 0.9800
C2 C3 1.534(7)
C2 C1 1.538(7)
C1 H1 0.9800
C7 H7A 0.9600
C7 H7B 0.9600
C7 H7C 0.9600
C10 H10A 0.9600
C10 H10B 0.9600
C10 H10C 0.9600
C12 H12A 0.9600
C12 H12B 0.9600
C12 H12C 0.9600
