#------------------------------------------------------------------------------
#$Date: 2018-01-06 04:11:05 +0200 (Sat, 06 Jan 2018) $
#$Revision: 204825 $
#$URL: file:///home/coder/svn-repositories/cod/cif/4/03/31/4033140.cif $
#------------------------------------------------------------------------------
#
# This file is available in the Crystallography Open Database (COD),
# http://www.crystallography.net/
#
# All data on this site have been placed in the public domain by the
# contributors.
#
data_4033140
loop_
_publ_author_name
'Riedel, Sibylle'
'Maichle-M\"ossmer, C\"acilia'
'Maier, Martin E.'
_publ_section_title
;
 Intramolecular Diels-Alder Reactions of Tethered Enoate Substituted
 Furans Induced by Dialkylaluminum Chloride.
;
_journal_issue                   23
_journal_name_full               'The Journal of organic chemistry'
_journal_page_first              12798
_journal_page_last               12805
_journal_paper_doi               10.1021/acs.joc.7b02117
_journal_volume                  82
_journal_year                    2017
_chemical_formula_sum            'C12 H16 O3'
_chemical_formula_weight         208.25
_space_group_crystal_system      triclinic
_space_group_IT_number           2
_space_group_name_Hall           '-P 1'
_space_group_name_H-M_alt        'P -1'
_symmetry_space_group_name_Hall  '-P 1'
_symmetry_space_group_name_H-M   'P -1'
_atom_sites_solution_hydrogens   mixed
_audit_creation_method           SHELXL-2014/7
_cell_angle_alpha                104.927(3)
_cell_angle_beta                 105.219(3)
_cell_angle_gamma                98.265(4)
_cell_formula_units_Z            2
_cell_length_a                   7.1832(18)
_cell_length_b                   8.550(2)
_cell_length_c                   9.308(2)
_cell_measurement_reflns_used    4075
_cell_measurement_temperature    101(2)
_cell_measurement_theta_max      31.59
_cell_measurement_theta_min      2.384
_cell_volume                     519.1(2)
_computing_cell_refinement       'SAINT V8.37A (Bruker AXS Inc., 2015)'
_computing_data_collection       'APEX3 v2016.5-0 (Bruker AXS)'
_computing_data_reduction        'SAINT V8.37A (Bruker AXS Inc., 2015)'
_computing_structure_refinement  'SHELXL-2014/7 (Sheldrick, 2014)'
_computing_structure_solution
'XT, VERSION 2014/5,SHELXS-13 (Sheldrick 2008)'
_diffrn_ambient_temperature      101(2)
_diffrn_measured_fraction_theta_full 0.999
_diffrn_measured_fraction_theta_max 0.916
_diffrn_measurement_device_type  'Bruker APEX II DUO'
_diffrn_measurement_method       'omega scans'
_diffrn_radiation_type           MoK\a
_diffrn_radiation_wavelength     0.71073
_diffrn_reflns_av_R_equivalents  0.0443
_diffrn_reflns_av_unetI/netI     0.0421
_diffrn_reflns_Laue_measured_fraction_full 0.999
_diffrn_reflns_Laue_measured_fraction_max 0.916
_diffrn_reflns_limit_h_max       10
_diffrn_reflns_limit_h_min       -10
_diffrn_reflns_limit_k_max       11
_diffrn_reflns_limit_k_min       -12
_diffrn_reflns_limit_l_max       13
_diffrn_reflns_limit_l_min       -13
_diffrn_reflns_number            10001
_diffrn_reflns_point_group_measured_fraction_full 0.999
_diffrn_reflns_point_group_measured_fraction_max 0.916
_diffrn_reflns_theta_full        25.242
_diffrn_reflns_theta_max         31.592
_diffrn_reflns_theta_min         2.384
_diffrn_source                   'ImuS-focus sealed tube'
_exptl_absorpt_coefficient_mu    0.095
_exptl_absorpt_correction_T_max  0.7462
_exptl_absorpt_correction_T_min  0.6548
_exptl_absorpt_correction_type   multi-scan
_exptl_absorpt_process_details   sadabs
_exptl_crystal_colour            colourless
_exptl_crystal_density_diffrn    1.332
_exptl_crystal_description       block
_exptl_crystal_F_000             224
_exptl_crystal_size_max          0.411
_exptl_crystal_size_mid          0.309
_exptl_crystal_size_min          0.176
_refine_diff_density_max         0.466
_refine_diff_density_min         -0.216
_refine_diff_density_rms         0.058
_refine_ls_extinction_method     none
_refine_ls_goodness_of_fit_ref   1.059
_refine_ls_hydrogen_treatment    mixed
_refine_ls_matrix_type           full
_refine_ls_number_parameters     141
_refine_ls_number_reflns         3185
_refine_ls_number_restraints     0
_refine_ls_restrained_S_all      1.059
_refine_ls_R_factor_all          0.0480
_refine_ls_R_factor_gt           0.0409
_refine_ls_shift/su_max          0.000
_refine_ls_shift/su_mean         0.000
_refine_ls_structure_factor_coef Fsqd
_refine_ls_weighting_details
'w=1/[\s^2^(Fo^2^)+(0.0602P)^2^+0.0913P] where P=(Fo^2^+2Fc^2^)/3'
_refine_ls_weighting_scheme      calc
_refine_ls_wR_factor_gt          0.1107
_refine_ls_wR_factor_ref         0.1178
_reflns_Friedel_coverage         0.000
_reflns_number_gt                2691
_reflns_number_total             3185
_reflns_threshold_expression     'I > 2\s(I)'
_cod_data_source_file            jo7b02117_si_002.cif
_cod_data_source_block           mo_sr179_0m_enol_24
_cod_depositor_comments
'Adding full bibliography for 4033135--4033140.cif.'
_cod_original_cell_volume        519.2(2)
_cod_database_code               4033140
_shelx_shelxl_version_number     2014/7
_shelx_space_group_comment
;
The symmetry employed for this shelxl refinement is uniquely defined
by the following loop, which should always be used as a source of
symmetry information in preference to the above space-group names.
They are only intended as comments.
;
_shelx_estimated_absorpt_t_min   0.962
_shelx_estimated_absorpt_t_max   0.984
_shelx_res_file
;

    mo_sr179_0m.res created by SHELXL-2014/7


TITL mo_sr179_0m_a.res in P-1
CELL 0.71073 7.1832 8.5503 9.3083 104.927 105.219 98.265
ZERR 2.00 0.0018 0.0022 0.0024 0.003 0.003 0.004
LATT 1
SFAC C H O
UNIT 24 32 6
LIST 4 ! automatically inserted. Change 6 to 4 for CHECKCIF!!
TEMP -172.270
SIZE 0.176 0.309 0.411
ACTA
L.S. 10
OMIT  -1  -6   8
FMAP 2
PLAN -10
HTAB
BOND $H
CONF
WGHT    0.060200    0.091300
FVAR       1.08716
O1    3    0.798113    0.867130    0.542725    11.00000    0.01149    0.01890 =
         0.01270    0.00666   -0.00095   -0.00108
C1    1    0.461057    0.735104    0.437285    11.00000    0.01115    0.01348 =
         0.00960    0.00349    0.00244    0.00297
O2    3    0.666094    0.736155    0.685802    11.00000    0.01738    0.02099 =
         0.01044    0.00604    0.00296    0.00326
C2    1    0.299087    0.641915    0.449200    11.00000    0.01359    0.01479 =
         0.01176    0.00456    0.00479    0.00434
C3    1    0.100988    0.588916    0.326994    11.00000    0.01062    0.02172 =
         0.01743    0.00830    0.00355    0.00155
AFIX  23
H3A   2   -0.000635    0.616196    0.377426    11.00000   -1.20000
H3B   2    0.070004    0.466822    0.278802    11.00000   -1.20000
AFIX   0
H3    2    0.425315    0.626366    0.635873    11.00000    0.04777
C10   1    0.453594    0.792556    0.295365    11.00000    0.01045    0.01192 =
         0.00999    0.00319    0.00218    0.00210
AFIX  13
H10   2    0.512772    0.914725    0.333405    11.00000   -1.20000
AFIX   0
C11   1    0.645992    0.776856    0.565575    11.00000    0.01248    0.01238 =
         0.01052    0.00252    0.00287    0.00284
C4    1    0.089668    0.669780    0.201186    11.00000    0.01091    0.01952 =
         0.01368    0.00511    0.00264    0.00442
AFIX  43
H4    2   -0.035915    0.652818    0.126092    11.00000   -1.20000
AFIX   0
C9    1    0.572364    0.706773    0.194169    11.00000    0.01141    0.01613 =
         0.01177    0.00503    0.00351    0.00442
AFIX  23
H9A   2    0.711138    0.724442    0.259963    11.00000   -1.20000
H9B   2    0.514478    0.585672    0.152689    11.00000   -1.20000
AFIX   0
C5    1    0.245194    0.764170    0.188162    11.00000    0.01271    0.01432 =
         0.01043    0.00363    0.00300    0.00579
C8    1    0.568953    0.776335    0.058097    11.00000    0.01312    0.01939 =
         0.01169    0.00528    0.00407    0.00307
AFIX  23
H8A   2    0.637159    0.895387    0.099990    11.00000   -1.20000
H8B   2    0.642096    0.717095   -0.006542    11.00000   -1.20000
AFIX   0
C6    1    0.232150    0.833764    0.053594    11.00000    0.01458    0.01903 =
         0.01274    0.00694    0.00278    0.00637
AFIX  23
H6A   2    0.280498    0.956066    0.094335    11.00000   -1.20000
H6B   2    0.092379    0.808217   -0.012940    11.00000   -1.20000
AFIX   0
C7    1    0.357597    0.757900   -0.044506    11.00000    0.01519    0.01848 =
         0.01021    0.00442    0.00273    0.00386
AFIX  23
H7A   2    0.295775    0.638604   -0.099090    11.00000   -1.20000
H7B   2    0.361011    0.813914   -0.124851    11.00000   -1.20000
AFIX   0
C12   1    0.987870    0.903815    0.662168    11.00000    0.01153    0.02177 =
         0.01482    0.00587   -0.00205   -0.00016
AFIX 137
H12A  2    1.026537    0.799759    0.668178    11.00000   -1.50000
H12B  2    0.977765    0.964762    0.763519    11.00000   -1.50000
H12C  2    1.087809    0.971768    0.635693    11.00000   -1.50000
AFIX   0
O3    3    0.298924    0.585974    0.571756    11.00000    0.01610    0.02420 =
         0.01414    0.00972    0.00583    0.00241
REM #####
HKLF 4 1 1 0 0 0 1 0 0 0 1

REM  mo_sr179_0m_a.res in P-1
REM R1 =  0.0409 for    2691 Fo > 4sig(Fo)  and  0.0480 for all    3185 data
REM    141 parameters refined using      0 restraints

END

WGHT      0.0602      0.0912

REM Instructions for potential hydrogen bonds
HTAB O3 O2
EQIV $1 -x+2, -y+2, -z+1
HTAB C12 O1_$1

REM Highest difference peak  0.466,  deepest hole -0.216,  1-sigma level  0.058
Q1    1   0.5473  0.7523  0.4970  11.00000  0.05    0.47
Q2    1   0.3893  0.6713  0.4446  11.00000  0.05    0.42
Q3    1   0.1971  0.6136  0.3877  11.00000  0.05    0.40
Q4    1   0.5674  0.7366  0.1247  11.00000  0.05    0.39
Q5    1   0.0962  0.6275  0.2612  11.00000  0.05    0.39
Q6    1   0.1893  0.6997  0.2004  11.00000  0.05    0.37
Q7    1   0.2314  0.7959  0.1244  11.00000  0.05    0.36
Q8    1   0.3423  0.7837  0.2511  11.00000  0.05    0.35
Q9    1   0.4674  0.7639  0.0089  11.00000  0.05    0.33
Q10   1   0.4513  0.7534  0.3677  11.00000  0.05    0.33
;
_shelx_res_checksum              5053
_shelx_hkl_file
;
  -1   0   0 1294.97   73.09
   1   0   0 1295.07   73.09
   1   0   0 1413.26   72.89
  -2   0   0   96.59    5.20
  -2   0   0   82.39    5.60
   2   0   0   97.89    5.40
   2   0   0   92.99    5.30
  -3   0   0  403.46   26.50
  -3   0   0  491.05   25.90
   3   0   0  476.05   26.10
   3   0   0  511.85   26.30
  -4   0   0   29.80    2.80
  -4   0   0   36.60    2.20
   4   0   0   36.30    2.60
   4   0   0   36.20    2.40
  -5   0   0   22.50    2.80
  -5   0   0   21.80    1.60
   5   0   0   24.30    2.10
  -6   0   0    4.60    1.40
   6   0   0    5.00    1.10
  -7   0   0    1.50    0.90
   7   0   0    0.90    0.80
  -8   0   0   31.50    4.20
   8   0   0   35.00    3.30
  -9   0   0  240.48   16.40
   9   0   0  259.77   15.60
   9  -1   0    5.80    1.70
  -9   1   0    6.80    2.10
   8  -1   0  117.09    7.30
  -8   1   0   88.69    7.60
   7  -1   0    4.70    1.20
  -7   1   0    4.80    1.60
   6  -1   0  267.97   15.50
   6  -1   0  269.87   15.90
  -6   1   0  280.67   15.30
  -6   1   0  264.77   16.50
   5  -1   0   58.49    3.80
   5  -1   0   56.19    4.00
  -5   1   0   58.59    4.40
  -5   1   0   61.19    3.60
   4  -1   0    1.40    0.50
  -4   1   0    1.80    0.40
  -4   1   0    4.00    1.00
   3  -1   0    2.90    0.60
   3  -1   0    4.10    0.60
  -3   1   0    4.60    0.90
  -3   1   0    3.60    0.50
   2  -1   0  179.48    9.90
   2  -1   0  175.88    9.90
  -2   1   0  176.48   10.10
  -2   1   0  170.88    9.80
   1  -1   0  156.88    8.60
   1  -1   0  157.58    8.60
  -1   1   0  152.48    8.60
  -1   1   0  150.18    8.60
   0  -1   0   35.80    2.40
   0  -1   0   44.30    2.30
   0   1   0   39.80    2.30
   0   1   0   46.30    2.50
   0   1   0   40.70    2.40
   0   1   0   42.70    2.40
  -1  -1   0  487.35   25.30
  -1  -1   0  455.25   25.60
   1   1   0  448.76   25.40
   1   1   0  456.85   25.40
   1   1   0  473.35   25.50
   1   1   0  447.56   25.30
  -2  -1   0  406.16   22.90
  -2  -1   0  412.96   22.30
   2   1   0  403.06   22.40
   2   1   0  400.06   22.50
  -3  -1   0  262.77   13.70
  -3  -1   0  235.98   14.40
   3   1   0  245.38   13.80
   3   1   0  237.18   14.00
  -4  -1   0  321.07   19.20
  -4  -1   0  333.67   18.10
   4   1   0  309.67   18.50
   4   1   0  340.37   18.40
  -5  -1   0  992.70   53.69
  -5  -1   0  915.71   54.99
   5   1   0  968.70   54.09
   5   1   0 1039.90   54.39
  -6  -1   0   52.59    4.60
   6   1   0   50.39    3.90
  -7  -1   0   92.49    7.00
   7   1   0   81.89    6.00
  -8  -1   0    3.40    1.50
   8   1   0    4.60    1.40
  -9  -1   0   42.90    5.40
   9   1   0   47.20    4.20
   9  -2   0  372.36   21.70
  -9   2   0  352.66   22.40
   8  -2   0    6.40    1.60
  -8   2   0   12.20    2.40
   7  -2   0   64.89    4.60
  -7   2   0   59.29    5.00
   6  -2   0    1.80    0.70
   6  -2   0    1.10    0.60
  -6   2   0    2.40    1.00
  -6   2   0    0.00    0.40
   5  -2   0   50.99    3.60
   5  -2   0   54.49    3.80
  -5   2   0   54.49    3.50
  -5   2   0   61.09    4.20
   4  -2   0  351.96   20.70
   4  -2   0  383.76   20.80
  -4   2   0  362.96   21.10
  -4   2   0  378.56   20.60
   3  -2   0   35.00    2.40
   3  -2   0   36.00    2.40
  -3   2   0   34.00    2.20
  -3   2   0   36.00    2.60
   2  -2   0  127.59    7.10
   2  -2   0  123.29    7.30
  -2   2   0  130.29    7.30
  -2   2   0  122.29    7.10
   1  -2   0 6550.54  385.56
   1  -2   0 7085.19  386.06
  -1   2   0 7051.59  386.06
  -1   2   0 7776.22  399.96
  -1   2   0 6990.30  386.06
   0  -2   0 5441.56  310.57
   0  -2   0 5844.52  311.17
   0   2   0 5599.34  310.97
   0   2   0 6133.59  311.17
   0   2   0 5484.65  310.77
   0   2   0 5607.84  310.77
  -1  -2   0  334.27   19.40
   1   2   0  324.87   19.10
   1   2   0  353.06   19.10
   1   2   0  349.96   19.20
   1   2   0  367.26   19.30
  -2  -2   0   42.30    3.10
  -2  -2   0   45.00    2.60
   2   2   0   40.00    2.70
   2   2   0   40.00    2.60
   2   2   0   46.50    3.10
   2   2   0   44.70    2.80
  -3  -2   0    6.10    1.30
  -3  -2   0    9.20    0.80
   3   2   0    8.70    1.00
   3   2   0    8.20    1.10
  -4  -2   0   31.00    2.90
  -4  -2   0   31.70    2.00
   4   2   0   32.60    2.30
   4   2   0   29.40    2.40
  -5  -2   0    1.30    0.90
   5   2   0    0.60    0.50
   5   2   0    1.80    0.60
  -6  -2   0   36.90    3.60
   6   2   0   29.40    2.70
  -7  -2   0    0.40    0.90
   7   2   0    2.60    1.00
  -8  -2   0   15.30    3.10
   8   2   0    9.10    1.90
   9  -3   0   69.69    5.30
  -9   3   0   59.29    5.60
   8  -3   0   67.09    4.90
  -8   3   0   55.99    5.10
   7  -3   0   48.90    3.90
  -7   3   0   53.59    4.40
   6  -3   0   75.19    5.00
   6  -3   0   77.39    5.10
  -6   3   0   74.19    4.80
  -6   3   0   76.59    5.50
   5  -3   0   18.10    1.70
   5  -3   0   20.50    1.80
  -5   3   0   18.90    1.60
  -5   3   0   18.00    2.20
   4  -3   0  897.81   49.20
   4  -3   0  872.01   49.10
  -4   3   0  859.41   49.40
  -4   3   0  926.81   49.00
   3  -3   0   58.69    3.60
   3  -3   0   53.99    3.80
  -3   3   0   61.09    3.80
  -3   3   0   58.49    3.60
   2  -3   0  863.01   48.20
   2  -3   0  906.01   47.90
  -2   3   0  865.01   48.00
  -2   3   0  850.31   48.20
  -2   3   0  880.11   48.00
   1  -3   0  222.38   12.60
   1  -3   0  249.08   13.00
   1  -3   0  231.28   12.60
  -1   3   0  215.78   12.70
  -1   3   0  227.88   12.80
  -1   3   0  219.18   13.00
   0  -3   0   28.90    2.00
   0  -3   0   31.00    1.90
   0   3   0   30.80    2.00
   0   3   0   31.40    2.10
   0   3   0   35.60    2.10
   0   3   0   28.90    2.20
  -1  -3   0  281.27   16.40
   1   3   0  284.27   16.40
   1   3   0  287.27   16.20
   1   3   0  292.37   16.10
   1   3   0  304.17   16.40
  -2  -3   0   69.59    4.40
  -2  -3   0   61.39    3.70
   2   3   0   49.90    4.00
   2   3   0   63.79    4.00
   2   3   0   65.09    3.70
   2   3   0   59.79    3.80
  -3  -3   0  187.68   10.60
  -3  -3   0  183.78   11.50
   3   3   0  172.88   10.80
   3   3   0  199.98   10.80
  -4  -3   0   77.89    4.90
  -4  -3   0   89.29    6.20
   4   3   0   81.59    5.40
   4   3   0   87.59    5.30
  -5  -3   0  401.26   26.50
   5   3   0  495.65   25.90
   5   3   0  458.75   25.60
  -6  -3   0   89.29    7.30
   6   3   0  104.19    6.60
  -7  -3   0    9.30    2.40
   7   3   0    8.40    1.70
  -8  -3   0   -0.40    0.90
   8   3   0    0.00    0.50
   9  -4   0   44.00    4.00
  -9   4   0   43.60    4.40
   8  -4   0    4.10    1.30
  -8   4   0    3.30    1.40
   7  -4   0    5.30    1.20
  -7   4   0    4.40    0.90
  -7   4   0    3.70    1.40
   6  -4   0    7.50    1.30
   6  -4   0    4.70    1.10
  -6   4   0    4.50    1.20
  -6   4   0    5.60    1.00
   5  -4   0   64.09    4.30
   5  -4   0   64.79    4.50
  -5   4   0   66.59    4.20
  -5   4   0   64.09    4.60
   4  -4   0   95.79    6.10
   4  -4   0  100.29    5.90
  -4   4   0   97.09    6.10
  -4   4   0   94.99    5.90
   3  -4   0    8.60    1.20
   3  -4   0    9.30    1.00
  -3   4   0    9.90    1.20
  -3   4   0    6.90    1.00
   2  -4   0    9.60    1.40
   2  -4   0   15.30    1.10
  -2   4   0   13.60    1.20
  -2   4   0   11.90    1.50
  -2   4   0   13.80    1.20
   1  -4   0  410.26   22.20
   1  -4   0  397.06   22.20
  -1   4   0  402.36   22.40
  -1   4   0  406.96   22.80
  -1   4   0  396.96   22.40
   0  -4   0   57.59    3.40
   0  -4   0   58.19    3.50
   0   4   0   54.89    3.40
   0   4   0   51.99    3.50
   0   4   0   57.39    3.80
   0   4   0   57.39    3.60
  -1  -4   0 1805.82  106.09
  -1  -4   0 1923.91  106.39
   1   4   0 1962.60  106.19
   1   4   0 1926.31  106.19
   1   4   0 1864.21  106.39
   1   4   0 2160.68  106.59
  -2  -4   0  216.88   13.20
  -2  -4   0  214.98   13.50
   2   4   0  242.18   12.90
   2   4   0  222.08   12.80
   2   4   0  230.58   13.30
   2   4   0  227.38   13.10
  -3  -4   0   48.50    3.10
  -3  -4   0   47.00    3.90
   3   4   0   48.80    3.70
   3   4   0   42.90    3.00
   3   4   0   51.79    3.40
   3   4   0   44.10    3.20
  -4  -4   0   73.79    5.40
  -4  -4   0   67.09    4.20
   4   4   0   70.89    4.60
   4   4   0   58.99    4.50
  -5  -4   0   16.10    2.80
   5   4   0   18.10    2.20
  -6  -4   0    6.60    1.80
   6   4   0    8.90    1.60
  -7  -4   0    3.90    1.50
  -7  -4   0    3.80    1.80
   7   4   0    5.60    1.40
  -8  -4   0   -1.20    1.10
  -8  -4   0    0.90    1.20
   8   4   0    0.60    1.00
   9  -5   0   24.40    3.20
  -9   5   0   28.10    3.80
   8  -5   0    7.10    1.60
  -8   5   0    6.50    1.70
   7  -5   0    1.10    0.70
   7  -5   0    0.80    0.70
  -7   5   0   -0.40    0.60
  -7   5   0    0.30    0.60
   6  -5   0   29.30    2.70
   6  -5   0   28.70    2.50
  -6   5   0   31.40    2.90
  -6   5   0   30.00    2.40
   5  -5   0  174.98   10.90
   5  -5   0  181.58   10.60
  -5   5   0  181.68   10.90
  -5   5   0  176.28   10.60
   4  -5   0  116.79    6.90
   4  -5   0  110.49    7.30
  -4   5   0  113.29    7.00
  -4   5   0  118.89    7.20
   3  -5   0   74.39    4.90
   3  -5   0   72.59    4.40
  -3   5   0   66.39    4.50
  -3   5   0   71.79    4.60
   2  -5   0  280.27   15.00
   2  -5   0  263.57   15.50
  -2   5   0  269.27   15.60
  -2   5   0  258.57   15.20
  -2   5   0  262.07   15.20
   1  -5   0   22.20    1.60
   1  -5   0   22.90    1.60
   1  -5   0   23.00    2.10
  -1   5   0   22.30    1.80
  -1   5   0   22.00    1.80
  -1   5   0   21.10    2.00
   0  -5   0  117.39    6.80
   0  -5   0  119.39    6.70
   0   5   0  110.39    7.20
   0   5   0  108.79    6.80
   0   5   0  114.29    6.90
  -1  -5   0   81.69    5.40
  -1  -5   0   85.09    5.10
   1   5   0   87.79    5.30
   1   5   0   88.69    5.70
   1   5   0   84.99    5.20
   1   5   0   86.69    5.60
  -2  -5   0    1.70    0.80
  -2  -5   0    1.10    0.60
   2   5   0    3.50    0.90
   2   5   0    1.60    0.50
   2   5   0    1.10    0.70
   2   5   0    0.90    0.40
  -3  -5   0    2.80    1.20
  -3  -5   0    4.20    1.10
  -3  -5   0    4.40    0.80
   3   5   0    4.20    0.90
   3   5   0    3.80    1.00
   3   5   0    5.30    1.30
   3   5   0    5.30    0.80
  -4  -5   0   88.19    6.80
  -4  -5   0  117.39    7.70
   4   5   0  104.49    6.70
   4   5   0  101.29    6.50
  -5  -5   0   14.90    2.50
  -5  -5   0   23.50    3.40
   5   5   0   22.40    2.50
  -6  -5   0    2.80    1.70
  -6  -5   0    3.80    1.40
   6   5   0    3.20    1.00
  -7  -5   0   -0.30    0.90
  -7  -5   0   -1.00    1.20
   7   5   0    0.30    0.80
   9  -6   0    0.10    0.80
  -9   6   0    0.70    1.20
   8  -6   0    5.30    1.40
  -8   6   0    8.40    2.00
   7  -6   0   24.20    2.90
   7  -6   0   26.90    2.60
  -7   6   0   27.00    2.50
  -7   6   0   26.90    3.20
   6  -6   0   39.10    3.00
   6  -6   0   35.40    3.20
  -6   6   0   35.10    2.90
  -6   6   0   33.40    3.10
   5  -6   0    4.30    1.10
   5  -6   0    1.50    0.60
  -5   6   0    3.00    0.80
  -5   6   0    1.20    0.90
   4  -6   0   11.40    1.80
   4  -6   0    9.70    1.30
  -4   6   0   10.60    1.50
  -4   6   0   10.30    1.50
   3  -6   0   63.09    4.60
   3  -6   0   64.99    4.00
  -3   6   0   63.89    4.20
  -3   6   0   61.99    4.20
   2  -6   0    1.00    0.70
   2  -6   0    1.00    0.40
  -2   6   0    0.40    0.60
  -2   6   0    0.60    0.50
  -2   6   0    0.70    0.50
   1  -6   0   13.50    1.10
   1  -6   0   11.70    1.80
   1  -6   0   13.20    1.10
  -1   6   0   12.10    1.50
  -1   6   0   12.00    1.50
  -1   6   0   12.30    1.80
   0  -6   0  418.66   22.50
   0  -6   0  366.06   22.30
   0  -6   0  405.16   23.10
   0   6   0  414.36   23.10
   0   6   0  396.96   22.60
   0   6   0  409.26   22.80
  -1  -6   0  618.34   33.00
   1   6   0  560.34   33.50
   1   6   0  614.14   33.10
   1   6   0  625.64   33.80
   1   6   0  560.24   33.10
  -2  -6   0   12.70    1.40
  -2  -6   0    7.90    1.50
  -2  -6   0    8.60    1.80
   2   6   0   14.30    1.90
   2   6   0   11.00    1.40
   2   6   0   11.80    1.80
   2   6   0    9.80    1.30
  -3  -6   0  159.08   10.80
  -3  -6   0  152.78   10.30
   3   6   0  171.28   10.30
   3   6   0  167.88    9.90
   3   6   0  169.58   10.50
  -4  -6   0   -0.10    0.80
  -4  -6   0   -0.30    0.60
   4   6   0   -0.40    0.70
   4   6   0   -0.70    0.50
  -5  -6   0   28.80    3.30
  -5  -6   0   32.90    4.30
   5   6   0   32.80    2.90
  -6  -6   0   45.30    4.40
  -6  -6   0   41.70    5.30
   6   6   0   39.10    3.60
  -7  -6   0    1.10    1.50
   7   6   0    1.20    1.10
   9  -7   0    9.90    2.00
   8  -7   0    0.10    0.70
  -8   7   0    0.50    0.70
   7  -7   0   13.30    2.20
   7  -7   0   11.60    1.90
  -7   7   0   11.40    1.80
   6  -7   0   28.20    3.30
   6  -7   0   29.20    2.60
  -6   7   0   33.10    2.80
  -6   7   0   30.70    2.90
   5  -7   0    1.60    1.10
   5  -7   0    3.80    0.90
  -5   7   0    3.10    0.90
  -5   7   0    3.70    1.00
   4  -7   0    0.10    0.40
   4  -7   0    0.20    0.70
  -4   7   0    0.90    0.50
  -4   7   0    0.40    0.60
   3  -7   0   45.90    3.80
   3  -7   0   46.50    3.10
  -3   7   0   44.50    3.40
  -3   7   0   44.60    3.80
  -3   7   0   46.90    3.40
   2  -7   0   64.39    4.00
   2  -7   0   63.69    4.80
  -2   7   0   60.79    4.80
  -2   7   0   63.69    4.40
  -2   7   0   63.29    4.30
   1  -7   0    0.10    0.30
   1  -7   0    1.40    0.80
   1  -7   0    0.40    0.30
  -1   7   0    0.70    0.70
  -1   7   0    0.00    0.40
  -1   7   0   -0.40    0.30
   0  -7   0    1.30    0.80
   0  -7   0    0.20    0.40
   0  -7   0    0.00    0.30
   0   7   0    0.50    0.50
   0   7   0    0.40    0.70
   0   7   0    0.30    0.50
  -1  -7   0   19.10    1.90
  -1  -7   0   17.70    1.60
  -1  -7   0   21.40    2.70
   1   7   0   14.30    2.20
   1   7   0   20.40    2.40
   1   7   0   20.10    1.80
   1   7   0   19.80    1.80
  -2  -7   0    3.80    0.90
  -2  -7   0    5.10    1.20
  -2  -7   0    5.60    1.50
   2   7   0    5.70    1.10
   2   7   0    5.40    1.30
   2   7   0    3.30    1.20
   2   7   0    5.80    1.10
  -3  -7   0   24.80    2.60
  -3  -7   0   22.20    2.10
  -3  -7   0   36.90    3.40
   3   7   0   26.30    2.30
   3   7   0   24.40    3.00
  -4  -7   0    0.60    1.20
  -4  -7   0    0.30    0.60
  -4  -7   0    0.00    0.80
   4   7   0   -0.10    0.80
   4   7   0    0.10    0.60
  -5  -7   0   -0.30    1.10
  -5  -7   0    0.50    0.90
   5   7   0    0.20    0.80
  -6  -7   0   17.10    3.10
   6   7   0   18.20    2.60
   8  -8   0    1.40    1.00
  -8   8   0    0.50    0.80
   7  -8   0    7.60    1.60
   7  -8   0    6.00    1.80
  -7   8   0   10.30    1.80
   6  -8   0   26.20    3.30
   6  -8   0   31.10    2.60
  -6   8   0   23.40    2.80
   5  -8   0    6.30    1.70
   5  -8   0    5.20    1.10
  -5   8   0    7.10    1.40
   4  -8   0   -0.40    0.40
   4  -8   0   -0.30    0.60
  -4   8   0   -0.30    0.50
   3  -8   0    6.60    1.60
   3  -8   0    8.70    1.20
  -3   8   0    7.20    1.70
  -3   8   0    5.40    1.20
   2  -8   0   57.39    4.60
   2  -8   0   54.89    3.70
  -2   8   0   55.39    4.10
  -2   8   0   58.29    4.70
   1  -8   0   15.60    1.40
   1  -8   0   19.90    2.60
  -1   8   0   12.40    2.20
  -1   8   0   10.20    1.60
   0  -8   0   75.49    5.60
   0  -8   0   74.09    4.60
   0   8   0   70.29    5.60
   0   8   0   71.29    5.00
  -1  -8   0   14.10    2.00
  -1  -8   0   25.70    3.00
  -1  -8   0   19.30    1.70
   1   8   0   17.00    2.00
   1   8   0   17.00    2.60
  -2  -8   0   25.60    2.50
  -2  -8   0   24.10    2.10
  -2  -8   0   23.10    3.00
   2   8   0   24.10    2.20
   2   8   0   24.50    3.00
   2   8   0   21.10    2.10
  -3  -8   0    9.90    1.60
  -3  -8   0   20.60    2.70
   3   8   0   16.60    2.10
   3   8   0   19.50    2.70
  -4  -8   0    3.70    1.40
  -4  -8   0    4.80    1.20
   4   8   0    5.90    1.40
  -5  -8   0    0.80    1.10
  -5  -8   0    0.80    0.80
   5   8   0    1.30    1.00
  -8   9   0    5.80    1.60
   7  -9   0   -0.90    1.00
   7  -9   0   -0.40    0.80
  -7   9   0    0.00    0.80
   6  -9   0    1.40    0.80
   6  -9   0    2.30    1.20
  -6   9   0    0.60    0.90
   5  -9   0    1.70    0.80
   5  -9   0    0.40    1.00
  -5   9   0    1.30    0.90
   4  -9   0    0.70    0.60
   4  -9   0    0.40    0.90
  -4   9   0    1.20    0.80
   3  -9   0    5.40    1.60
   3  -9   0    5.70    1.10
  -3   9   0    7.60    1.40
   2  -9   0   45.00    3.20
   2  -9   0   46.40    4.20
  -2   9   0   51.09    3.80
  -2   9   0   42.40    4.20
   1  -9   0    8.30    1.20
   1  -9   0    8.00    1.90
  -1   9   0    8.90    2.00
  -1   9   0    9.90    1.60
   0  -9   0   28.90    2.30
   0  -9   0   28.40    3.50
   0   9   0   24.90    2.80
   0   9   0   33.10    3.80
  -1  -9   0    1.40    0.90
  -1  -9   0    0.50    0.50
   1   9   0   -0.60    0.50
   1   9   0    1.10    1.00
  -2  -9   0    4.60    1.60
  -2  -9   0    5.80    1.10
   2   9   0    4.50    1.60
  -3  -9   0    4.30    1.70
  -3  -9   0    3.20    1.40
  -3  -9   0    3.70    1.00
   3   9   0    4.10    1.60
   3   9   0    4.10    1.20
  -4  -9   0    2.90    1.00
  -4  -9   0    2.70    1.40
   4   9   0    2.10    1.00
   7 -10   0   87.59    7.10
   6 -10   0    3.10    1.60
  -6  10   0    2.10    1.20
   5 -10   0    1.50    1.30
  -5  10   0    4.20    1.30
   4 -10   0   59.49    5.30
  -4  10   0   60.59    4.70
   3 -10   0   13.70    2.60
   3 -10   0   11.40    1.60
  -3  10   0   13.60    2.10
   2 -10   0   50.39    4.50
   2 -10   0   47.10    3.30
  -2  10   0   39.10    4.80
  -2  10   0   43.10    3.70
   1 -10   0    0.40    0.50
   1 -10   0    0.00    1.00
  -1  10   0    0.00    1.00
  -1  10   0    0.20    0.60
   0 -10   0    2.70    1.40
   0 -10   0    1.90    0.70
   0  10   0    1.60    1.10
   0  10   0    2.00    1.00
  -1 -10   0    1.30    0.60
  -1 -10   0    2.20    1.30
   1  10   0    0.30    1.10
   1  10   0    1.90    1.00
  -2 -10   0   79.39    5.20
  -2 -10   0   67.69    6.10
   2  10   0   73.89    6.30
  -3 -10   0    1.70    0.90
  -3 -10   0    1.20    1.50
   5 -11   0    5.10    2.00
   4 -11   0   18.90    3.10
  -4  11   0   16.60    2.60
   3 -11   0    3.20    1.50
  -3  11   0    0.90    0.90
   2 -11   0    4.50    1.70
  -2  11   0    7.20    1.60
  -2  11   0    5.90    2.10
   1 -11   0   29.90    4.10
  -1  11   0   29.30    3.40
  -1  11   0   36.00    4.50
   0 -11   0   20.80    3.40
   0  11   0   24.30    3.70
   0  11   0   20.10    2.70
  -1 -11   0   37.60    4.70
   1  11   0   31.10    4.40
   2  11  -1   81.79    6.70
  -2 -11   1   77.69    6.60
   1  11  -1   36.80    4.60
   1  11  -1   33.20    3.20
  -1 -11   1   33.70    4.30
   0  11  -1    7.20    1.60
   0  11  -1    3.90    1.70
   0 -11   1    3.30    1.60
  -1  11  -1  100.49    7.40
   1 -11   1  121.39    8.40
  -2  11  -1   15.60    2.40
   2 -11   1   13.60    2.80
  -3  11  -1    1.60    1.10
   3 -11   1    1.10    1.10
  -4  11  -1    5.30    1.40
   4 -11   1    5.70    1.90
  -5  11  -1    5.20    1.50
   5 -11   1    8.70    2.30
   2  10  -1    0.40    1.10
  -2 -10   1   -0.10    0.90
  -2 -10   1    0.30    1.10
   1  10  -1   28.50    3.90
   1  10  -1   34.20    3.00
  -1 -10   1   30.60    3.80
   0  10  -1   19.80    2.50
   0  10  -1   17.30    3.00
   0 -10   1   25.50    3.40
  -1  10  -1    6.90    1.90
  -1  10  -1    7.70    1.60
   1 -10   1    8.30    2.00
  -2  10  -1    8.10    1.60
   2 -10   1    6.10    1.80
  -3  10  -1   33.70    3.20
   3 -10   1   36.80    4.30
  -4  10  -1    2.00    1.00
   4 -10   1    6.50    1.90
  -5  10  -1   32.50    3.10
   5 -10   1   30.10    4.00
  -6  10  -1    2.20    1.10
   6 -10   1    0.70    1.00
  -7  10  -1    0.10    0.90
   7 -10   1    0.10    1.10
   5   9  -1    7.10    1.80
  -5  -9   1    4.80    1.30
  -5  -9   1    3.60    1.60
  -4  -9   1   30.10    2.70
   3   9  -1    6.80    1.40
   3   9  -1    4.70    1.70
  -3  -9   1    8.50    2.00
  -3  -9   1    7.90    1.30
   2   9  -1   42.00    3.40
   2   9  -1   43.00    4.00
  -2  -9   1   43.20    3.20
  -2  -9   1   40.50    4.00
   1   9  -1    5.40    1.30
   1   9  -1    5.70    1.60
  -1  -9   1    7.20    1.70
  -1  -9   1    6.60    1.10
   0   9  -1   13.10    1.90
   0   9  -1   13.10    2.40
   0  -9   1   10.20    1.30
   0  -9   1   12.30    2.20
  -1   9  -1  193.38   11.50
  -1   9  -1  194.58   12.20
   1  -9   1  180.58   12.00
   1  -9   1  183.68   10.90
  -2   9  -1   43.40    3.60
   2  -9   1   48.70    3.20
   2  -9   1   47.30    4.20
  -3   9  -1   24.70    2.80
   3  -9   1   24.60    2.10
   3  -9   1   26.00    3.30
  -4   9  -1   44.20    3.50
   4  -9   1   43.60    4.00
   4  -9   1   39.20    3.10
  -5   9  -1   25.90    3.00
   5  -9   1   34.80    4.00
  -6   9  -1   31.10    3.10
   6  -9   1   40.60    3.90
  -7   9  -1   16.00    2.40
   7  -9   1   11.80    2.40
  -8   9  -1    5.90    1.70
   6   8  -1   -0.80    0.90
  -6  -8   1    0.40    0.90
  -6  -8   1    0.00    1.20
   5   8  -1    3.40    1.20
  -5  -8   1    3.10    1.50
  -5  -8   1    6.90    1.40
   4   8  -1   37.90    3.30
  -4  -8   1   42.80    3.90
  -4  -8   1   40.20    3.20
  -4  -8   1   35.20    5.70
   3   8  -1   19.60    2.70
   3   8  -1   20.90    3.30
   3   8  -1   21.80    2.00
  -3  -8   1   18.70    1.80
  -3  -8   1   17.60    2.50
  -3  -8   1   13.60    2.30
  -3  -8   1   23.80    3.50
  -3  -8   1   22.60    2.50
   2   8  -1   16.10    2.50
   2   8  -1   14.70    1.90
   2   8  -1   18.20    2.00
   2   8  -1   18.00    2.60
  -2  -8   1   20.50    3.10
  -2  -8   1   16.90    2.40
  -2  -8   1   14.90    1.70
  -2  -8   1   17.70    2.00
   1   8  -1    0.20    0.50
   1   8  -1    1.00    0.80
   1   8  -1    0.40    0.80
  -1  -8   1    0.40    0.40
  -1  -8   1   -0.60    0.60
  -1  -8   1    0.20    0.50
   0   8  -1   17.70    2.30
   0   8  -1   20.20    2.70
   0   8  -1   10.40    1.70
   0  -8   1   15.70    2.30
   0  -8   1   15.30    1.30
  -1   8  -1   54.49    4.00
  -1   8  -1   58.09    4.60
  -1   8  -1   54.09    4.40
   1  -8   1   58.89    3.60
   1  -8   1   51.99    4.40
  -2   8  -1    0.00    0.40
  -2   8  -1    0.60    0.80
   2  -8   1    0.70    0.60
   2  -8   1    0.00    0.30
  -3   8  -1  155.88    9.30
  -3   8  -1  133.09    9.00
   3  -8   1  154.08    8.70
   3  -8   1  141.59    9.60
  -4   8  -1    8.50    1.80
  -4   8  -1   11.00    1.70
   4  -8   1   10.60    1.40
   4  -8   1   12.00    2.10
  -5   8  -1   79.69    5.50
   5  -8   1   81.79    5.30
   5  -8   1   76.29    5.90
  -6   8  -1    7.00    1.40
   6  -8   1    6.00    1.30
   6  -8   1    7.70    1.80
  -7   8  -1    1.50    0.80
   7  -8   1    3.00    1.10
   7  -8   1    1.10    1.10
  -7  -7   1    0.60    1.60
   6   7  -1   28.20    3.20
  -6  -7   1   27.70    3.80
  -6  -7   1   25.20    4.10
   5   7  -1    0.30    0.70
  -5  -7   1    0.20    1.20
  -5  -7   1   -0.10    0.80
   4   7  -1    1.90    0.80
   4   7  -1    1.10    1.10
  -4  -7   1    1.20    0.90
  -4  -7   1    1.80    1.30
   3   7  -1    3.60    0.90
   3   7  -1    2.40    1.10
   3   7  -1    2.40    1.20
   3   7  -1    3.00    0.80
  -3  -7   1    1.50    0.80
  -3  -7   1    1.90    1.30
  -3  -7   1    2.80    1.00
  -3  -7   1    2.40    0.70
  -3  -7   1    3.10    0.90
   2   7  -1   44.30    3.40
   2   7  -1   44.20    3.30
   2   7  -1   50.59    4.00
   2   7  -1   45.60    3.90
  -2  -7   1   45.90    3.20
  -2  -7   1   65.09    4.20
  -2  -7   1   53.39    4.50
  -2  -7   1   43.90    3.60
   1   7  -1    5.30    1.30
   1   7  -1    6.30    1.00
   1   7  -1    6.10    1.30
   1   7  -1    7.00    1.20
  -1  -7   1    3.50    0.90
  -1  -7   1    6.00    0.90
  -1  -7   1    6.20    1.40
   0   7  -1  157.08    9.60
   0   7  -1  149.09    9.30
   0   7  -1  156.78    9.80
   0  -7   1  156.98    9.80
   0  -7   1  139.29    9.00
   0  -7   1  168.68    8.90
  -1   7  -1    7.80    1.60
  -1   7  -1    6.70    1.30
  -1   7  -1    7.20    1.20
   1  -7   1    8.20    0.90
   1  -7   1    9.80    1.70
  -2   7  -1   41.40    3.10
  -2   7  -1   38.60    3.10
   2  -7   1   38.60    3.40
   2  -7   1   41.70    2.70
  -3   7  -1   -0.10    0.40
  -3   7  -1   -0.10    0.40
   3  -7   1    0.30    0.30
   3  -7   1   -0.20    0.50
  -4   7  -1    4.40    1.00
  -4   7  -1    4.90    1.10
   4  -7   1    4.70    0.90
   4  -7   1    3.70    1.10
  -5   7  -1    3.60    1.00
  -5   7  -1    2.10    0.90
   5  -7   1    3.90    0.90
   5  -7   1    4.90    1.40
  -6   7  -1    2.10    1.10
  -6   7  -1    1.10    0.70
   6  -7   1    1.40    1.00
   6  -7   1    1.40    0.80
  -7   7  -1    9.30    1.60
  -7   7  -1   10.60    2.00
   7  -7   1    9.00    1.60
   7  -7   1   10.40    2.00
  -8   7  -1   61.29    5.20
   8  -7   1   59.19    4.70
  -9   7  -1   -0.50    1.10
   9  -7   1    2.00    1.10
   7   6  -1   13.90    2.30
  -7  -6   1    7.40    2.70
  -7  -6   1   11.00    2.40
   6   6  -1   -1.00    0.60
  -6  -6   1    0.00    1.20
  -6  -6   1    1.30    1.10
   5   6  -1   31.10    2.70
  -5  -6   1   29.80    4.10
  -5  -6   1   22.80    3.20
   4   6  -1    0.50    0.50
   4   6  -1    0.00    0.60
   4   6  -1    0.60    0.80
  -4  -6   1    0.70    0.90
  -4  -6   1   -0.40    0.50
   3   6  -1   23.30    2.00
   3   6  -1   24.80    3.00
   3   6  -1   26.10    2.10
   3   6  -1   28.10    2.50
  -3  -6   1   21.40    3.10
  -3  -6   1   23.50    2.10
  -3  -6   1   20.80    2.30
   2   6  -1    0.30    0.60
   2   6  -1   -0.10    0.50
   2   6  -1   -0.20    0.30
   2   6  -1    0.50    0.40
  -2  -6   1    0.20    0.60
  -2  -6   1    0.20    0.30
  -2  -6   1    0.10    0.40
   1   6  -1   46.50    3.40
   1   6  -1   50.99    3.30
   1   6  -1   48.70    3.70
   1   6  -1   50.89    3.80
  -1  -6   1   51.79    3.50
  -1  -6   1   42.40    3.60
  -1  -6   1   51.59    3.20
   0   6  -1   12.50    1.70
   0   6  -1   12.60    1.80
   0   6  -1   12.10    1.50
   0  -6   1   12.40    1.20
   0  -6   1   14.20    1.90
   0  -6   1   13.00    1.10
  -1   6  -1   78.29    5.10
  -1   6  -1   81.59    5.30
  -1   6  -1   83.29    5.60
   1  -6   1   80.89    4.70
   1  -6   1   81.49    4.70
   1  -6   1   72.69    5.30
  -2   6  -1   30.40    2.40
  -2   6  -1   29.00    2.40
   2  -6   1   33.80    2.10
   2  -6   1   30.30    2.70
  -3   6  -1    0.20    0.40
  -3   6  -1    0.50    0.50
   3  -6   1    0.50    0.40
   3  -6   1    0.60    0.60
  -4   6  -1    8.80    1.30
  -4   6  -1    9.30    1.50
   4  -6   1    8.30    1.20
   4  -6   1    8.40    1.50
  -5   6  -1    2.60    0.90
  -5   6  -1    1.80    0.70
   5  -6   1    1.70    0.90
   5  -6   1    1.00    0.60
  -6   6  -1    3.40    1.20
  -6   6  -1    4.80    1.00
   6  -6   1    4.40    1.10
   6  -6   1    3.50    1.20
  -7   6  -1   11.90    1.70
  -7   6  -1   11.30    2.10
   7  -6   1   13.30    1.90
   7  -6   1   12.30    2.00
  -8   6  -1    1.60    1.20
   8  -6   1    0.40    0.80
  -9   6  -1    0.20    1.10
   9  -6   1   -0.50    0.90
  -8  -5   1    0.20    1.50
   7   5  -1   56.29    4.60
  -7  -5   1   59.99    5.90
   6   5  -1    8.50    1.60
  -6  -5   1    8.10    2.30
   5   5  -1    4.40    1.10
  -5  -5   1    2.60    1.40
   4   5  -1   23.70    2.10
   4   5  -1   21.40    2.40
   4   5  -1   26.90    3.20
  -4  -5   1   23.90    2.00
  -4  -5   1   25.20    3.40
   3   5  -1   70.29    5.10
   3   5  -1   64.59    4.30
   3   5  -1   66.79    4.60
   3   5  -1   70.69    4.50
  -3  -5   1   75.09    5.50
  -3  -5   1   65.49    4.40
   2   5  -1  105.29    7.40
   2   5  -1  128.69    7.20
   2   5  -1  125.89    7.30
   2   5  -1  129.39    7.80
  -2  -5   1  116.89    8.00
   1   5  -1   19.20    1.80
   1   5  -1   16.70    2.00
   1   5  -1   19.30    1.50
   1   5  -1   19.00    1.60
  -1  -5   1   22.10    1.50
  -1  -5   1   16.90    1.60
  -1  -5   1   20.00    1.80
   0   5  -1   29.80    2.40
   0   5  -1   27.60    2.30
   0   5  -1   29.80    2.20
   0  -5   1   24.10    1.90
   0  -5   1   30.60    2.40
   0  -5   1   31.80    1.90
  -1   5  -1   52.29    3.70
  -1   5  -1   52.49    3.30
  -1   5  -1   49.99    3.40
   1  -5   1   48.70    2.90
   1  -5   1   50.49    3.00
   1  -5   1   44.20    3.50
  -2   5  -1  192.88   11.50
  -2   5  -1  190.88   11.40
   2  -5   1  207.08   11.70
   2  -5   1  197.48   11.10
  -3   5  -1    1.60    0.50
  -3   5  -1    1.80    0.60
   3  -5   1    3.00    0.80
   3  -5   1    1.50    0.40
  -4   5  -1   59.69    4.20
  -4   5  -1   58.99    4.00
   4  -5   1   60.19    3.90
   4  -5   1   58.89    4.30
  -5   5  -1  140.69    8.70
  -5   5  -1  132.29    8.20
   5  -5   1  134.99    8.20
   5  -5   1  136.09    8.60
  -6   5  -1   52.59    4.30
  -6   5  -1   56.39    3.80
   6  -5   1   49.30    4.00
   6  -5   1   54.09    3.90
  -7   5  -1    3.30    0.90
  -7   5  -1    4.30    1.40
   7  -5   1    1.50    0.90
   7  -5   1    4.00    1.10
  -8   5  -1    0.00    0.90
   8  -5   1    0.70    0.70
  -9   5  -1    4.20    1.70
   9  -5   1    4.50    1.40
   8   4  -1    0.60    0.90
  -8  -4   1    1.30    1.50
   7   4  -1   57.19    4.30
  -7  -4   1   42.20    5.60
   6   4  -1   38.60    3.40
  -6  -4   1   46.60    4.40
   5   4  -1   26.20    2.40
  -5  -4   1   27.70    3.70
   4   4  -1  176.58   10.60
   4   4  -1  175.18   11.30
   4   4  -1  185.28   10.70
  -4  -4   1  173.98   11.60
  -4  -4   1  187.48   10.50
   3   4  -1    3.90    1.10
   3   4  -1    5.90    0.90
   3   4  -1    4.60    0.70
   3   4  -1    7.00    1.10
  -3  -4   1    6.00    0.90
  -3  -4   1    4.80    1.40
   2   4  -1  382.16   21.90
   2   4  -1  375.76   22.40
   2   4  -1  417.06   22.20
   2   4  -1  391.66   21.90
  -2  -4   1  398.76   22.00
   1   4  -1   85.39    5.50
   1   4  -1   94.69    5.50
   1   4  -1   82.79    5.20
   1   4  -1   86.29    5.10
  -1  -4   1   88.19    5.10
   0   4  -1  403.36   21.10
   0   4  -1  341.67   21.30
   0   4  -1  407.16   21.30
   0  -4   1  320.87   20.90
   0  -4   1  377.66   20.90
   0  -4   1  428.86   21.40
  -1   4  -1   15.70    1.40
  -1   4  -1   16.20    1.30
  -1   4  -1   18.70    1.60
   1  -4   1   16.40    1.00
   1  -4   1   14.80    1.40
   1  -4   1   13.60    1.00
  -2   4  -1   13.20    1.30
  -2   4  -1   13.10    1.20
   2  -4   1   15.10    1.10
   2  -4   1   18.20    1.50
  -3   4  -1   14.80    1.40
  -3   4  -1   13.30    1.30
   3  -4   1   14.80    1.20
   3  -4   1   13.50    1.60
  -4   4  -1   -0.10    0.30
  -4   4  -1    0.20    0.40
   4  -4   1   -0.20    0.40
   4  -4   1    0.30    0.30
  -5   4  -1   55.79    4.20
  -5   4  -1   56.29    3.70
   5  -4   1   50.39    3.90
   5  -4   1   57.39    3.80
  -6   4  -1   95.79    6.00
  -6   4  -1   98.19    6.80
   6  -4   1   91.39    6.20
   6  -4   1  102.59    6.40
  -7   4  -1    0.10    0.80
   7  -4   1    1.10    0.70
   7  -4   1    0.30    0.60
  -8   4  -1    0.00    0.80
   8  -4   1   -0.20    0.70
  -9   4  -1    1.20    1.30
   9  -4   1    3.10    1.20
   8   3  -1    2.20    1.30
  -8  -3   1    1.00    1.40
   7   3  -1   42.70    3.60
  -7  -3   1   40.20    5.10
   6   3  -1   15.70    2.00
  -6  -3   1   16.30    2.90
   5   3  -1  419.06   25.40
  -5  -3   1  526.75   26.90
  -5  -3   1  422.56   25.00
   4   3  -1   -0.20    0.30
   4   3  -1   -0.50    0.30
   4   3  -1    0.60    0.60
  -4  -3   1    0.10    0.30
  -4  -3   1    0.10    0.60
   3   3  -1   12.40    1.70
   3   3  -1   10.50    1.30
   3   3  -1   12.30    1.20
  -3  -3   1   14.60    1.20
  -3  -3   1   11.70    1.90
   2   3  -1  755.92   42.40
   2   3  -1  763.12   42.50
   2   3  -1  781.92   43.00
  -2  -3   1  748.23   42.50
  -2  -3   1  814.42   43.30
   1   3  -1  301.27   17.70
   1   3  -1  310.77   18.00
   1   3  -1  316.87   17.90
   1   3  -1  349.07   17.80
   0   3  -1   61.19    3.90
   0   3  -1   53.69    3.90
   0   3  -1   66.69    3.70
   0   3  -1   70.99    3.90
   0  -3   1   62.49    4.00
   0  -3   1   64.79    3.60
  -1   3  -1  829.92   45.40
  -1   3  -1  786.02   45.40
   1  -3   1  850.31   45.10
   1  -3   1  833.62   45.50
  -2   3  -1   69.39    4.30
  -2   3  -1   67.49    4.10
   2  -3   1   71.59    4.10
   2  -3   1   65.69    4.30
  -3   3  -1  669.63   36.40
  -3   3  -1  615.04   36.70
   3  -3   1  667.03   36.50
   3  -3   1  689.23   36.70
  -4   3  -1  903.81   48.50
  -4   3  -1  844.22   48.90
   4  -3   1  880.51   48.60
   4  -3   1  890.61   48.80
  -5   3  -1   37.80    2.60
  -5   3  -1   40.20    3.30
   5  -3   1   38.10    2.90
   5  -3   1   38.10    2.90
  -6   3  -1    2.70    1.10
  -6   3  -1    3.30    0.70
   6  -3   1    3.00    0.90
   6  -3   1    3.10    0.90
  -7   3  -1   22.40    3.00
   7  -3   1   21.10    2.50
  -8   3  -1    4.40    1.70
   8  -3   1    8.60    1.70
  -9   3  -1   26.80    3.90
   9  -3   1   25.70    3.30
   9   2  -1   27.90    3.40
  -9  -2   1   21.30    3.80
   8   2  -1   33.30    3.80
  -8  -2   1   46.80    5.40
   7   2  -1   11.20    1.80
  -7  -2   1   11.90    2.50
   6   2  -1   69.59    5.00
  -6  -2   1   75.59    5.90
   5   2  -1    0.00    0.30
   5   2  -1    0.20    0.40
  -5  -2   1    0.10    0.30
  -5  -2   1    0.50    0.70
   4   2  -1   38.10    2.60
   4   2  -1   42.70    3.00
  -4  -2   1   41.20    3.60
  -4  -2   1   43.00    2.70
   3   2  -1   77.99    5.10
   3   2  -1   77.19    5.50
   3   2  -1   96.49    5.00
  -3  -2   1   81.79    5.00
  -3  -2   1   82.69    5.70
   2   2  -1  707.33   38.80
   2   2  -1  741.43   38.80
   2   2  -1  684.93   38.70
   2   2  -1  734.13   39.20
  -2  -2   1  665.83   39.40
  -2  -2   1  698.13   38.80
   1   2  -1 1473.05   86.09
   1   2  -1 1615.54   86.19
   1   2  -1 1615.64   86.39
   1   2  -1 1561.74   86.19
  -1  -2   1 1610.14   86.09
   0   2  -1   34.30    2.00
   0   2  -1   37.00    2.10
   0   2  -1   34.10    2.20
   0   2  -1   37.20    2.20
   0  -2   1   28.10    2.10
   0  -2   1   33.60    1.90
  -1   2  -1    9.60    0.80
  -1   2  -1    6.50    0.70
   1  -2   1    8.00    0.80
   1  -2   1    8.50    0.60
  -2   2  -1  193.68   10.60
  -2   2  -1  192.08   10.90
   2  -2   1  187.78   10.60
   2  -2   1  185.38   10.80
  -3   2  -1   36.10    2.70
  -3   2  -1   36.20    2.30
   3  -2   1   34.00    2.40
   3  -2   1   39.00    2.60
  -4   2  -1    1.20    0.30
  -4   2  -1   -0.10    0.40
   4  -2   1    0.80    0.40
   4  -2   1    0.20    0.40
  -5   2  -1   30.00    2.80
  -5   2  -1   31.10    2.10
   5  -2   1   29.90    2.40
   5  -2   1   31.20    2.50
  -6   2  -1    7.50    1.60
   6  -2   1    9.50    1.40
   6  -2   1    9.30    1.50
  -7   2  -1   10.30    2.00
   7  -2   1   10.50    1.70
  -8   2  -1   43.50    4.20
   8  -2   1   39.90    3.60
  -9   2  -1   84.99    7.00
   9  -2   1   84.29    6.40
   9   1  -1   15.70    2.60
  -9  -1   1   14.70    3.20
   8   1  -1    9.50    1.80
  -8  -1   1    8.30    2.30
   7   1  -1   -0.40    0.60
  -7  -1   1    0.50    1.00
   6   1  -1 1354.46   72.79
  -6  -1   1 1204.08   72.69
  -6  -1   1 1387.66   73.79
   5   1  -1  330.97   18.50
   5   1  -1  313.87   18.10
  -5  -1   1  316.67   19.30
  -5  -1   1  330.97   18.10
   4   1  -1   80.09    4.40
   4   1  -1   72.09    4.70
  -4  -1   1   69.89    5.20
  -4  -1   1   70.09    4.40
   3   1  -1  161.48   10.10
   3   1  -1  169.08    9.50
   3   1  -1  173.48    9.70
  -3  -1   1  167.08   10.30
  -3  -1   1  173.48    9.60
   2   1  -1 1087.49   58.59
   2   1  -1 1040.00   58.69
   2   1  -1 1088.59   58.99
  -2  -1   1 1025.10   59.19
  -2  -1   1 1116.09   58.69
   1   1  -1  541.75   27.40
   1   1  -1  527.15   27.20
   1   1  -1  448.86   27.20
   1   1  -1  497.65   27.20
  -1  -1   1  449.36   27.10
  -1  -1   1  512.25   27.20
   0   1  -1  206.18   11.00
   0   1  -1  189.28   11.10
   0  -1   1  202.78   11.10
  -1   1  -1  743.93   39.60
  -1   1  -1  731.23   39.80
   1  -1   1  775.02   39.70
   1  -1   1  646.64   39.60
  -2   1  -1  765.12   41.00
  -2   1  -1  722.83   40.60
   2  -1   1  728.33   40.80
   2  -1   1  750.52   40.70
  -3   1  -1 4136.59  236.28
  -3   1  -1 4839.02  236.38
   3  -1   1 3994.20  236.18
  -4   1  -1   50.09    2.90
  -4   1  -1   46.40    3.60
   4  -1   1   45.70    3.20
   4  -1   1   47.70    3.30
  -5   1  -1    0.60    0.60
  -5   1  -1    0.00    0.20
   5  -1   1    0.00    0.30
   5  -1   1    0.20    0.30
  -6   1  -1   30.90    3.10
   6  -1   1   27.00    2.40
   6  -1   1   32.30    2.70
  -7   1  -1    0.10    0.80
   7  -1   1   -0.40    0.50
  -8   1  -1   24.90    3.70
   8  -1   1   27.70    3.20
  -9   1  -1  140.79   10.50
   9  -1   1  149.59    9.80
   9   0  -1   15.60    2.50
  -9   0   1   11.40    2.70
   8   0  -1   36.00    3.40
  -8   0   1   36.70    4.60
   7   0  -1    3.40    1.00
  -7   0   1    4.00    1.50
   6   0  -1  187.58   11.80
  -6   0   1  211.88   12.70
  -6   0   1  198.08   11.30
   5   0  -1  128.59    7.90
  -5   0   1  132.89    7.50
  -5   0   1  125.09    8.50
   4   0  -1    4.40    0.80
   4   0  -1    3.80    0.50
  -4   0   1    4.60    1.10
  -4   0   1    4.60    0.60
   3   0  -1   29.40    2.00
   3   0  -1   26.80    1.70
  -3   0   1   27.20    1.80
  -3   0   1   29.30    2.40
   2   0  -1  617.84   33.80
   2   0  -1  559.24   33.40
   2   0  -1  656.83   33.60
  -2   0   1  591.64   33.90
  -2   0   1  629.54   33.50
   1   0  -1 1169.28   60.69
   1   0  -1  947.61   60.69
   1   0  -1 1055.49   60.79
  -1   0   1 1258.17   60.69
  -1   0   1 1116.29   60.59
   0   0  -1 1068.29   59.59
   0   0  -1 1136.99   59.59
   0   0  -1 1025.00   59.69
   0   0   1 1121.49   59.69
  -1   0  -1 1029.70   61.59
   1   0   1 1140.89   61.49
   1   0   1 1202.88   61.59
  -2   0  -1   47.00    2.60
  -2   0  -1   46.50    3.10
   2   0   1   46.10    2.90
   2   0   1   43.30    2.90
  -3   0  -1   77.39    4.20
  -3   0  -1   75.69    5.00
   3   0   1   70.59    4.60
   3   0   1   76.79    4.70
  -4   0  -1  179.38   11.70
  -4   0  -1  206.98   10.80
   4   0   1  201.28   11.40
   4   0   1  186.68   11.20
  -5   0  -1   26.20    2.60
   5   0   1   27.20    2.20
   5   0   1   26.90    2.30
  -6   0  -1  170.18   10.50
   6   0   1  148.79    9.70
   6   0   1  159.78    9.60
  -7   0  -1    2.20    1.10
   7   0   1    2.10    0.90
  -8   0  -1  297.67   18.90
   8   0   1  302.57   18.00
  -9   0  -1   15.30    2.90
  -9   0  -1   14.40    3.10
   9   0   1   23.70    3.00
   9  -1  -1    2.40    1.20
  -9   1   1    1.60    1.40
   8  -1  -1   73.19    5.40
  -8   1   1   69.79    6.00
   7  -1  -1  369.66   21.60
  -7   1   1  376.86   22.40
   6  -1  -1 1667.53   92.59
  -6   1   1 1740.23   92.09
  -6   1   1 1627.74   93.29
   5  -1  -1    0.80    0.50
   5  -1  -1    1.30    0.40
  -5   1   1    2.10    0.50
  -5   1   1    1.90    0.90
   4  -1  -1   10.30    0.90
   4  -1  -1   10.60    1.20
  -4   1   1    9.50    0.90
  -4   1   1    7.30    1.30
   3  -1  -1  127.09    7.60
   3  -1  -1  134.19    7.80
  -3   1   1  139.49    8.10
  -3   1   1  140.39    7.70
   2  -1  -1  464.25   25.00
   2  -1  -1  420.66   25.00
  -2   1   1  467.45   25.00
  -2   1   1  457.65   25.20
  -2   1   1  461.35   25.00
   1  -1  -1 1632.34   88.49
  -1   1   1 1790.32   88.59
  -1   1   1 1545.05   88.59
  -1   1   1 1503.15   88.39
   0  -1  -1 1521.35   83.39
   0  -1  -1 1720.13   83.59
   0   1   1 1461.65   83.49
   0   1   1 1403.26   83.39
  -1  -1  -1    1.20    0.40
  -1  -1  -1    0.70    0.30
   1   1   1    1.50    0.20
   1   1   1    2.10    0.40
   1   1   1    0.90    0.30
  -2  -1  -1  495.25   27.40
   2   1   1  484.45   27.10
   2   1   1  486.85   27.10
  -3  -1  -1  286.77   18.40
  -3  -1  -1  344.97   17.60
   3   1   1  329.77   18.10
   3   1   1  314.37   18.10
  -4  -1  -1  216.88   13.40
  -4  -1  -1  225.98   12.30
   4   1   1  225.48   12.90
   4   1   1  219.18   12.80
  -5  -1  -1  703.33   40.60
   5   1   1  713.33   39.90
   5   1   1  722.73   39.70
  -6  -1  -1   14.10    2.40
   6   1   1   10.90    1.70
  -7  -1  -1   -0.80    0.70
   7   1   1    0.00    0.60
  -8  -1  -1  222.78   14.20
   8   1   1  199.88   13.10
  -9  -1  -1   20.90    3.40
   9  -2  -1   20.70    2.80
  -9   2   1   22.10    3.50
   8  -2  -1   47.10    3.80
  -8   2   1   39.90    4.10
   7  -2  -1   74.09    5.10
  -7   2   1   69.29    4.60
  -7   2   1   70.49    5.50
   6  -2  -1  143.99    8.70
   6  -2  -1  140.59    8.50
  -6   2   1  132.39    8.20
  -6   2   1  144.19    9.10
   5  -2  -1   54.09    3.50
   5  -2  -1   52.19    3.70
  -5   2   1   52.59    3.40
  -5   2   1   52.59    4.00
   4  -2  -1   19.20    1.50
   4  -2  -1   19.10    1.60
  -4   2   1   17.80    1.40
  -4   2   1   17.10    1.70
   3  -2  -1  497.35   26.90
   3  -2  -1  488.05   26.90
  -3   2   1  478.75   26.80
  -3   2   1  474.65   27.10
   2  -2  -1    0.90    0.30
   2  -2  -1    0.30    0.30
  -2   2   1    1.00    0.30
  -2   2   1    0.90    0.30
  -2   2   1    0.40    0.30
   1  -2  -1 8653.33  495.95
   1  -2  -1 7725.23  477.05
  -1   2   1 8555.94  477.55
  -1   2   1 8852.81  477.55
  -1   2   1 9999.00  484.35
   0  -2  -1 1068.89   57.99
   0  -2  -1 1058.39   57.89
   0   2   1 1047.80   57.89
   0   2   1 1111.19   57.89
   0   2   1 1045.40   58.09
   0   2   1 1016.90   57.89
  -1  -2  -1  719.43   40.60
  -1  -2  -1  697.83   40.60
   1   2   1  774.42   40.20
   1   2   1  733.03   40.40
   1   2   1  746.23   40.50
  -2  -2  -1  250.27   14.20
  -2  -2  -1  229.28   14.80
  -2  -2  -1  252.97   14.80
   2   2   1  268.67   14.60
   2   2   1  271.37   14.20
   2   2   1  269.87   14.70
  -3  -2  -1  551.34   30.20
  -3  -2  -1  557.34   29.20
   3   2   1  516.25   29.60
   3   2   1  499.15   29.60
  -4  -2  -1  106.29    6.80
   4   2   1   81.69    6.00
   4   2   1  104.39    6.10
  -5  -2  -1    2.40    1.20
   5   2   1    2.00    0.70
   5   2   1    1.80    0.80
  -6  -2  -1   48.70    4.60
   6   2   1   55.49    4.10
  -7  -2  -1   13.20    2.50
  -7  -2  -1   12.20    2.60
   7   2   1   15.50    2.30
  -8  -2  -1   92.69    7.10
  -8  -2  -1   61.99    6.10
   8   2   1   93.79    6.20
 -10   3   1    2.20    1.80
   9  -3  -1    9.70    2.00
  -9   3   1    8.70    2.20
   8  -3  -1    1.70    0.90
  -8   3   1    3.20    1.30
   7  -3  -1  360.96   21.00
  -7   3   1  376.36   20.60
  -7   3   1  345.67   21.40
   6  -3  -1   95.59    5.90
   6  -3  -1   89.29    6.00
  -6   3   1   91.49    6.40
  -6   3   1   94.99    5.80
   5  -3  -1  610.64   35.00
   5  -3  -1  660.63   35.00
  -5   3   1  621.84   35.40
  -5   3   1  619.04   34.90
   4  -3  -1  306.07   17.30
   4  -3  -1  304.07   17.30
  -4   3   1  300.07   17.20
  -4   3   1  311.17   17.50
   3  -3  -1    1.20    0.40
   3  -3  -1   -0.10    0.30
  -3   3   1    3.20    0.60
  -3   3   1    0.30    0.30
  -3   3   1    1.10    0.40
   2  -3  -1   86.59    5.10
   2  -3  -1   88.29    5.50
  -2   3   1   89.29    5.30
  -2   3   1   92.39    5.50
  -2   3   1   87.39    5.10
   1  -3  -1  789.72   40.90
   1  -3  -1  734.53   40.90
  -1   3   1  752.52   41.00
  -1   3   1  736.13   41.20
  -1   3   1  712.63   40.80
   0  -3  -1  210.88   11.50
   0  -3  -1  194.48   11.30
   0   3   1  207.28   11.40
   0   3   1  202.58   11.40
   0   3   1  196.08   11.30
   0   3   1  199.18   11.60
  -1  -3  -1   21.50    1.80
  -1  -3  -1   20.80    1.80
   1   3   1   20.90    1.60
   1   3   1   22.80    1.50
   1   3   1   19.30    1.60
   1   3   1   22.00    1.80
  -2  -3  -1   10.20    1.40
  -2  -3  -1    6.80    1.10
   2   3   1    6.60    0.90
   2   3   1    7.60    1.10
   2   3   1    6.90    0.70
  -3  -3  -1   33.40    2.10
  -3  -3  -1   28.60    2.70
  -3  -3  -1   38.30    3.00
   3   3   1   36.80    2.50
   3   3   1   32.50    2.10
   3   3   1   32.30    2.50
  -4  -3  -1 1590.64   99.59
  -4  -3  -1 1645.34   99.89
   4   3   1 1930.91   99.29
   4   3   1 2051.39   99.39
  -5  -3  -1  139.49   10.20
  -5  -3  -1  171.88   10.80
   5   3   1  156.58    9.80
   5   3   1  186.28   10.10
  -6  -3  -1   55.49    5.00
  -6  -3  -1   60.19    4.90
   6   3   1   52.39    4.30
  -7  -3  -1   29.90    4.00
  -7  -3  -1   32.30    4.40
   7   3   1   41.50    3.50
  -8  -3  -1    3.50    1.70
  -8  -3  -1    6.20    2.20
   8   3   1    8.20    1.80
 -10   4   1   62.99    5.90
   9  -4  -1   26.20    3.40
  -9   4   1   34.40    4.20
   8  -4  -1  172.48   10.80
  -8   4   1  168.98   11.20
   7  -4  -1   45.20    3.60
  -7   4   1   42.60    3.20
  -7   4   1   44.90    3.90
   6  -4  -1    4.80    1.10
   6  -4  -1    5.40    1.10
  -6   4   1    4.80    1.30
  -6   4   1    3.70    0.90
   5  -4  -1    1.10    0.60
   5  -4  -1    3.60    0.90
  -5   4   1    1.60    0.70
  -5   4   1    1.40    0.50
   4  -4  -1   28.30    2.40
   4  -4  -1   31.40    2.20
  -4   4   1   27.20    2.20
  -4   4   1   28.80    2.20
   3  -4  -1   35.60    2.60
   3  -4  -1   29.20    2.20
  -3   4   1   37.80    2.40
  -3   4   1   31.90    2.30
  -3   4   1   31.50    2.60
   2  -4  -1  734.93   46.30
   2  -4  -1  855.71   46.00
  -2   4   1  868.31   46.00
  -2   4   1  846.02   46.10
  -2   4   1  873.81   46.50
   1  -4  -1  139.59    7.70
   1  -4  -1  132.99    7.70
  -1   4   1  133.09    7.60
  -1   4   1  135.19    7.80
  -1   4   1  125.19    8.10
   0  -4  -1  254.07   14.20
   0   4   1  244.78   14.60
   0   4   1  255.37   14.30
   0   4   1  258.07   14.30
   0   4   1  254.87   14.30
  -1  -4  -1   65.09    3.90
  -1  -4  -1   52.09    3.60
  -1  -4  -1   49.20    3.30
   1   4   1   48.30    3.70
   1   4   1   56.09    3.60
   1   4   1   49.00    3.30
   1   4   1   54.79    3.40
  -2  -4  -1    0.40    0.50
  -2  -4  -1   -0.20    0.50
   2   4   1    0.10    0.20
   2   4   1    0.20    0.40
   2   4   1    0.20    0.30
  -3  -4  -1  149.99    8.70
  -3  -4  -1  143.69    9.40
  -3  -4  -1  156.98    9.70
   3   4   1  144.99    8.60
   3   4   1  145.69    9.00
   3   4   1  172.88    9.30
  -4  -4  -1    0.70    0.80
  -4  -4  -1    0.70    0.70
   4   4   1   -0.30    0.50
   4   4   1   -0.30    0.50
  -5  -4  -1   13.20    2.20
  -5  -4  -1    7.30    1.80
   5   4   1   11.20    1.70
   5   4   1   11.60    1.70
  -6  -4  -1   33.10    4.20
  -6  -4  -1   29.00    3.20
   6   4   1   30.00    2.90
  -7  -4  -1   -0.40    0.90
  -7  -4  -1   -0.10    1.00
   7   4   1   -1.40    0.60
  -8  -4  -1   -1.10    1.40
 -10   5   1    0.30    1.40
   9  -5  -1   -0.80    0.70
  -9   5   1   -0.50    0.90
   8  -5  -1    1.80    1.10
  -8   5   1    1.40    1.20
  -8   5   1    5.10    1.10
   7  -5  -1    1.70    0.80
  -7   5   1    1.00    0.80
  -7   5   1    0.10    0.60
   6  -5  -1  149.39    9.10
  -6   5   1  144.89    9.00
  -6   5   1  149.09    9.30
   5  -5  -1 1004.20   55.99
   5  -5  -1 1002.00   56.29
  -5   5   1 1057.09   56.29
  -5   5   1  988.60   56.09
   4  -5  -1   96.89    5.90
   4  -5  -1   91.09    6.20
  -4   5   1   98.69    6.00
  -4   5   1   92.89    5.90
   3  -5  -1  288.07   16.50
   3  -5  -1  290.87   15.90
  -3   5   1  279.77   16.00
  -3   5   1  283.77   16.10
  -3   5   1  268.77   16.50
   2  -5  -1  190.18   11.00
   2  -5  -1  196.98   11.60
  -2   5   1  184.08   11.60
  -2   5   1  198.68   11.10
  -2   5   1  198.08   11.30
   1  -5  -1    0.50    0.30
   1  -5  -1    0.50    0.30
  -1   5   1    0.10    0.30
  -1   5   1   -0.30    0.40
  -1   5   1    0.20    0.30
   0  -5  -1   12.10    1.10
   0  -5  -1   12.00    1.20
   0   5   1   13.00    1.20
   0   5   1   15.40    1.90
   0   5   1   13.10    1.20
  -1  -5  -1   18.10    1.40
  -1  -5  -1   17.40    1.70
  -1  -5  -1   13.60    1.90
   1   5   1   14.20    1.90
   1   5   1   15.80    1.50
   1   5   1   15.50    1.40
   1   5   1   16.90    1.60
  -2  -5  -1    9.20    1.70
  -2  -5  -1    8.40    1.40
  -2  -5  -1    9.20    1.20
   2   5   1    7.60    1.10
   2   5   1   10.20    1.50
   2   5   1    7.80    1.00
  -3  -5  -1  342.17   20.70
  -3  -5  -1  371.56   21.00
   3   5   1  363.16   20.30
   3   5   1  342.57   20.50
  -4  -5  -1  775.12   43.90
   4   5   1  777.12   43.30
   4   5   1  756.62   43.10
  -5  -5  -1    1.30    1.20
  -5  -5  -1    1.20    1.00
   5   5   1    1.70    0.90
  -6  -5  -1    0.50    1.00
  -6  -5  -1   -0.40    1.20
   6   5   1   -0.20    0.80
  -7  -5  -1   13.60    2.70
  -7  -5  -1   10.30    2.70
   7   5   1   14.00    2.30
   9  -6  -1   32.90    3.70
   8  -6  -1   17.70    2.50
  -8   6   1   18.20    2.80
  -8   6   1   21.90    2.50
   7  -6  -1    2.80    1.00
   7  -6  -1    2.40    1.50
  -7   6   1    1.30    0.80
  -7   6   1    3.80    1.20
   6  -6  -1    0.60    0.60
   6  -6  -1    0.40    0.70
  -6   6   1    0.40    0.60
  -6   6   1    0.40    0.60
   5  -6  -1    4.20    1.00
   5  -6  -1    4.60    1.20
  -5   6   1    6.10    1.20
  -5   6   1    5.50    1.10
   4  -6  -1   22.00    1.90
   4  -6  -1   21.90    2.60
  -4   6   1   25.00    2.00
  -4   6   1   21.50    2.00
   3  -6  -1    6.70    1.40
   3  -6  -1    7.80    1.00
  -3   6   1    7.00    1.40
  -3   6   1    6.90    1.00
  -3   6   1    6.40    1.10
   2  -6  -1   24.40    1.80
   2  -6  -1   27.50    2.50
  -2   6   1   23.40    2.10
  -2   6   1   21.70    2.60
  -2   6   1   26.50    2.00
   1  -6  -1   28.50    2.10
   1  -6  -1   28.00    2.10
  -1   6   1   28.80    2.20
  -1   6   1   31.20    2.70
  -1   6   1   27.90    2.20
   0  -6  -1  229.28   12.30
   0  -6  -1  201.88   12.00
   0  -6  -1  181.18   12.30
   0   6   1  209.88   12.20
   0   6   1  207.58   12.70
   0   6   1  226.28   12.20
  -1  -6  -1    0.80    0.50
  -1  -6  -1    0.10    0.60
  -1  -6  -1    1.00    0.50
   1   6   1    1.10    0.50
   1   6   1    1.40    0.60
   1   6   1    0.80    0.50
   1   6   1    0.20    0.60
  -2  -6  -1   42.40    2.80
  -2  -6  -1   33.70    3.00
  -2  -6  -1   36.60    3.30
   2   6   1   39.90    2.90
   2   6   1   35.50    3.10
   2   6   1   30.10    2.60
  -3  -6  -1   18.10    2.00
  -3  -6  -1   19.60    2.60
  -3  -6  -1   19.00    2.70
   3   6   1   17.00    2.00
   3   6   1   15.90    2.30
  -4  -6  -1   79.39    6.20
  -4  -6  -1   90.89    6.70
   4   6   1   84.89    6.10
   4   6   1   81.89    5.70
  -5  -6  -1   45.80    4.70
  -5  -6  -1   51.09    4.50
  -6  -6  -1   11.90    2.50
  -6  -6  -1    8.20    2.40
   6   6   1    7.10    1.70
   9  -7  -1   13.90    2.40
   8  -7  -1    2.60    1.10
  -8   7   1    2.30    1.10
   7  -7  -1    0.50    0.80
   7  -7  -1   -0.70    0.60
  -7   7   1   -0.50    0.60
   6  -7  -1  248.68   14.60
   6  -7  -1  246.58   15.00
  -6   7   1  246.08   14.70
   5  -7  -1  166.78   10.80
   5  -7  -1  171.18   10.20
  -5   7   1  174.58   10.50
   4  -7  -1   -0.10    0.40
   4  -7  -1   -0.10    0.60
  -4   7   1    1.00    0.80
  -4   7   1   -0.30    0.40
   3  -7  -1  100.19    6.30
   3  -7  -1  101.89    7.00
  -3   7   1   99.59    6.60
  -3   7   1  113.59    7.30
   2  -7  -1    8.60    1.70
   2  -7  -1    8.20    1.10
  -2   7   1    8.90    1.80
  -2   7   1    8.40    1.40
   1  -7  -1    9.20    1.20
   1  -7  -1    7.80    1.60
   1  -7  -1    9.50    1.10
  -1   7   1    7.00    1.20
  -1   7   1    7.00    1.60
   0  -7  -1    2.00    0.60
   0  -7  -1    1.50    0.60
   0   7   1    2.70    1.10
   0   7   1    1.30    0.60
  -1  -7  -1    5.80    1.20
  -1  -7  -1    7.00    1.00
   1   7   1    7.00    1.60
   1   7   1    6.00    1.10
   1   7   1    5.80    1.10
  -2  -7  -1    0.40    0.60
  -2  -7  -1   -0.30    0.40
   2   7   1   -0.60    0.40
   2   7   1   -0.20    0.40
   2   7   1    0.30    0.70
  -3  -7  -1  143.09    9.40
  -3  -7  -1  148.89    8.80
   3   7   1  139.79    8.90
   3   7   1  132.79    9.30
  -4  -7  -1   18.70    2.80
   4   7   1   17.10    2.60
   4   7   1   22.30    2.60
  -5  -7  -1   76.69    6.40
   5   7   1   83.29    5.90
  -9   8   1    3.70    1.60
   8  -8  -1   29.10    3.50
  -8   8   1   37.30    3.30
   7  -8  -1   12.70    2.30
   7  -8  -1    9.20    1.70
  -7   8   1   11.20    2.00
   6  -8  -1    0.20    0.80
   6  -8  -1    0.10    0.60
  -6   8   1    0.20    0.70
   5  -8  -1    0.10    0.50
   5  -8  -1    0.80    0.80
  -5   8   1    2.60    0.90
   4  -8  -1   -0.70    0.40
   4  -8  -1    0.30    0.80
  -4   8   1    0.60    0.60
   3  -8  -1   14.70    2.40
   3  -8  -1   14.40    1.60
  -3   8   1   10.50    1.70
  -3   8   1   19.60    2.70
   2  -8  -1    0.30    0.80
   2  -8  -1    0.20    0.40
  -2   8   1    0.10    0.80
  -2   8   1    0.60    0.60
   1  -8  -1   58.59    4.90
   1  -8  -1   67.59    4.10
  -1   8   1   63.09    5.00
  -1   8   1   55.39    4.30
   0  -8  -1   52.09    4.40
   0  -8  -1   50.39    3.70
   0  -8  -1   49.40    3.50
   0   8   1   53.49    4.40
   0   8   1   50.39    3.70
  -1  -8  -1    5.40    1.00
  -1  -8  -1    3.60    1.00
   1   8   1    5.70    1.20
   1   8   1    5.40    1.70
  -2  -8  -1  106.09    6.90
  -2  -8  -1  126.59    7.60
   2   8   1  103.29    7.10
   2   8   1  101.39    7.80
  -3  -8  -1   10.40    2.00
  -3  -8  -1   13.40    1.80
   3   8   1   11.10    1.80
   3   8   1   14.20    2.50
  -4  -8  -1   57.79    4.60
  -4  -8  -1   61.09    5.30
   4   8   1   68.79    4.90
  -5  -8  -1   25.20    3.60
   5   8   1   24.10    3.10
   8  -9  -1    9.80    2.00
   7  -9  -1   19.10    2.40
   7  -9  -1   15.60    2.70
  -7   9   1   13.30    2.30
   6  -9  -1   21.90    3.20
   6  -9  -1   22.50    2.60
  -6   9   1   21.40    2.80
   5  -9  -1   16.30    2.10
   5  -9  -1   17.50    2.80
  -5   9   1   16.80    2.40
   4  -9  -1   16.00    2.70
   4  -9  -1   17.30    2.00
  -4   9   1   15.00    2.20
   3  -9  -1   14.40    1.80
   3  -9  -1   15.50    2.70
  -3   9   1   19.80    2.40
  -3   9   1   16.50    2.80
   2  -9  -1    5.00    1.00
   2  -9  -1    4.90    1.60
  -2   9   1    6.50    1.40
  -2   9   1    6.60    1.80
   1  -9  -1    7.60    1.20
   1  -9  -1    6.90    1.90
  -1   9   1    8.10    2.00
  -1   9   1    8.10    1.50
   0  -9  -1   12.60    2.40
   0  -9  -1   10.30    1.40
   0   9   1    8.20    1.50
   0   9   1    8.50    2.00
  -1  -9  -1    8.20    2.00
  -1  -9  -1   10.70    1.50
   1   9   1   14.20    1.90
   1   9   1   12.00    2.40
  -2  -9  -1    0.00    0.80
  -2  -9  -1   -0.70    0.60
   2   9   1   -0.30    0.90
  -3  -9  -1    1.10    0.70
  -3  -9  -1    0.50    0.90
   3   9   1    3.40    1.20
   3   9   1    6.20    1.80
  -4  -9  -1   10.50    2.20
  -4  -9  -1   12.50    1.90
   4   9   1   11.80    2.10
   7 -10  -1   -0.40    1.20
   6 -10  -1   17.80    2.30
   6 -10  -1   16.00    2.90
  -6  10   1   15.10    2.50
   5 -10  -1    3.30    1.00
   5 -10  -1    2.10    1.30
  -5  10   1    1.70    1.00
   4 -10  -1   -0.10    0.50
   4 -10  -1   -0.30    1.00
  -4  10   1   -0.80    0.60
   3 -10  -1   -0.50    1.00
   3 -10  -1   -0.80    0.50
  -3  10   1    0.80    0.90
  -3  10   1    1.30    1.20
   2 -10  -1   16.70    2.90
  -2  10   1   18.70    2.50
  -2  10   1   20.80    3.40
   1 -10  -1   19.90    2.00
   1 -10  -1   23.60    3.50
  -1  10   1   22.60    3.50
  -1  10   1   24.30    2.80
   0 -10  -1    0.80    1.30
   0 -10  -1    2.60    0.80
   0  10   1    1.70    0.90
   0  10   1    1.40    1.30
  -1 -10  -1   33.00    2.70
  -1 -10  -1   35.00    4.40
   1  10   1   25.60    3.80
  -2 -10  -1    3.10    1.70
  -2 -10  -1    3.20    1.00
   2  10   1    0.60    1.30
  -3 -10  -1   22.60    3.60
   3  10   1   17.80    3.40
   4 -11  -1   11.00    2.60
  -4  11   1   11.20    2.20
   3 -11  -1    0.90    1.40
  -3  11   1    1.90    1.50
  -3  11   1    0.70    1.00
   2 -11  -1   39.90    4.80
  -2  11   1   35.30    4.70
  -2  11   1   39.70    3.60
   1 -11  -1    2.20    1.40
  -1  11   1    2.70    1.10
  -1  11   1    3.40    1.70
   0 -11  -1    0.00    1.40
   0 -11  -1    0.00    0.90
   0  11   1   -0.10    2.10
   2  11  -2   14.30    2.30
   2  11  -2    8.00    2.30
  -2 -11   2   15.50    2.80
  -2 -11   2   15.00    2.50
   1  11  -2    1.00    0.90
  -1 -11   2    1.00    1.10
   0  11  -2    0.90    0.90
   0 -11   2    2.00    1.30
  -1  11  -2   61.19    4.80
   1 -11   2   55.69    5.20
  -2  11  -2   54.49    4.50
   2 -11   2   54.99    5.00
  -3  11  -2   69.69    5.30
   3 -11   2   66.09    5.80
  -4  11  -2   59.09    4.90
   4 -11   2   61.59    5.50
  -5  11  -2   21.10    2.90
   5 -11   2   21.10    3.50
   2  10  -2   17.20    2.70
   2  10  -2   11.10    1.80
  -2 -10   2   12.80    2.20
  -2 -10   2   11.40    2.30
   1  10  -2    7.60    1.60
   1  10  -2    8.70    2.00
  -1 -10   2    4.20    1.50
   0  10  -2  116.59    8.00
   0 -10   2  130.89    8.70
  -1  10  -2  155.48   10.30
   1 -10   2  172.98   11.00
  -2  10  -2    1.40    0.90
   2 -10   2    0.20    0.80
  -3  10  -2   54.79    4.40
   3 -10   2   60.79    5.10
  -4  10  -2   72.29    5.50
   4 -10   2   80.69    6.20
  -5  10  -2   77.49    5.90
   5 -10   2   85.49    6.60
  -6  10  -2    1.40    1.10
   6 -10   2   -0.20    1.20
  -7  10  -2   35.00    3.30
   7 -10   2   24.50    4.50
  -5  -9   2    1.20    1.00
  -4  -9   2    1.50    1.20
   3   9  -2  173.08   12.10
   3   9  -2  172.58   10.90
  -3  -9   2  180.08   11.20
  -3  -9   2  184.58   11.50
   2   9  -2    0.20    0.60
   2   9  -2   -0.10    1.00
  -2  -9   2   -0.50    0.60
  -2  -9   2   -0.10    0.70
   1   9  -2   46.10    4.40
   1   9  -2   56.29    4.10
  -1  -9   2   56.79    4.50
   0   9  -2    0.60    0.90
   0   9  -2    1.00    0.70
   0  -9   2    2.40    1.10
  -1   9  -2   30.00    2.80
   1  -9   2   31.50    3.60
  -2   9  -2    3.00    1.00
   2  -9   2    2.60    1.20
  -3   9  -2   11.70    1.80
   3  -9   2   11.10    2.20
  -4   9  -2  117.89    7.80
   4  -9   2  123.09    8.40
  -5   9  -2   10.80    1.80
   5  -9   2    8.00    2.00
  -6   9  -2  182.38   11.20
   6  -9   2  171.98   11.70
  -7   9  -2   20.20    2.60
   7  -9   2   20.80    3.20
   6   8  -2   29.70    3.10
  -6  -8   2   22.20    3.40
  -6  -8   2   18.60    3.90
   5   8  -2   77.79    5.80
  -5  -8   2   80.89    7.30
  -5  -8   2   77.19    6.40
  -5  -8   2   95.09    5.80
   4   8  -2   88.89    5.80
   4   8  -2   82.89    6.80
  -4  -8   2   71.09    6.10
  -4  -8   2  110.49    7.70
   3   8  -2    0.00    0.80
   3   8  -2    0.60    0.90
   3   8  -2    0.10    0.50
   3   8  -2    0.10    0.50
  -3  -8   2   -0.40    0.60
  -3  -8   2   -0.30    0.90
  -3  -8   2    0.70    0.70
  -3  -8   2    1.40    0.90
  -3  -8   2    0.00    0.40
   2   8  -2   36.80    2.80
   2   8  -2   34.00    3.00
   2   8  -2   45.30    3.70
   2   8  -2   39.20    3.70
  -2  -8   2   34.20    3.30
  -2  -8   2   46.20    3.40
  -2  -8   2   41.20    2.80
  -2  -8   2   36.40    3.10
   1   8  -2    9.30    1.80
   1   8  -2    9.80    1.50
   1   8  -2   11.00    2.00
  -1  -8   2    8.00    1.70
  -1  -8   2    9.20    1.10
   0   8  -2   81.39    5.20
   0   8  -2   68.19    5.50
   0   8  -2   74.89    5.50
   0  -8   2   75.79    4.60
   0  -8   2   79.09    5.60
  -1   8  -2    4.80    1.10
  -1   8  -2    5.90    1.40
   1  -8   2    4.60    0.70
   1  -8   2    4.70    1.30
  -2   8  -2  306.87   17.60
  -2   8  -2  301.47   17.30
   2  -8   2  296.97   17.80
   2  -8   2  286.27   16.70
  -3   8  -2   80.99    5.50
  -3   8  -2   72.29    5.20
   3  -8   2   78.19    4.80
   3  -8   2   72.29    5.60
  -4   8  -2    6.00    1.40
  -4   8  -2    7.60    1.40
   4  -8   2    7.20    1.10
   4  -8   2    8.00    1.80
  -5   8  -2   45.60    3.70
  -5   8  -2   49.20    4.10
   5  -8   2   48.40    4.20
  -6   8  -2    5.80    1.60
  -6   8  -2    7.20    1.50
   6  -8   2    7.40    1.90
  -7   8  -2    1.20    0.80
  -7   8  -2    1.10    1.10
   7  -8   2    0.60    1.00
  -8   8  -2    3.80    1.50
   7   7  -2    0.90    0.90
  -7  -7   2    1.30    1.70
   6   7  -2   26.90    3.00
  -6  -7   2   20.60    3.80
  -6  -7   2   24.90    3.50
   5   7  -2   43.10    4.50
   5   7  -2   45.20    3.70
  -5  -7   2   55.19    5.30
   4   7  -2   80.59    6.20
   4   7  -2   81.19    5.30
  -4  -7   2   62.59    6.20
  -4  -7   2   83.59    5.40
   3   7  -2   53.09    4.60
   3   7  -2   56.59    4.00
   3   7  -2   62.49    4.00
   3   7  -2   49.00    4.20
  -3  -7   2   57.69    3.80
  -3  -7   2   49.70    4.90
  -3  -7   2   52.89    4.30
  -3  -7   2   58.99    4.10
  -3  -7   2   63.69    4.40
   2   7  -2   48.60    3.60
   2   7  -2   44.60    4.00
   2   7  -2   52.49    3.40
   2   7  -2   53.49    4.00
  -2  -7   2   49.20    3.70
  -2  -7   2   45.60    3.80
  -2  -7   2   48.80    3.30
  -2  -7   2   51.09    3.70
   1   7  -2   22.60    1.80
   1   7  -2   23.80    2.10
   1   7  -2   25.00    2.50
   1   7  -2   21.20    2.60
  -1  -7   2   26.20    2.10
  -1  -7   2   21.70    1.70
  -1  -7   2   24.30    2.30
   0   7  -2   14.80    1.80
   0   7  -2   13.60    2.00
   0   7  -2   18.10    2.20
   0  -7   2   14.90    1.20
   0  -7   2   15.50    1.30
   0  -7   2   10.60    1.80
  -1   7  -2    0.70    0.50
  -1   7  -2    0.10    0.50
   1  -7   2    0.70    0.60
   1  -7   2    0.60    0.30
  -2   7  -2   20.80    1.90
  -2   7  -2   23.40    2.10
   2  -7   2   15.10    1.40
   2  -7   2   20.20    2.50
  -3   7  -2   31.50    2.90
  -3   7  -2   32.50    2.70
   3  -7   2   36.30    2.40
   3  -7   2   35.10    3.10
  -4   7  -2  237.88   14.60
  -4   7  -2  234.58   14.30
   4  -7   2  256.27   14.10
   4  -7   2  247.98   14.80
  -5   7  -2    5.80    1.20
  -5   7  -2    3.30    1.10
   5  -7   2    5.10    1.00
   5  -7   2    2.20    1.10
  -6   7  -2    6.30    1.60
  -6   7  -2    6.40    1.30
   6  -7   2    6.70    1.30
   6  -7   2    5.20    1.50
  -7   7  -2    8.30    1.90
  -7   7  -2    6.70    1.30
   7  -7   2    8.00    1.50
   7  -7   2    8.50    1.90
  -8   7  -2   13.50    2.60
   7   6  -2    0.50    0.80
  -7  -6   2   -0.70    1.10
   6   6  -2   49.99    4.10
  -6  -6   2   57.49    5.60
   5   6  -2    7.60    1.40
   5   6  -2    9.30    2.00
  -5  -6   2    4.80    1.90
   4   6  -2  121.99    6.90
   4   6  -2   96.69    7.50
  -4  -6   2  104.69    6.80
  -4  -6   2  100.89    6.80
  -4  -6   2  110.49    8.10
   3   6  -2    0.40    0.40
   3   6  -2    0.40    0.70
   3   6  -2    0.00    0.40
   3   6  -2   -1.10    0.40
  -3  -6   2   -0.10    0.60
  -3  -6   2   -0.40    0.40
  -3  -6   2    0.50    0.50
   2   6  -2    2.60    0.70
   2   6  -2    1.90    0.80
   2   6  -2    2.10    0.90
   2   6  -2    1.60    0.50
  -2  -6   2    0.90    0.60
  -2  -6   2    0.60    0.50
  -2  -6   2    1.60    0.50
   1   6  -2  131.09    7.30
   1   6  -2  118.39    7.80
   1   6  -2  123.99    8.00
   1   6  -2  125.49    7.60
  -1  -6   2  129.89    7.80
  -1  -6   2  112.19    7.50
  -1  -6   2  129.69    7.20
   0   6  -2   55.49    3.90
   0   6  -2   54.99    4.20
   0   6  -2   60.19    4.20
   0  -6   2   61.29    4.20
   0  -6   2   57.49    3.50
   0  -6   2   59.39    3.60
  -1   6  -2   22.70    2.20
  -1   6  -2   20.10    2.00
   1  -6   2   28.80    1.60
   1  -6   2   28.20    1.80
   1  -6   2   25.10    2.30
  -2   6  -2  374.26   22.00
  -2   6  -2  388.26   22.30
   2  -6   2  409.96   21.60
   2  -6   2  381.56   22.40
  -3   6  -2    4.10    1.00
  -3   6  -2    3.90    0.90
   3  -6   2    5.90    1.20
   3  -6   2    3.30    0.60
  -4   6  -2    8.20    1.30
  -4   6  -2    7.90    1.40
   4  -6   2    9.30    1.60
   4  -6   2    9.10    1.20
  -5   6  -2  119.89    7.40
  -5   6  -2  121.29    7.90
   5  -6   2  120.09    7.40
   5  -6   2  117.29    7.90
  -6   6  -2   40.20    3.60
  -6   6  -2   37.90    3.10
   6  -6   2   43.40    3.30
   6  -6   2   39.00    3.50
  -7   6  -2    7.00    1.80
   7  -6   2    7.50    1.50
   7  -6   2    4.00    1.40
  -8   6  -2   28.50    3.90
   8  -6   2   36.80    3.20
  -9   6  -2   19.30    3.40
   9  -6   2   23.90    3.00
   8   5  -2   -0.40    0.80
  -8  -5   2   -0.90    1.50
   7   5  -2   28.60    3.30
  -7  -5   2   36.50    5.00
   6   5  -2    5.20    1.30
  -6  -5   2    7.10    2.00
   5   5  -2   -0.30    0.70
   5   5  -2    0.50    0.60
  -5  -5   2    0.50    1.00
  -5  -5   2    0.20    0.50
   4   5  -2    0.90    0.90
   4   5  -2    1.10    0.60
   4   5  -2    3.00    0.80
  -4  -5   2    0.90    1.00
  -4  -5   2    1.00    0.50
  -4  -5   2    3.30    0.80
   3   5  -2   12.60    1.50
   3   5  -2   13.40    1.50
   3   5  -2   14.20    2.10
   3   5  -2   16.00    1.80
  -3  -5   2   14.80    1.60
  -3  -5   2   13.90    1.60
  -3  -5   2   11.70    2.20
   2   5  -2    3.60    0.70
   2   5  -2    3.40    0.60
   2   5  -2    3.20    1.00
   2   5  -2    3.40    0.80
  -2  -5   2    4.00    0.80
  -2  -5   2    2.80    0.70
   1   5  -2  158.28    9.80
   1   5  -2  162.38    9.10
   1   5  -2  156.58    9.40
   1   5  -2  160.18    9.70
  -1  -5   2  154.88    9.10
  -1  -5   2  173.88    9.60
   0   5  -2   37.90    2.80
   0   5  -2   35.20    2.80
   0   5  -2   35.00    2.50
   0  -5   2   41.00    2.20
   0  -5   2   39.30    2.80
   0  -5   2   28.40    2.20
  -1   5  -2   57.89    3.70
  -1   5  -2   54.69    3.80
   1  -5   2   56.59    3.30
   1  -5   2   51.09    3.80
  -2   5  -2   77.29    4.90
  -2   5  -2   76.89    5.10
   2  -5   2   78.99    5.20
   2  -5   2   78.19    4.60
  -3   5  -2   10.80    1.60
  -3   5  -2   12.60    1.40
   3  -5   2   11.40    1.60
   3  -5   2   11.50    1.10
  -4   5  -2   19.80    2.00
  -4   5  -2   19.40    1.70
   4  -5   2   19.70    1.70
   4  -5   2   18.30    2.20
  -5   5  -2   21.80    1.80
  -5   5  -2   19.50    2.50
   5  -5   2   16.20    2.20
   5  -5   2   18.90    1.80
  -6   5  -2   40.30    3.00
  -6   5  -2   39.70    3.60
   6  -5   2   41.10    3.20
   6  -5   2   41.50    3.50
  -7   5  -2  115.99    8.00
   7  -5   2  106.79    7.50
   7  -5   2  110.79    7.30
  -8   5  -2    1.60    1.20
   8  -5   2    0.90    0.80
  -9   5  -2    7.50    2.20
   9  -5   2    3.90    1.40
   8   4  -2   50.39    4.40
  -8  -4   2   60.09    6.00
   7   4  -2    1.80    1.00
  -7  -4   2    2.90    1.60
   6   4  -2    2.80    0.90
  -6  -4   2    2.80    1.50
   5   4  -2   25.20    3.20
   5   4  -2   23.40    2.20
  -5  -4   2   26.60    2.10
  -5  -4   2   26.50    3.60
   4   4  -2  106.79    7.50
   4   4  -2  127.99    8.40
   4   4  -2  131.49    7.60
  -4  -4   2  133.69    7.60
  -4  -4   2  131.39    8.80
   3   4  -2    2.90    0.60
   3   4  -2    0.60    0.40
   3   4  -2    0.40    0.50
   3   4  -2    0.40    0.30
  -3  -4   2   -0.20    0.50
  -3  -4   2    0.10    0.30
  -3  -4   2   -0.30    0.20
   2   4  -2  341.17   19.30
   2   4  -2  339.57   18.90
   2   4  -2  327.87   18.60
   2   4  -2  311.07   18.70
  -2  -4   2  336.27   18.90
  -2  -4   2  351.66   18.90
   1   4  -2  156.98    8.80
   1   4  -2  157.48    9.30
   1   4  -2  156.78    9.20
   1   4  -2  150.58    9.00
   0   4  -2  179.68   10.20
   0   4  -2  180.28   10.40
   0  -4   2  177.28   10.30
   0  -4   2  172.08    9.80
  -1   4  -2   90.89    5.80
  -1   4  -2   97.39    5.60
   1  -4   2   89.09    5.80
   1  -4   2   94.79    5.30
  -2   4  -2    3.10    0.60
  -2   4  -2    3.00    0.70
   2  -4   2    3.50    0.80
   2  -4   2    3.20    0.50
  -3   4  -2   12.20    1.30
  -3   4  -2   12.90    1.60
  -3   4  -2   10.10    0.80
   3  -4   2   11.50    1.50
   3  -4   2   11.20    1.00
  -4   4  -2   18.80    2.00
  -4   4  -2   21.80    1.70
   4  -4   2   21.90    1.80
   4  -4   2   18.70    2.20
  -5   4  -2   50.79    4.00
  -5   4  -2   51.69    3.40
   5  -4   2   47.60    3.80
   5  -4   2   51.29    3.60
  -6   4  -2    2.00    1.00
  -6   4  -2    2.00    0.70
   6  -4   2    2.30    0.90
   6  -4   2    1.30    0.70
  -7   4  -2    7.30    1.70
   7  -4   2    4.10    1.10
   7  -4   2    4.70    1.20
  -8   4  -2    0.40    1.00
   8  -4   2    0.10    0.80
  -9   4  -2    6.70    2.10
   9  -4   2    3.60    1.30
   9   3  -2    0.90    1.00
  -9  -3   2   -0.80    1.60
   8   3  -2   23.30    3.00
  -8  -3   2   26.30    4.20
   7   3  -2   15.50    2.20
  -7  -3   2   22.70    3.60
   6   3  -2   16.30    2.00
  -6  -3   2   16.90    2.90
   5   3  -2   14.20    1.80
   5   3  -2   15.10    2.40
  -5  -3   2   15.30    1.40
  -5  -3   2   14.60    2.50
   4   3  -2   23.90    1.70
   4   3  -2   22.40    1.90
   4   3  -2   20.40    2.60
  -4  -3   2   23.00    1.80
  -4  -3   2   23.40    3.10
   3   3  -2   49.60    4.00
   3   3  -2   56.89    3.50
   3   3  -2   59.39    3.60
  -3  -3   2   56.89    3.60
  -3  -3   2   49.90    4.20
   2   3  -2    2.60    0.40
   2   3  -2    1.60    0.40
   2   3  -2    1.10    0.40
   2   3  -2    1.00    0.50
  -2  -3   2    0.30    0.30
  -2  -3   2    0.80    0.30
   1   3  -2   87.29    5.40
   1   3  -2   84.19    5.10
   1   3  -2   91.09    5.60
   1   3  -2   87.69    5.30
  -1  -3   2   90.99    5.30
  -1  -3   2   96.99    5.40
   0   3  -2  370.46   21.20
   0   3  -2  354.76   21.40
   0  -3   2  409.16   20.90
   0  -3   2  391.36   21.40
  -1   3  -2   51.49    3.30
  -1   3  -2   50.39    3.40
   1  -3   2   54.59    3.10
   1  -3   2   54.59    3.50
  -2   3  -2    0.00    0.30
  -2   3  -2    0.10    0.10
  -2   3  -2    0.30    0.30
   2  -3   2    0.10    0.20
   2  -3   2   -0.10    0.30
  -3   3  -2   28.40    2.30
  -3   3  -2   26.70    1.90
   3  -3   2   25.30    2.10
   3  -3   2   26.70    1.90
  -4   3  -2   55.29    3.40
  -4   3  -2   56.19    4.00
   4  -3   2   51.89    3.60
   4  -3   2   53.49    3.80
  -5   3  -2  174.68   10.10
  -5   3  -2  184.68   11.00
   5  -3   2  170.98   10.60
   5  -3   2  172.28   10.40
  -6   3  -2    0.40    0.70
   6  -3   2   -0.10    0.50
   6  -3   2   -0.20    0.50
  -7   3  -2   11.10    2.20
   7  -3   2   12.60    1.90
   7  -3   2   11.40    1.80
  -8   3  -2    5.90    1.90
   8  -3   2    5.80    1.40
  -9   3  -2    0.80    1.30
   9  -3   2    3.40    1.40
   9   2  -2    0.20    0.90
  -9  -2   2    0.20    0.90
   8   2  -2  146.59    9.60
  -8  -2   2  150.08   10.90
   7   2  -2   36.20    3.20
  -7  -2   2   40.20    4.10
   6   2  -2   24.50    2.50
  -6  -2   2   32.70    2.30
  -6  -2   2   31.20    4.00
   5   2  -2  316.27   17.50
  -5  -2   2  303.07   18.50
  -5  -2   2  294.47   17.20
   4   2  -2   17.00    1.20
   4   2  -2   14.30    2.10
   4   2  -2   17.50    1.50
  -4  -2   2   20.20    2.60
  -4  -2   2   14.70    1.40
   3   2  -2  651.93   34.20
   3   2  -2  511.35   33.50
   3   2  -2  625.74   33.30
  -3  -2   2  608.74   34.40
  -3  -2   2  640.44   33.60
   2   2  -2  432.16   25.30
   2   2  -2  446.26   24.90
  -2  -2   2  435.56   25.00
  -2  -2   2  488.75   24.90
   1   2  -2  286.57   16.00
   1   2  -2  273.47   15.70
   1   2  -2  291.07   15.60
  -1  -2   2  279.57   15.70
  -1  -2   2  283.77   15.80
   0   2  -2  368.56   19.60
   0   2  -2  363.76   19.80
   0  -2   2  329.87   19.70
  -1   2  -2  289.37   15.30
  -1   2  -2  285.57   15.10
  -1   2  -2  258.97   15.00
   1  -2   2  249.48   15.30
   1  -2   2  276.87   15.00
  -2   2  -2  157.38    8.10
  -2   2  -2  145.89    8.40
  -2   2  -2  121.59    8.00
   2  -2   2  147.89    8.30
   2  -2   2  140.99    8.10
  -3   2  -2  494.45   28.00
  -3   2  -2  518.05   28.50
   3  -2   2  536.05   28.40
   3  -2   2  483.55   28.10
  -4   2  -2   37.60    2.40
  -4   2  -2   37.40    3.00
   4  -2   2   39.50    2.90
   4  -2   2   35.70    2.70
  -5   2  -2   78.99    4.30
  -5   2  -2   67.29    5.10
   5  -2   2   72.59    4.80
   5  -2   2   61.79    4.60
  -6   2  -2    4.50    1.30
   6  -2   2    7.20    1.30
   6  -2   2    5.20    1.10
  -7   2  -2   10.00    2.10
   7  -2   2   15.30    2.10
  -8   2  -2    0.40    0.80
  -8   2  -2    0.20    0.90
   8  -2   2    1.20    0.90
  -9   2  -2   42.50    5.30
   9  -2   2   53.59    4.50
   9   1  -2    1.50    1.10
  -9  -1   2    1.60    1.60
   8   1  -2    4.70    1.30
  -8  -1   2    4.20    1.80
   7   1  -2   32.60    2.90
  -7  -1   2   31.70    4.20
   6   1  -2   82.79    5.60
  -6  -1   2   84.09    5.20
  -6  -1   2   84.89    6.50
   5   1  -2   48.40    3.30
  -5  -1   2   41.90    2.90
  -5  -1   2   43.10    3.80
   4   1  -2   16.90    2.10
   4   1  -2   14.40    1.40
   4   1  -2   15.50    0.90
  -4  -1   2   13.80    1.20
  -4  -1   2    8.50    1.70
   3   1  -2  949.60   50.09
   3   1  -2  877.61   50.49
  -3  -1   2  923.31   50.79
  -3  -1   2  892.21   50.09
   2   1  -2   10.60    0.90
   2   1  -2   12.50    1.20
  -2  -1   2   13.30    0.70
  -2  -1   2   10.90    1.00
  -2  -1   2   11.00    0.70
   1   1  -2   88.29    5.00
   1   1  -2   69.69    4.60
  -1  -1   2   92.19    4.70
  -1  -1   2   82.69    4.80
   0   1  -2  921.51   57.99
   0   1  -2 1096.09   57.89
   0  -1   2 1094.49   57.99
   0  -1   2 1115.19   57.99
   0  -1   2 1069.29   57.99
  -1   1  -2    3.40    0.40
  -1   1  -2    3.30    0.40
  -1   1  -2    3.50    0.60
   1  -1   2    2.80    0.40
   1  -1   2    3.20    0.50
  -2   1  -2  803.62   41.10
  -2   1  -2  742.43   41.40
  -2   1  -2  718.43   41.50
   2  -1   2  752.12   41.40
   2  -1   2  731.73   41.20
  -3   1  -2  495.85   25.90
  -3   1  -2  462.95   26.60
   3  -1   2  475.35   26.40
   3  -1   2  451.25   26.30
  -4   1  -2  331.07   19.60
  -4   1  -2  371.46   20.60
   4  -1   2  359.66   20.10
   4  -1   2  368.16   20.20
  -5   1  -2    0.90    0.80
   5  -1   2    0.80    0.40
   5  -1   2    0.80    0.50
  -6   1  -2    3.20    1.20
   6  -1   2    3.80    1.00
   6  -1   2    3.30    0.90
  -7   1  -2   32.90    3.30
  -7   1  -2   35.60    3.70
   7  -1   2   37.80    3.20
  -8   1  -2    0.60    1.20
  -8   1  -2   -0.50    0.70
   8  -1   2    2.20    1.10
  -9   1  -2    2.60    1.70
  -9   1  -2    6.40    1.90
   9  -1   2   10.80    2.00
   9   0  -2   17.30    2.60
  -9   0   2   14.90    3.20
   8   0  -2    8.40    1.60
  -8   0   2    6.60    2.00
   7   0  -2  156.18   10.20
  -7   0   2  167.48    9.70
  -7   0   2  170.58   11.20
   6   0  -2   50.19    3.60
  -6   0   2   42.20    4.10
  -6   0   2   47.40    3.20
   5   0  -2  118.69    6.90
   5   0  -2  121.99    7.40
  -5   0   2  121.79    8.10
  -5   0   2  122.19    7.10
   4   0  -2  119.99    6.50
   4   0  -2  108.59    6.90
  -4   0   2  116.19    7.50
  -4   0   2  115.69    6.80
   3   0  -2  800.22   45.00
   3   0  -2  840.02   44.70
   3   0  -2  788.32   44.30
  -3   0   2  833.72   44.60
  -3   0   2  793.82   45.10
   2   0  -2   37.00    2.50
   2   0  -2   41.80    2.40
  -2   0   2   39.10    2.20
  -2   0   2   33.40    2.60
  -2   0   2   36.80    2.40
   1   0  -2 1902.21  103.09
   1   0  -2 1903.91  102.99
  -1   0   2 1782.92  102.59
  -1   0   2 1930.51  102.89
   0   0  -2  184.98   10.50
   0   0  -2  195.68   10.50
   0   0   2  198.38   10.50
   0   0   2  182.08   10.50
   0   0   2  184.48   10.60
  -1   0  -2    1.20    0.30
  -1   0  -2    1.60    0.40
   1   0   2    1.50    0.40
   1   0   2    0.90    0.20
   1   0   2    1.50    0.30
  -2   0  -2 1965.20  121.99
  -2   0  -2 2291.37  122.09
   2   0   2 2359.26  121.89
   2   0   2 2299.57  121.99
  -3   0  -2  559.94   33.50
  -3   0  -2  645.04   33.80
   3   0   2  596.64   33.40
   3   0   2  606.14   33.40
  -4   0  -2   16.00    2.00
   4   0   2   13.70    1.60
   4   0   2   12.50    1.60
  -5   0  -2    1.00    0.80
   5   0   2    1.90    0.70
   5   0   2    1.40    0.70
  -6   0  -2   27.60    3.40
   6   0   2   26.80    2.50
   6   0   2   26.00    2.40
  -7   0  -2   29.50    3.20
  -7   0  -2   32.60    4.10
   7   0   2   39.30    3.20
  -8   0  -2   51.69    4.90
  -8   0  -2   47.20    4.50
   8   0   2   47.70    4.10
  -9   0  -2    1.50    1.20
 -10   1   2    2.20    1.70
   9  -1  -2   40.50    3.70
  -9   1   2   32.90    4.50
   8  -1  -2   26.00    3.00
  -8   1   2   26.50    3.70
   7  -1  -2  346.07   20.60
  -7   1   2  354.26   21.40
  -7   1   2  364.36   20.20
   6  -1  -2   44.70    3.40
  -6   1   2   43.40    3.00
  -6   1   2   42.90    3.90
   5  -1  -2  400.66   21.50
   5  -1  -2  374.86   21.90
  -5   1   2  403.06   21.70
  -5   1   2  366.46   22.40
   4  -1  -2  361.56   18.80
   4  -1  -2  335.77   19.00
  -4   1   2  329.17   18.90
  -4   1   2  322.07   19.50
   3  -1  -2   67.49    3.90
   3  -1  -2   67.29    4.00
  -3   1   2   64.89    4.30
  -3   1   2   63.09    3.90
  -3   1   2   63.59    4.00
   2  -1  -2  171.78    9.60
   2  -1  -2  179.78    9.70
  -2   1   2  174.08    9.80
  -2   1   2  167.68    9.60
  -2   1   2  158.38    9.60
   1  -1  -2    4.00    0.40
   1  -1  -2    3.40    0.40
  -1   1   2    3.50    0.50
  -1   1   2    4.10    0.50
   0  -1  -2 1749.92  101.19
   0  -1  -2 1818.42  100.89
   0   1   2 1917.01  100.89
   0   1   2 1844.02  100.99
   0   1   2 1884.21  100.89
  -1  -1  -2  369.36   18.40
  -1  -1  -2  333.37   18.40
   1   1   2  277.57   18.20
   1   1   2  331.77   18.00
   1   1   2  330.57   18.40
  -2  -1  -2 1429.56   81.19
  -2  -1  -2 1568.94   81.29
   2   1   2 1522.95   81.09
   2   1   2 1388.36   80.89
  -3  -1  -2   95.29    6.20
  -3  -1  -2   91.19    6.10
   3   1   2   99.79    5.90
   3   1   2   96.89    6.00
  -4  -1  -2   29.40    2.70
  -4  -1  -2   32.80    2.80
   4   1   2   30.60    2.40
   4   1   2   29.30    2.50
  -5  -1  -2   21.80    2.90
  -5  -1  -2   22.60    2.40
   5   1   2   26.70    2.30
   5   1   2   22.50    2.10
  -6  -1  -2   58.89    4.80
  -6  -1  -2   45.30    4.30
   6   1   2   66.49    4.30
   6   1   2   51.99    4.10
  -7  -1  -2    0.00    0.90
  -7  -1  -2    0.50    0.80
   7   1   2   -0.30    0.50
  -8  -1  -2   29.60    4.10
  -8  -1  -2   21.50    3.40
   8   1   2   23.50    3.10
 -10   2   2    9.40    2.50
   9  -2  -2   -0.30    0.70
  -9   2   2    0.40    1.10
   8  -2  -2    1.70    0.80
  -8   2   2    2.90    1.30
   7  -2  -2  504.85   29.40
  -7   2   2  533.05   29.00
  -7   2   2  508.35   30.00
   6  -2  -2  124.39    8.10
  -6   2   2  134.29    7.80
  -6   2   2  132.69    8.60
   5  -2  -2    1.90    0.60
   5  -2  -2    2.10    0.50
  -5   2   2    1.80    0.80
  -5   2   2    1.70    0.50
   4  -2  -2   10.10    1.20
   4  -2  -2   10.10    1.10
  -4   2   2    8.90    1.40
  -4   2   2    9.50    1.10
   3  -2  -2   30.70    2.10
   3  -2  -2   29.30    2.20
  -3   2   2   30.90    2.20
  -3   2   2   33.90    2.30
  -3   2   2   33.60    2.20
  -2   2   2 4892.61  306.57
  -2   2   2 5763.82  306.47
  -2   2   2 6159.48  306.77
   1  -2  -2 2939.11  162.78
   1  -2  -2 3210.38  163.08
  -1   2   2 2794.32  162.38
  -1   2   2 2940.41  162.58
   0  -2  -2  125.89    8.00
   0  -2  -2  141.59    8.20
   0   2   2  141.99    8.00
   0   2   2  146.99    8.30
   0   2   2  155.68    8.10
  -1  -2  -2  264.77   15.70
  -1  -2  -2  302.37   15.90
   1   2   2  258.57   15.80
   1   2   2  292.57   15.40
   1   2   2  273.97   15.60
  -2  -2  -2 1073.49   54.19
  -2  -2  -2  904.71   54.09
   2   2   2  975.30   53.39
   2   2   2  954.20   53.89
   2   2   2  984.70   54.09
  -3  -2  -2   13.50    1.80
  -3  -2  -2   12.40    1.80
  -3  -2  -2   13.70    0.80
   3   2   2   12.70    1.60
   3   2   2   12.60    1.50
  -4  -2  -2  169.68   11.20
  -4  -2  -2  175.88   11.10
   4   2   2  193.08   10.80
   4   2   2  184.18   10.90
  -5  -2  -2   22.10    3.10
  -5  -2  -2   26.70    2.70
   5   2   2   22.10    2.50
   5   2   2   21.60    2.50
  -6  -2  -2   27.90    3.50
  -6  -2  -2   22.30    3.10
   6   2   2   22.10    2.60
  -7  -2  -2  198.48   13.20
  -7  -2  -2  189.88   12.90
   7   2   2  207.68   12.50
  -8  -2  -2    0.60    1.10
  -8  -2  -2    1.60    1.50
   8   2   2    0.60    1.00
 -10   3   2    2.20    1.70
   9  -3  -2   59.59    4.90
  -9   3   2   59.39    5.40
   8  -3  -2   79.99    5.90
  -8   3   2   80.59    6.30
  -8   3   2   84.69    5.50
   7  -3  -2  147.19    9.00
  -7   3   2  132.19    9.30
  -7   3   2  145.99    8.70
   6  -3  -2  352.56   19.80
   6  -3  -2  340.57   20.00
  -6   3   2  346.17   19.80
  -6   3   2  356.66   20.40
   5  -3  -2  224.78   13.10
   5  -3  -2  227.98   13.20
  -5   3   2  223.68   13.50
  -5   3   2  233.48   13.10
   4  -3  -2  112.79    6.80
   4  -3  -2  110.19    6.80
  -4   3   2  110.49    6.90
  -4   3   2  118.39    6.80
   3  -3  -2  385.56   22.10
   3  -3  -2  391.16   21.80
  -3   3   2  392.96   21.90
  -3   3   2  395.26   21.90
  -3   3   2  395.96   22.10
   2  -3  -2  321.87   17.90
  -2   3   2  322.57   17.80
  -2   3   2  329.17   18.30
  -2   3   2  317.47   18.10
   1  -3  -2   22.80    1.60
   1  -3  -2   25.90    1.70
  -1   3   2   24.70    1.90
  -1   3   2   19.90    1.60
   0  -3  -2  289.37   15.80
   0  -3  -2  282.57   16.00
   0   3   2  293.57   15.80
   0   3   2  282.07   15.90
   0   3   2  262.87   16.10
  -1  -3  -2   11.10    1.00
  -1  -3  -2    7.80    1.10
  -1  -3  -2   10.50    1.10
   1   3   2    9.30    0.80
   1   3   2   13.10    1.50
   1   3   2    9.00    1.10
  -2  -3  -2    8.90    1.30
  -2  -3  -2    9.20    1.40
   2   3   2    9.20    1.30
   2   3   2    8.20    1.10
   2   3   2    7.90    0.70
  -3  -3  -2   47.80    3.70
   3   3   2   51.09    3.60
   3   3   2   47.60    3.40
  -4  -3  -2  212.48   13.20
  -4  -3  -2  200.38   13.00
   4   3   2  219.78   12.70
   4   3   2  221.48   12.80
  -5  -3  -2   12.80    2.30
  -5  -3  -2    8.70    1.90
   5   3   2   15.30    2.00
   5   3   2   17.40    2.10
  -6  -3  -2   18.70    2.80
  -6  -3  -2   14.50    2.60
   6   3   2   20.20    2.50
  -7  -3  -2   38.40    4.10
  -7  -3  -2   45.20    4.60
   7   3   2   46.60    4.00
  -8  -3  -2   42.60    5.40
 -10   4   2   12.60    2.70
   9  -4  -2   -0.10    0.80
  -9   4   2   -0.30    1.00
   8  -4  -2   91.39    6.20
  -8   4   2   85.89    6.50
  -8   4   2   85.19    5.80
   7  -4  -2  122.89    7.80
  -7   4   2  119.49    8.10
  -7   4   2  117.99    7.50
   6  -4  -2   30.90    2.60
   6  -4  -2   29.10    2.60
  -6   4   2   34.20    2.90
  -6   4   2   34.50    2.60
   5  -4  -2    0.20    0.40
   5  -4  -2    0.30    0.40
  -5   4   2    0.70    0.50
  -5   4   2    0.20    0.50
   4  -4  -2   75.99    5.00
   4  -4  -2   72.69    4.70
  -4   4   2   75.69    5.00
  -4   4   2   74.39    4.80
  -4   4   2   80.49    4.90
   3  -4  -2  442.06   24.70
   3  -4  -2  450.45   24.30
  -3   4   2  439.06   24.50
  -3   4   2  442.16   24.80
  -3   4   2  412.86   24.20
   2  -4  -2 4642.94  237.48
  -2   4   2 4164.58  237.28
  -2   4   2 4202.78  237.18
   1  -4  -2    0.70    0.20
   1  -4  -2    0.20    0.30
   1  -4  -2    2.70    0.60
  -1   4   2    1.50    0.40
  -1   4   2    0.10    0.40
  -1   4   2    0.60    0.20
   0  -4  -2  104.09    5.90
   0  -4  -2   82.59    5.50
   0  -4  -2   99.49    5.60
   0   4   2   88.29    5.60
   0   4   2   95.29    5.70
   0   4   2  101.49    6.10
  -1  -4  -2  178.68    9.50
  -1  -4  -2  156.98    9.20
  -1  -4  -2  154.58    9.50
   1   4   2  146.49    9.50
   1   4   2  162.28    9.10
   1   4   2  149.69    9.20
  -2  -4  -2   18.40    2.20
  -2  -4  -2   19.70    2.00
   2   4   2   19.40    2.20
   2   4   2   23.10    1.50
   2   4   2   18.30    1.70
  -3  -4  -2  166.58   12.10
  -3  -4  -2  205.68   12.40
   3   4   2  214.08   12.20
   3   4   2  218.68   12.00
  -4  -4  -2  302.37   18.60
  -4  -4  -2  335.47   18.80
   4   4   2  322.17   18.30
   4   4   2  290.97   18.00
  -5  -4  -2    0.00    0.80
  -5  -4  -2    0.50    0.70
   5   4   2    0.50    0.60
   5   4   2    0.70    0.70
  -6  -4  -2   36.50    3.90
  -6  -4  -2   40.10    4.70
   6   4   2   40.80    3.50
  -7  -4  -2   47.10    5.50
  -7  -4  -2   41.90    4.50
   7   4   2   46.80    4.10
   9  -5  -2    1.00    1.10
  -9   5   2    0.10    0.90
   8  -5  -2   27.10    3.30
  -8   5   2   35.20    3.50
  -8   5   2   39.20    3.10
   7  -5  -2   36.80    3.10
  -7   5   2   33.30    2.90
  -7   5   2   35.90    3.20
   6  -5  -2    4.70    1.20
   6  -5  -2    9.50    1.50
  -6   5   2    6.40    1.20
  -6   5   2    7.30    1.40
   5  -5  -2   22.50    2.20
   5  -5  -2   21.70    2.00
  -5   5   2   25.50    2.10
  -5   5   2   19.30    1.90
   4  -5  -2   22.60    2.20
   4  -5  -2   24.40    1.90
  -4   5   2   22.20    2.20
  -4   5   2   20.70    1.90
  -4   5   2   22.50    1.80
   3  -5  -2   89.89    5.30
   3  -5  -2   90.09    5.80
  -3   5   2   88.19    5.50
  -3   5   2   80.69    5.10
  -3   5   2   87.29    5.80
   2  -5  -2  159.68    9.20
  -2   5   2  154.18    9.80
  -2   5   2  153.88    9.40
  -2   5   2  165.98    9.10
   1  -5  -2   42.10    2.80
   1  -5  -2   50.09    3.00
   1  -5  -2   43.10    2.70
  -1   5   2   43.30    3.00
  -1   5   2   38.00    2.70
  -1   5   2   48.30    3.50
   0  -5  -2  116.39    8.10
   0  -5  -2  143.89    8.40
   0  -5  -2  151.18    8.20
   0   5   2  137.09    8.70
   0   5   2  152.78    8.30
  -1  -5  -2   71.69    5.00
  -1  -5  -2   80.39    5.20
  -1  -5  -2   76.69    4.80
   1   5   2   75.29    4.80
   1   5   2   78.99    5.40
   1   5   2   80.09    5.00
  -2  -5  -2   15.00    2.00
  -2  -5  -2   16.90    1.50
  -2  -5  -2   16.90    2.10
   2   5   2   14.20    1.70
   2   5   2   14.40    1.30
   2   5   2   17.30    2.20
  -3  -5  -2  817.72   46.80
  -3  -5  -2  826.42   46.20
  -3  -5  -2  812.62   46.80
   3   5   2  872.41   46.40
   3   5   2  824.02   46.70
  -4  -5  -2    1.50    1.00
  -4  -5  -2    2.70    1.20
   4   5   2    3.20    1.00
   4   5   2    5.00    1.40
  -5  -5  -2   59.69    5.30
  -5  -5  -2   64.59    5.30
   5   5   2   61.39    4.70
   5   5   2   60.99    4.90
  -6  -5  -2    4.10    1.80
  -6  -5  -2    8.20    1.90
   6   5   2    7.90    1.70
   9  -6  -2   46.50    4.20
  -9   6   2   48.20    3.90
   8  -6  -2   15.40    2.30
  -8   6   2   12.80    2.00
   7  -6  -2    1.30    0.80
  -7   6   2    0.20    0.60
   6  -6  -2   16.00    2.00
   6  -6  -2   19.80    2.50
  -6   6   2   19.80    2.30
   5  -6  -2   38.60    3.00
   5  -6  -2   42.00    3.40
  -5   6   2   38.70    3.10
   4  -6  -2    3.00    1.00
   4  -6  -2    1.80    0.70
  -4   6   2    1.80    0.90
  -4   6   2    3.70    0.90
   3  -6  -2  442.26   24.90
   3  -6  -2  459.55   25.70
  -3   6   2  433.46   25.20
  -3   6   2  446.66   25.70
   2  -6  -2  259.37   15.30
  -2   6   2  278.77   16.20
  -2   6   2  274.17   15.60
   1  -6  -2   61.99    4.10
   1  -6  -2   65.29    4.30
  -1   6   2   67.89    5.00
  -1   6   2   70.39    4.40
   0  -6  -2   22.20    2.00
   0  -6  -2   23.10    1.80
   0   6   2   21.80    2.70
   0   6   2   19.30    1.80
  -1  -6  -2    0.40    0.40
  -1  -6  -2    0.10    0.40
   1   6   2    0.80    0.70
   1   6   2   -0.20    0.40
   1   6   2    0.00    0.40
  -2  -6  -2    2.50    0.90
  -2  -6  -2    2.80    0.80
   2   6   2    0.50    0.60
   2   6   2    1.50    0.90
  -3  -6  -2  346.57   19.80
  -3  -6  -2  314.67   19.00
   3   6   2  332.67   19.20
   3   6   2  331.77   19.70
  -4  -6  -2   49.30    4.40
  -4  -6  -2   48.30    3.80
   4   6   2   54.99    4.10
   4   6   2   49.50    4.30
  -5  -6  -2    2.90    1.30
   5   6   2    5.60    1.40
  -6  -6  -2    0.90    1.10
   6   6   2    1.30    1.10
   9  -7  -2    3.40    1.40
  -9   7   2    2.20    1.20
   8  -7  -2    4.30    1.30
  -8   7   2    5.80    1.40
   7  -7  -2    7.60    1.60
  -7   7   2    7.10    1.50
   6  -7  -2  101.59    7.00
   6  -7  -2   94.19    6.50
  -6   7   2  104.19    6.70
   5  -7  -2   31.70    2.70
   5  -7  -2   32.60    3.10
  -5   7   2   34.10    2.80
   4  -7  -2  229.98   14.60
   4  -7  -2  249.88   13.90
  -4   7   2  239.08   14.20
  -4   7   2  237.38   14.70
   3  -7  -2   99.89    6.50
   3  -7  -2  105.69    7.30
  -3   7   2  100.59    7.30
  -3   7   2  118.19    6.90
   2  -7  -2   69.69    4.50
   2  -7  -2   66.59    5.30
  -2   7   2   76.89    5.50
  -2   7   2   72.09    4.80
   1  -7  -2   41.90    3.10
   1  -7  -2   42.30    2.90
  -1   7   2   43.90    3.20
  -1   7   2   36.60    3.60
   0  -7  -2    2.70    0.70
   0  -7  -2    3.90    0.90
   0   7   2    4.80    1.40
   0   7   2    3.30    0.80
  -1  -7  -2   11.20    1.50
  -1  -7  -2   13.30    1.90
   1   7   2   14.00    2.30
   1   7   2   10.90    1.50
   1   7   2   11.40    1.60
  -2  -7  -2  126.79    7.30
  -2  -7  -2  105.99    7.60
   2   7   2  107.69    7.30
   2   7   2  124.49    8.10
  -3  -7  -2  230.18   13.30
  -3  -7  -2  212.48   12.50
   3   7   2  192.08   13.10
   3   7   2  197.48   12.60
  -4  -7  -2   10.50    2.10
  -4  -7  -2    8.50    1.60
   4   7   2    6.60    1.50
   4   7   2    7.40    1.90
  -5  -7  -2    3.80    1.20
  -5  -7  -2    5.30    1.70
   5   7   2    3.80    1.40
   8  -8  -2    3.80    1.30
  -8   8   2    3.00    1.30
   7  -8  -2    4.00    1.20
   7  -8  -2    8.10    2.30
  -7   8   2    6.70    1.60
   6  -8  -2   16.70    2.60
   6  -8  -2   16.30    2.10
  -6   8   2   13.40    2.20
   5  -8  -2   15.50    2.00
   5  -8  -2   15.30    2.60
  -5   8   2   16.20    2.20
   4  -8  -2   -1.00    0.70
   4  -8  -2   -0.10    0.50
  -4   8   2   -0.20    0.70
  -4   8   2    0.50    0.70
   3  -8  -2   29.00    3.60
   3  -8  -2   30.00    2.50
  -3   8   2   33.40    2.80
  -3   8   2   31.50    3.90
   2  -8  -2   36.80    3.70
   2  -8  -2   40.90    2.90
  -2   8   2   45.80    4.00
  -2   8   2   36.40    3.20
   1  -8  -2  335.07   20.70
   1  -8  -2  399.06   21.00
  -1   8   2  366.16   21.90
  -1   8   2  362.36   21.10
   0  -8  -2   30.90    2.50
   0  -8  -2   33.80    2.80
   0   8   2   29.20    3.70
   0   8   2   34.40    2.80
  -1  -8  -2   11.00    1.80
  -1  -8  -2    7.70    1.30
   1   8   2   11.60    2.30
  -2  -8  -2  120.09    7.50
  -2  -8  -2  108.39    6.80
   2   8   2  102.39    7.70
   2   8   2   89.19    6.80
  -3  -8  -2    0.60    0.70
  -3  -8  -2    0.50    0.80
   3   8   2    1.60    1.20
   3   8   2   -0.20    0.70
  -4  -8  -2    4.50    1.60
  -4  -8  -2    2.20    1.00
   4   8   2    4.40    1.40
   4   8   2    4.00    2.40
   7  -9  -2   53.29    4.20
   7  -9  -2   49.60    4.70
  -7   9   2   45.20    4.20
   6  -9  -2    5.20    1.70
   6  -9  -2    4.20    1.20
  -6   9   2    4.70    1.40
   5  -9  -2   36.30    3.10
   5  -9  -2   37.80    4.40
  -5   9   2   37.00    3.40
   4  -9  -2   99.49    6.60
   4  -9  -2  102.99    7.70
  -4   9   2  102.39    7.70
  -4   9   2  106.59    7.10
   3  -9  -2   12.90    1.60
   3  -9  -2    7.10    1.90
  -3   9   2   11.70    2.40
  -3   9   2   10.00    1.80
   2  -9  -2   10.00    2.20
   2  -9  -2    8.30    1.30
  -2   9   2   11.00    2.40
  -2   9   2   12.10    1.90
   1  -9  -2    8.40    1.30
   1  -9  -2   11.80    2.40
  -1   9   2    8.00    2.10
  -1   9   2    9.10    1.60
   0  -9  -2    1.30    1.20
   0  -9  -2    2.40    0.80
   0   9   2    1.70    1.20
   0   9   2    1.60    0.90
  -1  -9  -2   -0.80    0.40
   1   9   2   -0.40    1.10
  -2  -9  -2   57.69    4.30
  -2  -9  -2   57.79    4.80
   2   9   2   58.79    5.40
  -3  -9  -2    5.50    1.30
  -3  -9  -2    7.90    1.80
   3   9   2    5.00    1.50
   3   9   2    4.90    2.00
   7 -10  -2    5.20    1.50
   7 -10  -2    0.80    1.50
   6 -10  -2    2.10    1.60
   6 -10  -2    1.10    1.00
  -6  10   2    2.20    1.40
   5 -10  -2    5.80    2.00
   5 -10  -2    8.10    1.50
  -5  10   2    5.50    1.60
   4 -10  -2   -1.10    0.90
   4 -10  -2    1.10    0.70
  -4  10   2    1.90    1.40
  -4  10   2   -0.20    0.60
   3 -10  -2    0.70    0.80
   3 -10  -2   -0.30    1.00
  -3  10   2    1.30    0.90
  -3  10   2    0.40    1.30
   2 -10  -2   50.89    3.90
   2 -10  -2   59.69    5.30
  -2  10   2   55.09    4.40
  -2  10   2   57.99    5.30
   1 -10  -2   89.29    5.70
   1 -10  -2   76.29    6.80
  -1  10   2   89.29    6.10
  -1  10   2   88.59    7.20
   0 -10  -2    4.80    1.80
   0 -10  -2    4.60    1.10
   0  10   2    5.90    2.00
  -1 -10  -2   51.39    5.00
  -1 -10  -2   53.59    3.90
   1  10   2   42.20    5.30
  -2 -10  -2   -0.50    0.70
   5 -11  -2   28.80    3.20
   4 -11  -2    5.70    1.40
   3 -11  -2   -0.70    0.60
  -3  11   2    0.30    1.00
   2 -11  -2    0.00    0.80
  -2  11   2    0.40    0.80
   1 -11  -2    4.00    1.10
  -1  11   2    3.90    1.40
   0 -11  -2    0.60    0.90
   0 -12   3    7.70    2.20
   1 -12   3   65.39    5.90
   2  11  -3   39.80    3.70
  -2 -11   3   40.60    4.60
  -2 -11   3   41.70    4.00
   1  11  -3   35.60    3.40
  -1 -11   3   36.20    4.10
  -1 -11   3   36.60    4.40
   0  11  -3   41.90    3.80
   0 -11   3   45.90    4.40
  -1  11  -3   35.30    3.40
   1 -11   3   41.50    4.60
  -2  11  -3    0.50    0.90
   2 -11   3    1.60    1.30
  -3  11  -3   12.00    2.20
   3 -11   3   15.80    2.80
  -4  11  -3   56.89    4.60
   4 -11   3   53.49    5.10
  -5  11  -3   25.50    3.20
   5 -11   3   23.70    3.70
   3  10  -3    9.10    1.70
  -3 -10   3   12.50    2.20
   2  10  -3   20.20    2.50
  -2 -10   3   21.50    2.90
  -2 -10   3   17.70    2.70
   1  10  -3    1.40    0.90
  -1 -10   3    4.40    1.50
   0  10  -3  241.48   14.60
   0 -10   3  241.78   15.10
  -1  10  -3   18.30    2.40
   1 -10   3   13.40    2.40
  -2  10  -3    1.40    0.90
   2 -10   3    1.30    1.00
  -3  10  -3   14.20    2.20
   3 -10   3   15.30    2.70
  -4  10  -3    9.50    1.90
   4 -10   3   11.30    2.30
  -5  10  -3   19.10    2.70
   5 -10   3   30.00    3.80
  -6  10  -3   12.60    2.10
   6 -10   3   14.80    2.90
  -7  10  -3   28.00    3.30
   5   9  -3    1.50    1.50
  -5  -9   3    4.70    2.20
   4   9  -3   18.00    3.30
  -4  -9   3   20.80    3.80
   3   9  -3   83.89    6.00
   3   9  -3   83.79    6.80
  -3  -9   3   90.49    7.50
  -3  -9   3   91.59    6.30
   2   9  -3   61.09    4.90
   2   9  -3   70.89    5.80
  -2  -9   3   72.39    5.20
  -2  -9   3   75.19    5.40
   1   9  -3   19.00    2.40
   1   9  -3   26.90    3.40
  -1  -9   3   21.70    2.90
   0   9  -3   79.99    5.90
   0   9  -3   69.19    5.20
   0  -9   3   77.29    5.70
  -1   9  -3   37.90    3.20
  -1   9  -3   37.10    3.60
   1  -9   3   40.50    3.60
  -2   9  -3   16.50    2.50
  -2   9  -3   14.10    2.00
   2  -9   3   16.10    2.50
  -3   9  -3    6.40    1.40
  -3   9  -3    6.90    1.70
   3  -9   3    5.50    1.50
  -4   9  -3   48.50    3.90
  -4   9  -3   52.89    4.30
   4  -9   3   45.20    4.30
  -5   9  -3  524.35   30.80
  -5   9  -3  517.35   30.20
   5  -9   3  544.65   31.00
  -6   9  -3   69.29    5.20
  -6   9  -3   76.99    6.00
   6  -9   3   70.29    5.90
  -7   9  -3    4.90    1.80
   7  -9   3    3.60    1.60
  -6  -8   3    5.60    2.50
  -6  -8   3    4.60    1.80
   5   8  -3   28.80    4.10
  -5  -8   3   22.10    4.00
  -5  -8   3   25.20    3.40
   4   8  -3   39.50    4.10
  -4  -8   3   35.00    5.00
  -4  -8   3   40.40    3.40
   3   8  -3   63.19    5.40
   3   8  -3   62.39    4.60
   3   8  -3   63.09    4.90
  -3  -8   3   64.59    4.80
  -3  -8   3   65.79    4.80
  -3  -8   3   74.09    6.00
  -3  -8   3   60.09    4.80
   2   8  -3   99.09    6.70
   2   8  -3   96.29    7.30
  -2  -8   3  119.49    7.00
  -2  -8   3   98.79    6.90
   1   8  -3   23.60    2.40
   1   8  -3   26.10    3.20
  -1  -8   3   30.80    2.80
   0   8  -3   12.30    2.10
   0   8  -3   13.50    1.80
   0  -8   3   10.20    1.80
  -1   8  -3   63.79    4.60
  -1   8  -3   71.29    5.10
   1  -8   3   59.99    4.80
  -2   8  -3   64.29    4.90
  -2   8  -3   80.39    5.50
   2  -8   3   76.09    5.50
  -3   8  -3   40.10    3.30
  -3   8  -3   39.20    3.50
   3  -8   3   45.00    3.80
  -4   8  -3   26.10    2.50
  -4   8  -3   27.60    2.90
   4  -8   3   33.70    3.20
  -5   8  -3  128.89    8.10
  -5   8  -3  128.49    8.70
   5  -8   3  122.89    8.70
  -6   8  -3   24.20    2.70
  -6   8  -3   23.40    3.30
   6  -8   3   24.30    3.30
  -7   8  -3  102.09    7.80
   7  -8   3  108.89    7.80
  -8   8  -3   43.80    4.60
   8  -8   3   47.80    5.90
   7   7  -3    2.40    1.20
  -7  -7   3    4.50    2.20
   6   7  -3    3.50    1.10
  -6  -7   3    7.20    2.40
   5   7  -3    8.00    2.10
   5   7  -3   10.20    1.50
  -5  -7   3    6.60    2.00
   4   7  -3  366.76   22.50
   4   7  -3  319.57   21.10
  -4  -7   3  453.95   23.60
  -4  -7   3  382.36   21.50
   3   7  -3    9.00    1.40
   3   7  -3    7.40    1.80
   3   7  -3    8.30    1.20
   3   7  -3    8.00    1.50
  -3  -7   3    7.80    1.40
  -3  -7   3    6.50    1.00
  -3  -7   3    6.90    1.30
   2   7  -3    0.60    0.40
   2   7  -3   -0.10    0.80
   2   7  -3    0.60    0.70
   2   7  -3    0.60    0.50
  -2  -7   3    1.60    0.70
  -2  -7   3    0.40    0.60
  -2  -7   3    0.70    0.40
   1   7  -3   37.40    3.50
   1   7  -3   39.30    3.10
  -1  -7   3   47.40    3.40
  -1  -7   3   43.10    2.70
  -1  -7   3   39.10    2.90
   0   7  -3   34.10    3.10
   0   7  -3   35.10    2.80
   0  -7   3   36.70    2.20
   0  -7   3   31.70    2.90
  -1   7  -3    0.90    0.70
  -1   7  -3    0.20    0.50
   1  -7   3   -0.10    0.20
   1  -7   3   -0.70    0.50
  -2   7  -3   22.90    2.50
  -2   7  -3   28.70    2.40
   2  -7   3   30.50    2.00
   2  -7   3   28.00    2.70
  -3   7  -3    1.80    0.90
  -3   7  -3    2.10    0.80
   3  -7   3    1.70    0.50
   3  -7   3    2.50    1.00
  -4   7  -3  138.89    8.40
  -4   7  -3  136.99    8.80
   4  -7   3  123.09    8.80
   4  -7   3  142.29    8.40
  -5   7  -3  661.13   37.70
  -5   7  -3  650.43   37.10
   5  -7   3  673.63   37.80
  -6   7  -3    2.40    0.90
  -6   7  -3    2.00    1.20
   6  -7   3    3.10    1.20
  -7   7  -3   17.20    2.80
   7  -7   3   19.00    2.80
  -8   7  -3    4.30    1.70
   8   6  -3   18.70    2.70
   7   6  -3    2.20    1.00
  -7  -6   3    3.40    2.00
   6   6  -3    2.30    1.40
   6   6  -3    2.90    1.00
  -6  -6   3    1.70    1.30
   5   6  -3   14.70    1.90
   5   6  -3   16.90    2.80
  -5  -6   3   13.70    2.80
  -5  -6   3   14.20    1.90
   4   6  -3  184.98   12.20
   4   6  -3  196.58   11.20
  -4  -6   3  180.68   12.60
   3   6  -3   46.20    3.30
   3   6  -3   49.20    3.40
   3   6  -3   47.40    4.10
   3   6  -3   45.90    3.60
  -3  -6   3   49.40    3.60
  -3  -6   3   52.49    3.60
   2   6  -3   98.59    6.50
   2   6  -3  105.59    6.30
   2   6  -3  108.09    6.00
   2   6  -3   95.99    6.80
  -2  -6   3   95.59    5.90
  -2  -6   3   92.09    6.30
  -2  -6   3  102.59    6.40
   1   6  -3    0.80    0.50
   1   6  -3    1.10    0.60
   1   6  -3    0.70    0.30
  -1  -6   3    0.60    0.50
  -1  -6   3    0.90    0.30
   0   6  -3  162.98   10.20
   0   6  -3  180.98   10.70
   0  -6   3  179.68   10.50
   0  -6   3  171.58    9.70
  -1   6  -3  439.26   24.20
  -1   6  -3  424.86   24.50
   1  -6   3  423.16   23.60
   1  -6   3  423.06   24.40
  -2   6  -3   36.30    2.90
  -2   6  -3   31.70    2.60
   2  -6   3   33.40    2.90
   2  -6   3   35.90    2.30
  -3   6  -3    0.50    0.40
  -3   6  -3   -0.20    0.50
   3  -6   3    0.00    0.30
   3  -6   3    0.80    0.70
  -4   6  -3   10.80    1.80
  -4   6  -3   10.40    1.40
   4  -6   3   11.40    1.80
   4  -6   3   12.70    1.40
  -5   6  -3   10.90    1.90
  -5   6  -3   10.30    1.50
   5  -6   3    9.60    1.40
   5  -6   3   13.00    2.00
  -6   6  -3   -0.10    0.50
  -6   6  -3    0.30    0.70
   6  -6   3   -0.10    0.50
   6  -6   3   -0.30    0.70
  -7   6  -3   29.60    3.80
   7  -6   3   34.30    3.30
   7  -6   3   34.00    3.00
  -8   6  -3   58.29    5.30
   8   5  -3    1.20    1.00
  -8  -5   3    1.60    1.70
   7   5  -3   52.99    4.40
  -7  -5   3   61.59    6.00
   6   5  -3   17.90    2.30
   6   5  -3   18.00    3.10
  -6  -5   3   18.60    3.40
   5   5  -3  174.98   11.50
   5   5  -3  173.68   10.40
  -5  -5   3  158.38   11.70
  -5  -5   3  178.68   10.40
   4   5  -3   36.30    2.70
   4   5  -3   34.20    3.40
  -4  -5   3   30.70    4.10
  -4  -5   3   41.00    2.90
   3   5  -3   32.30    2.40
   3   5  -3   28.20    2.10
   3   5  -3   26.30    2.70
   3   5  -3   24.70    2.10
  -3  -5   3   31.40    2.30
  -3  -5   3   26.90    2.30
   2   5  -3    7.80    1.10
   2   5  -3   10.20    1.60
   2   5  -3    9.10    0.90
  -2  -5   3    7.20    1.10
  -2  -5   3    7.40    1.20
   1   5  -3  421.06   24.10
   1   5  -3  436.46   24.60
   1   5  -3  436.66   25.00
  -1  -5   3  440.16   24.70
  -1  -5   3  453.05   24.10
  -1  -5   3  438.66   24.60
   0   5  -3  126.59    8.20
   0   5  -3  124.89    7.90
   0  -5   3  143.89    7.40
   0  -5   3  131.49    8.10
  -1   5  -3  157.58    9.40
  -1   5  -3  151.88    9.10
   1  -5   3  151.98    9.30
  -2   5  -3  152.98    9.50
  -2   5  -3  160.88    9.30
   2  -5   3  158.78    8.90
   2  -5   3  153.68    9.60
  -3   5  -3   88.19    5.60
  -3   5  -3   91.79    6.00
   3  -5   3   90.59    6.00
   3  -5   3   92.89    5.50
  -4   5  -3  322.17   18.50
  -4   5  -3  317.17   17.90
   4  -5   3  312.77   18.40
   4  -5   3  309.07   17.80
  -5   5  -3   68.99    4.40
  -5   5  -3   65.69    5.00
   5  -5   3   67.09    4.50
   5  -5   3   62.59    4.80
  -6   5  -3  153.98    9.80
   6  -5   3  144.99    9.00
   6  -5   3  139.49    9.40
  -7   5  -3   27.50    3.50
   7  -5   3   22.50    2.60
   7  -5   3   22.50    3.00
  -8   5  -3    0.00    1.00
   8  -5   3    0.40    0.80
   9  -5   3    1.20    1.10
   8   4  -3    0.10    0.80
  -8  -4   3    0.20    1.30
   7   4  -3   22.50    2.70
  -7  -4   3   24.80    4.00
   6   4  -3   31.70    4.10
   6   4  -3   34.10    2.90
  -6  -4   3   32.50    2.70
  -6  -4   3   35.10    4.60
   5   4  -3    7.50    1.80
   5   4  -3    8.40    1.30
  -5  -4   3    7.10    1.20
  -5  -4   3    6.30    1.80
   4   4  -3   62.69    4.50
   4   4  -3   49.20    3.60
   4   4  -3   44.70    3.50
  -4  -4   3   53.69    3.40
  -4  -4   3   51.09    4.60
  -4  -4   3   63.09    3.80
   3   4  -3    4.50    0.70
   3   4  -3    3.70    1.00
  -3  -4   3    4.40    0.90
  -3  -4   3    4.30    0.70
   2   4  -3  138.49    8.80
   2   4  -3  133.59    8.20
   2   4  -3  144.09    8.00
  -2  -4   3  140.79    8.40
  -2  -4   3  146.39    8.30
   1   4  -3  439.46   23.60
   1   4  -3  393.36   24.30
   1   4  -3  432.76   24.00
  -1  -4   3  424.26   24.00
  -1  -4   3  451.55   24.00
   0   4  -3    0.00    0.40
   0   4  -3    0.80    0.40
   0  -4   3    0.70    0.10
   0  -4   3    0.30    0.30
  -1   4  -3  399.06   23.20
  -1   4  -3  420.66   23.00
   1  -4   3  438.96   22.50
   1  -4   3  377.06   23.10
  -2   4  -3   32.20    2.10
  -2   4  -3   26.10    2.30
   2  -4   3   30.40    1.90
   2  -4   3   24.00    2.20
  -3   4  -3   24.00    1.60
  -3   4  -3   21.00    2.00
  -3   4  -3   22.20    1.80
   3  -4   3   22.80    1.70
   3  -4   3   24.20    2.10
  -4   4  -3   41.80    3.50
  -4   4  -3   45.90    3.00
  -4   4  -3   49.80    3.10
   4  -4   3   45.50    3.50
   4  -4   3   43.60    3.10
  -5   4  -3    6.60    1.50
  -5   4  -3    9.10    1.20
   5  -4   3    7.70    1.50
   5  -4   3    9.20    1.30
  -6   4  -3    8.70    1.80
   6  -4   3   12.20    1.90
   6  -4   3    9.60    1.50
  -7   4  -3   13.50    2.40
   7  -4   3   14.70    2.00
   7  -4   3   11.30    2.00
  -8   4  -3  167.28   11.50
   8  -4   3  170.88   10.80
   9  -4   3    0.00    0.80
   9   3  -3   12.20    2.20
  -9  -3   3    6.50    2.50
   8   3  -3   31.90    3.40
  -8  -3   3   26.00    4.30
   7   3  -3   -0.50    0.50
  -7  -3   3   -0.60    0.90
   6   3  -3   17.10    2.00
  -6  -3   3   15.70    1.80
  -6  -3   3   14.40    2.80
   5   3  -3    2.10    0.70
   5   3  -3    4.60    1.30
  -5  -3   3    2.30    1.10
  -5  -3   3    3.10    0.80
   4   3  -3   14.00    2.10
   4   3  -3   14.10    1.40
  -4  -3   3   15.70    1.50
  -4  -3   3   11.00    2.10
  -4  -3   3   18.10    1.20
   3   3  -3   14.80    2.00
   3   3  -3   19.80    1.50
  -3  -3   3   18.70    1.30
  -3  -3   3   17.00    1.50
   2   3  -3  399.16   24.10
   2   3  -3  419.86   23.70
   2   3  -3  447.46   23.50
  -2  -3   3  434.16   23.60
  -2  -3   3  424.66   23.80
   1   3  -3   45.60    2.80
   1   3  -3   49.60    3.40
   1   3  -3   54.19    3.20
  -1  -3   3   49.50    3.20
  -1  -3   3   48.30    3.10
   0   3  -3   57.39    3.70
   0   3  -3   59.99    4.00
   0  -3   3   57.99    3.80
   0  -3   3   66.79    3.90
  -1   3  -3   47.30    3.10
  -1   3  -3   41.80    2.80
   1  -3   3   45.10    2.50
   1  -3   3   35.70    2.90
  -2   3  -3   52.49    3.20
  -2   3  -3   54.79    3.80
  -2   3  -3   57.29    3.40
   2  -3   3   56.39    3.30
   2  -3   3   54.39    3.70
  -3   3  -3   76.69    4.50
  -3   3  -3   62.59    4.80
  -3   3  -3   76.09    4.50
   3  -3   3   76.39    4.90
   3  -3   3   73.89    4.50
  -4   3  -3   24.00    2.00
  -4   3  -3   22.10    1.70
  -4   3  -3   25.60    2.40
   4  -3   3   26.10    2.00
   4  -3   3   27.50    2.30
  -5   3  -3    3.30    1.10
  -5   3  -3    1.20    0.60
   5  -3   3    3.30    0.80
   5  -3   3    1.70    0.80
  -6   3  -3  195.48   11.60
  -6   3  -3  163.78   10.80
   6  -3   3  184.68   10.90
   6  -3   3  177.98   11.00
  -7   3  -3    0.10    0.80
   7  -3   3    0.40    0.80
   7  -3   3    0.80    0.80
  -8   3  -3    8.70    2.10
   8  -3   3    6.80    1.60
   9  -3   3    2.00    1.20
   9   2  -3   17.40    2.60
  -9  -2   3   14.70    3.40
   8   2  -3    1.50    1.00
  -8  -2   3    3.80    1.60
   7   2  -3    0.30    0.60
  -7  -2   3    1.00    1.10
   6   2  -3   -0.20    0.40
  -6  -2   3   -0.30    0.70
  -6  -2   3    0.50    0.50
   5   2  -3   30.90    2.60
   5   2  -3   37.90    3.30
  -5  -2   3   35.20    3.50
  -5  -2   3   35.10    2.50
   4   2  -3   23.00    1.70
   4   2  -3   16.90    2.20
  -4  -2   3   18.60    1.60
  -4  -2   3   14.40    2.30
   3   2  -3  516.95   27.90
   3   2  -3  493.65   28.40
  -3  -2   3  518.75   28.00
  -3  -2   3  483.95   27.50
   2   2  -3   49.50    3.00
   2   2  -3   45.20    3.40
  -2  -2   3   52.59    3.00
  -2  -2   3   47.70    3.20
   1   2  -3  977.00   54.49
   1   2  -3  937.31   53.99
  -1  -2   3 1020.30   54.19
  -1  -2   3 1020.20   54.29
   0   2  -3    6.10    0.90
   0   2  -3    5.20    0.30
   0   2  -3    3.80    0.60
   0   2  -3    5.50    0.30
   0  -2   3    4.70    0.70
   0  -2   3    6.10    0.70
  -1   2  -3    7.70    0.70
  -1   2  -3    7.30    1.00
  -1   2  -3    7.50    0.60
   1  -2   3    7.30    0.80
   1  -2   3    7.00    1.00
   1  -2   3    7.70    0.60
  -2   2  -3   68.59    4.30
  -2   2  -3   64.09    3.90
  -2   2  -3   64.49    4.00
   2  -2   3   63.69    3.90
   2  -2   3   66.29    4.20
  -3   2  -3   58.99    3.90
  -3   2  -3   62.49    4.20
  -3   2  -3   61.59    3.60
   3  -2   3   57.59    4.10
   3  -2   3   61.79    3.80
  -4   2  -3   46.10    2.50
  -4   2  -3   34.10    3.10
  -4   2  -3   34.40    2.90
   4  -2   3   39.00    3.00
   4  -2   3   41.80    2.90
  -5   2  -3   69.79    5.10
  -5   2  -3   64.59    4.70
   5  -2   3   72.09    4.80
   5  -2   3   70.39    4.70
  -6   2  -3   11.90    1.90
  -6   2  -3   13.60    2.30
   6  -2   3   11.90    1.80
   6  -2   3   17.00    2.10
  -7   2  -3    0.70    0.80
  -7   2  -3    2.30    1.20
   7  -2   3    2.50    0.90
   7  -2   3    1.40    1.10
  -8   2  -3   30.50    4.10
   8  -2   3   34.70    3.30
   9   1  -3    6.20    1.60
  -9  -1   3    5.50    2.10
   8   1  -3    5.40    1.50
  -8  -1   3    5.80    2.10
   7   1  -3    4.80    1.20
  -7  -1   3    3.80    0.90
  -7  -1   3    4.70    1.70
   6   1  -3   81.59    5.30
  -6  -1   3   81.49    6.30
  -6  -1   3   75.99    5.00
   5   1  -3    1.40    0.80
   5   1  -3    4.00    0.90
  -5  -1   3    2.50    1.10
  -5  -1   3    2.70    0.70
   4   1  -3  188.18   11.00
   4   1  -3  180.88   11.40
  -4  -1   3  195.38   11.80
  -4  -1   3  193.58   10.90
   3   1  -3  196.28   11.70
   3   1  -3  192.18   11.30
  -3  -1   3  202.38   11.40
  -3  -1   3  205.38   12.00
   2   1  -3  141.89    8.40
   2   1  -3  145.79    8.70
  -2  -1   3  155.48    8.60
  -2  -1   3  150.28    8.30
   1   1  -3  133.79    7.70
  -1  -1   3  125.89    7.50
  -1  -1   3  134.69    7.50
   0   1  -3  604.04   32.10
   0   1  -3  566.94   32.40
   0  -1   3  585.24   32.30
   0  -1   3  569.84   32.40
   0  -1   3  601.44   32.10
  -1   1  -3  132.39    7.70
  -1   1  -3  140.79    7.90
   1  -1   3  132.19    7.90
   1  -1   3  135.49    7.60
   1  -1   3  133.09    7.60
  -2   1  -3   79.29    5.20
  -2   1  -3   75.69    4.60
  -2   1  -3   86.09    5.00
   2  -1   3   84.39    4.90
   2  -1   3   85.29    4.70
   2  -1   3   83.99    5.20
  -3   1  -3  155.88    9.50
  -3   1  -3  158.18    9.70
  -3   1  -3  165.08    8.90
   3  -1   3  165.08    9.30
   3  -1   3  153.38    9.50
   3  -1   3  161.28    8.90
  -4   1  -3   73.79    5.40
  -4   1  -3   86.19    5.70
   4  -1   3   89.69    5.50
   4  -1   3   86.89    5.30
  -5   1  -3   -0.10    0.40
  -5   1  -3    0.70    0.60
   5  -1   3   -0.20    0.40
   5  -1   3    0.00    0.50
  -6   1  -3    1.70    0.90
  -6   1  -3    2.00    1.00
   6  -1   3    1.70    0.80
   6  -1   3    1.50    0.80
  -7   1  -3    0.00    0.60
  -7   1  -3    0.40    0.90
   7  -1   3    0.00    0.60
  -8   1  -3   33.30    4.30
  -8   1  -3   28.70    3.30
   8  -1   3   32.40    3.60
   9   0  -3   68.29    5.40
  -9   0   3   69.99    6.40
   8   0  -3    2.10    1.00
  -8   0   3    5.50    1.80
   7   0  -3    2.10    0.80
  -7   0   3    1.70    1.20
  -7   0   3    0.40    0.50
   6   0  -3  235.68   14.00
  -6   0   3  229.08   14.80
  -6   0   3  247.58   13.80
   5   0  -3    0.00    0.40
  -5   0   3    0.70    0.70
  -5   0   3   -0.30    0.20
   4   0  -3  544.45   29.80
   4   0  -3  526.85   30.20
  -4   0   3  534.55   29.70
  -4   0   3  533.65   30.40
   3   0  -3    2.00    0.60
   3   0  -3    1.70    0.40
  -3   0   3    0.80    0.50
  -3   0   3    3.40    0.60
  -3   0   3    1.90    0.30
   2   0  -3  823.52   43.60
   2   0  -3  766.82   43.80
  -2   0   3  780.02   43.70
  -2   0   3  804.62   43.50
   1   0  -3    4.70    0.40
   1   0  -3    4.70    0.70
  -1   0   3    6.20    0.70
  -1   0   3    5.70    0.70
   0   0  -3   84.59    4.80
   0   0  -3   89.19    4.80
   0   0  -3   76.29    4.60
   0   0   3   82.09    4.70
   0   0   3   73.99    4.70
   0   0   3   85.19    4.90
  -1   0  -3   27.40    1.90
  -1   0  -3   23.00    1.80
   1   0   3   24.60    1.70
   1   0   3   28.90    1.60
   1   0   3   26.00    2.00
  -2   0  -3   99.19    5.90
  -2   0  -3   85.29    5.80
   2   0   3   99.79    5.70
   2   0   3   97.19    5.90
  -3   0  -3  503.45   28.50
  -3   0  -3  516.25   28.60
   3   0   3  496.55   28.20
   3   0   3  508.75   28.50
  -4   0  -3   34.10    2.90
  -4   0  -3   34.70    3.00
   4   0   3   36.40    2.90
   4   0   3   38.20    2.80
  -5   0  -3    3.30    1.00
  -5   0  -3    2.70    1.00
   5   0   3    1.10    0.70
   5   0   3    2.90    0.90
  -6   0  -3    4.40    1.20
  -6   0  -3    1.60    1.10
   6   0   3    3.10    1.00
   6   0   3    0.80    0.70
  -7   0  -3    2.20    1.30
  -7   0  -3    4.80    1.40
   7   0   3    2.50    1.10
  -8   0  -3   34.60    3.70
  -8   0  -3   28.50    4.20
   8   0   3   31.70    3.70
  10  -1  -3   -0.80    1.00
 -10   1   3    0.10    1.40
   9  -1  -3    2.30    1.10
  -9   1   3    2.80    1.60
   8  -1  -3    5.80    1.40
  -8   1   3    9.50    1.40
  -8   1   3    5.60    1.80
   7  -1  -3  151.38    9.50
  -7   1   3  162.98   10.40
  -7   1   3  146.59    9.10
   6  -1  -3    7.90    1.30
  -6   1   3    7.40    1.70
  -6   1   3    7.20    1.10
   5  -1  -3    5.40    1.00
   5  -1  -3    7.30    0.70
  -5   1   3    7.30    1.50
  -5   1   3    8.00    1.10
   4  -1  -3 1298.17   82.79
   4  -1  -3 1583.64   83.09
  -4   1   3 1619.34   83.69
  -4   1   3 1563.74   83.09
   3  -1  -3  323.57   17.70
   3  -1  -3  317.27   17.90
  -3   1   3  326.37   17.60
  -3   1   3  302.67   17.70
  -3   1   3  312.27   18.00
   2  -1  -3  313.77   17.40
   2  -1  -3  313.37   17.30
  -2   1   3  304.87   17.50
  -2   1   3  311.87   17.40
  -2   1   3  314.17   17.40
   1  -1  -3  238.48   14.00
   1  -1  -3  254.37   14.00
  -1   1   3  247.98   14.00
  -1   1   3  266.77   14.20
   0  -1  -3   37.50    2.30
   0  -1  -3   37.30    2.40
   0  -1  -3   33.50    2.20
   0   1   3   34.70    2.50
   0   1   3   36.00    2.20
   0   1   3   36.40    2.30
  -1  -1  -3  595.64   32.00
   1   1   3  552.94   31.90
   1   1   3  597.04   31.60
   1   1   3  562.14   32.10
  -2  -1  -3  227.58   13.20
  -2  -1  -3  218.78   13.20
   2   1   3  231.08   13.00
   2   1   3  233.38   13.30
  -3  -1  -3  200.98   11.90
  -3  -1  -3  195.58   11.90
   3   1   3  202.88   11.60
   3   1   3  194.98   11.80
  -4  -1  -3    5.20    1.20
  -4  -1  -3    5.20    1.30
   4   1   3    4.80    1.10
   4   1   3    4.70    1.00
  -5  -1  -3    1.00    0.80
  -5  -1  -3    0.50    0.70
   5   1   3    0.60    0.60
   5   1   3    0.10    0.60
  -6  -1  -3    1.30    1.00
  -6  -1  -3    2.00    1.00
   6   1   3    1.80    0.90
   6   1   3    1.20    0.80
  -7  -1  -3   98.29    7.60
  -7  -1  -3   96.09    7.30
   7   1   3  101.49    6.90
  -8  -1  -3    3.80    1.50
  -8  -1  -3    0.50    1.20
   8   1   3    1.40    1.10
  10  -2  -3   43.30    5.50
 -10   2   3   50.19    5.10
   9  -2  -3    5.30    1.50
  -9   2   3    2.40    1.40
   8  -2  -3   60.19    4.80
  -8   2   3   65.99    4.50
  -8   2   3   64.59    5.40
   7  -2  -3    2.40    0.90
  -7   2   3    1.00    0.60
  -7   2   3    1.90    1.00
   6  -2  -3  281.37   15.90
  -6   2   3  263.37   15.60
  -6   2   3  273.67   16.40
   5  -2  -3   16.50    1.60
   5  -2  -3   17.80    1.50
  -5   2   3   21.30    2.10
  -5   2   3   22.80    1.80
   4  -2  -3    8.10    1.00
   4  -2  -3    7.00    1.00
  -4   2   3    8.60    1.10
  -4   2   3    8.20    1.30
  -4   2   3    7.70    1.00
   3  -2  -3  113.79    6.60
  -3   2   3  115.29    6.80
  -3   2   3  110.39    6.70
  -3   2   3  113.39    6.80
   2  -2  -3    7.80    0.70
  -2   2   3    6.90    0.70
  -2   2   3    6.60    0.90
  -2   2   3    6.60    0.90
   1  -2  -3   22.60    1.60
   1  -2  -3   21.00    1.50
  -1   2   3   19.20    1.50
  -1   2   3   21.20    1.70
   0  -2  -3    1.90    0.50
   0  -2  -3    1.80    0.30
   0  -2  -3    1.20    0.30
   0   2   3    2.00    0.50
   0   2   3    1.80    0.50
   0   2   3    3.60    0.50
  -1  -2  -3  670.63   39.10
  -1  -2  -3  740.23   39.20
   1   2   3  720.43   38.90
   1   2   3  713.13   39.50
   1   2   3  701.33   39.20
  -2  -2  -3    1.50    0.60
  -2  -2  -3    1.50    0.50
   2   2   3    1.60    0.50
   2   2   3    2.80    0.70
   2   2   3    1.50    0.20
  -3  -2  -3  219.58   13.10
  -3  -2  -3  232.28   13.10
   3   2   3  205.68   12.90
   3   2   3  218.88   12.80
  -4  -2  -3   11.60    1.90
  -4  -2  -3   20.50    2.50
   4   2   3   20.10    1.90
   4   2   3   19.80    2.30
  -5  -2  -3   12.20    2.10
  -5  -2  -3   11.50    2.00
   5   2   3   13.50    1.90
   5   2   3   11.30    1.80
  -6  -2  -3  130.19    9.60
  -6  -2  -3  151.58   10.00
   6   2   3  154.28    9.40
   6   2   3  147.19    9.80
  -7  -2  -3   78.79    6.00
  -7  -2  -3   56.09    5.30
   7   2   3   61.89    4.90
  -8  -2  -3    0.20    1.30
 -10   3   3   25.70    3.90
   9  -3  -3    4.70    1.50
  -9   3   3    3.60    1.60
   8  -3  -3  454.45   26.20
  -8   3   3  463.05   25.80
  -8   3   3  439.96   26.70
   7  -3  -3    6.90    1.40
  -7   3   3    6.90    1.20
  -7   3   3    8.10    1.80
   6  -3  -3    7.30    1.30
  -6   3   3    9.20    1.60
  -6   3   3   10.90    1.40
   5  -3  -3  140.09    8.40
   5  -3  -3  131.59    8.30
  -5   3   3  144.59    8.60
  -5   3   3  141.69    8.40
   4  -3  -3  119.19    7.20
   4  -3  -3  117.79    7.30
  -4   3   3  128.39    7.30
  -4   3   3  113.39    7.20
  -4   3   3  125.79    7.40
   3  -3  -3  330.27   17.00
  -3   3   3  260.17   16.80
  -3   3   3  308.97   17.10
  -3   3   3  317.27   17.30
   2  -3  -3  821.32   46.10
  -2   3   3  852.51   46.30
  -2   3   3  844.02   46.50
   1  -3  -3  217.78   11.00
   1  -3  -3  180.68   11.10
  -1   3   3  182.68   11.00
  -1   3   3  195.68   11.40
   0  -3  -3  189.38   11.80
   0  -3  -3  235.88   12.30
   0  -3  -3  205.08   12.00
   0   3   3  213.98   12.40
   0   3   3  215.18   12.10
   0   3   3  214.48   11.90
  -1  -3  -3  279.37   15.50
   1   3   3  259.37   14.90
   1   3   3  259.17   15.10
   1   3   3  270.07   15.50
  -2  -3  -3   55.79    3.60
  -2  -3  -3   53.59    3.70
   2   3   3   44.90    3.30
   2   3   3   46.40    3.60
   2   3   3   45.80    2.90
  -3  -3  -3   12.00    1.90
  -3  -3  -3   16.30    2.10
   3   3   3   14.30    2.00
   3   3   3   14.70    1.70
  -4  -3  -3   12.70    2.10
  -4  -3  -3   11.80    2.00
   4   3   3   12.90    1.90
   4   3   3   12.60    1.70
  -5  -3  -3    4.10    1.30
  -5  -3  -3    3.10    1.20
   5   3   3    3.50    1.10
   5   3   3    6.00    1.40
  -6  -3  -3  127.19    9.20
  -6  -3  -3  123.49    9.30
   6   3   3  150.48    8.90
  -7  -3  -3  207.08   13.70
  -7  -3  -3  216.18   14.00
   7   3   3  200.78   13.00
   9  -4  -3    0.30    0.90
  -9   4   3   -0.20    1.00
  -9   4   3    1.80    0.90
   8  -4  -3  261.47   16.50
  -8   4   3  288.07   16.30
  -8   4   3  277.97   16.90
   7  -4  -3    1.80    0.80
  -7   4   3    0.80    0.70
  -7   4   3    0.90    0.80
   6  -4  -3   93.59    6.10
   6  -4  -3  101.39    6.20
  -6   4   3   92.49    6.30
  -6   4   3   90.89    6.00
   5  -4  -3  132.09    8.20
   5  -4  -3  136.99    8.30
  -5   4   3  134.09    8.30
  -5   4   3  139.79    8.20
  -5   4   3  131.49    8.20
   4  -4  -3   11.70    1.40
   4  -4  -3   11.70    1.60
  -4   4   3   11.20    1.10
  -4   4   3   12.60    1.50
  -4   4   3   15.10    1.80
   3  -4  -3  620.34   34.00
  -3   4   3  618.94   34.50
  -3   4   3  616.04   34.20
  -3   4   3  600.54   33.70
   2  -4  -3   94.69    5.30
  -2   4   3   85.69    5.40
  -2   4   3   80.29    5.70
   1  -4  -3  222.78   12.90
   1  -4  -3  233.58   12.80
  -1   4   3  226.38   13.30
  -1   4   3  215.88   12.80
   0  -4  -3  194.08   10.00
   0  -4  -3  136.79    9.50
   0  -4  -3  142.49    9.30
   0   4   3  186.68    9.70
   0   4   3  172.78    9.60
   0   4   3  173.08   10.10
  -1  -4  -3  124.29    7.70
  -1  -4  -3  143.69    7.80
   1   4   3  115.89    7.50
   1   4   3  142.59    8.30
   1   4   3  129.69    7.80
  -2  -4  -3  212.08   11.50
  -2  -4  -3  188.78   11.10
  -2  -4  -3  183.78   10.90
   2   4   3  178.78   10.90
   2   4   3  164.28   11.20
  -3  -4  -3   -0.30    0.50
  -3  -4  -3   -0.20    0.50
   3   4   3   -0.20    0.50
   3   4   3    0.80    0.70
  -4  -4  -3  158.88    9.90
   4   4   3  140.49    9.40
   4   4   3  157.28    9.80
  -5  -4  -3   27.10    3.10
  -5  -4  -3   29.10    3.50
   5   4   3   22.60    2.80
   5   4   3   26.80    3.20
  -6  -4  -3  196.68   12.60
  -6  -4  -3  175.78   12.40
   6   4   3  190.38   11.90
  -7  -4  -3   16.40    3.10
   9  -5  -3  102.59    7.40
  -9   5   3  107.99    7.20
   8  -5  -3  170.78   11.20
  -8   5   3  185.68   11.10
   7  -5  -3    2.70    0.90
  -7   5   3    1.60    0.80
   6  -5  -3    0.70    0.70
   6  -5  -3    1.40    0.70
  -6   5   3    1.50    0.70
   5  -5  -3    6.40    1.10
   5  -5  -3    5.40    1.20
  -5   5   3    5.10    1.10
  -5   5   3    6.90    1.20
   4  -5  -3   14.80    1.60
   4  -5  -3   14.30    1.90
  -4   5   3   16.70    2.10
  -4   5   3   11.90    1.60
   3  -5  -3 1183.18   64.59
  -3   5   3 1162.98   64.79
  -3   5   3 1174.78   65.19
   2  -5  -3  358.76   20.10
  -2   5   3  358.06   20.30
  -2   5   3  360.26   20.80
   1  -5  -3    0.50    0.30
   1  -5  -3    0.00    0.30
  -1   5   3    0.10    0.60
  -1   5   3   -0.10    0.30
   0  -5  -3   14.70    1.40
   0  -5  -3   13.30    1.50
   0   5   3   15.20    2.10
   0   5   3   17.30    1.50
  -1  -5  -3    6.10    1.20
  -1  -5  -3    8.00    1.10
   1   5   3    6.90    1.00
   1   5   3    7.00    1.10
   1   5   3    9.10    1.60
  -2  -5  -3   77.09    5.20
  -2  -5  -3   83.49    5.70
   2   5   3   75.99    5.70
   2   5   3   85.49    5.40
  -3  -5  -3   75.69    4.80
  -3  -5  -3   54.09    5.00
   3   5   3   68.19    4.80
   3   5   3   80.99    5.40
  -4  -5  -3   26.50    3.00
  -4  -5  -3   29.40    2.60
   4   5   3   26.70    2.60
   4   5   3   29.40    3.40
  -5  -5  -3   14.20    2.50
   5   5   3   10.60    2.10
   5   5   3   11.30    1.90
  -6  -5  -3  249.58   15.80
   6   5   3  236.38   15.00
   9  -6  -3  125.19    8.70
  -9   6   3  131.49    8.60
   8  -6  -3   16.70    2.40
  -8   6   3   17.40    2.30
   7  -6  -3    3.90    1.10
  -7   6   3    3.20    1.10
   6  -6  -3   36.10    3.00
   6  -6  -3   37.00    3.20
  -6   6   3   34.70    3.00
   5  -6  -3  107.59    6.50
   5  -6  -3  104.99    6.90
  -5   6   3  101.39    7.00
  -5   6   3   94.49    6.60
   4  -6  -3   74.39    5.40
   4  -6  -3   79.59    4.90
  -4   6   3   71.09    5.40
  -4   6   3   68.59    4.90
   3  -6  -3  536.95   31.00
   3  -6  -3  583.04   31.80
  -3   6   3  536.55   31.20
  -3   6   3  570.84   31.80
   2  -6  -3  137.59    8.10
  -2   6   3  131.99    8.80
  -2   6   3  136.09    8.30
   1  -6  -3  177.38    9.30
   1  -6  -3  132.09    8.90
  -1   6   3  146.99    9.10
  -1   6   3  152.08    9.70
   0  -6  -3   88.39    5.50
   0  -6  -3   74.89    5.10
   0   6   3   75.99    5.70
   0   6   3   79.99    5.10
  -1  -6  -3  140.29    8.30
  -1  -6  -3  154.58    8.90
   1   6   3  138.69    8.50
   1   6   3  126.19    8.20
   1   6   3  127.59    9.00
  -2  -6  -3   15.10    2.20
  -2  -6  -3   17.80    2.00
   2   6   3   12.10    2.20
   2   6   3   14.90    1.90
  -3  -6  -3    8.70    1.80
  -3  -6  -3    8.60    1.50
   3   6   3    8.10    1.50
   3   6   3    9.10    1.90
  -4  -6  -3   77.09    5.60
  -4  -6  -3   85.79    6.40
   4   6   3   77.59    6.20
   4   6   3   85.29    5.90
  -5  -6  -3    5.60    1.70
  -5  -6  -3    7.40    1.60
   5   6   3    7.30    1.70
  -9   7   3   23.20    3.10
   8  -7  -3    7.70    1.70
  -8   7   3    7.70    1.70
   7  -7  -3  145.29    9.00
  -7   7   3  133.79    9.00
   6  -7  -3   12.50    1.80
   6  -7  -3    7.60    1.70
  -6   7   3    9.90    1.70
   5  -7  -3    0.50    0.50
   5  -7  -3    0.60    0.90
  -5   7   3    0.80    0.90
  -5   7   3    1.00    0.60
   4  -7  -3  158.58    9.60
   4  -7  -3  149.19   10.20
  -4   7   3  159.78    9.90
  -4   7   3  171.68   10.60
   3  -7  -3  427.86   23.00
   3  -7  -3  378.66   21.80
  -3   7   3  365.56   22.10
  -3   7   3  379.66   22.80
   2  -7  -3   75.99    4.90
  -2   7   3   76.69    5.20
  -2   7   3   74.19    5.80
   1  -7  -3   18.40    1.70
   1  -7  -3   18.10    1.90
  -1   7   3   15.90    1.90
  -1   7   3   21.50    2.90
   0  -7  -3    0.20    0.50
   0  -7  -3   -0.20    0.40
   0   7   3    0.40    0.80
   0   7   3    1.30    0.60
  -1  -7  -3   68.59    4.50
  -1  -7  -3   62.59    4.80
   1   7   3   66.69    5.30
  -2  -7  -3  347.77   20.60
  -2  -7  -3  347.67   21.20
   2   7   3  392.86   21.00
   2   7   3  351.86   21.60
  -3  -7  -3    0.00    0.60
  -3  -7  -3    0.00    0.60
   3   7   3    0.10    0.90
   3   7   3   -0.20    0.70
  -4  -7  -3   51.59    4.70
  -4  -7  -3   51.29    4.20
   4   7   3   53.39    4.90
   4   7   3   53.69    4.40
   8  -8  -3    4.20    1.50
  -8   8   3    3.80    1.40
   7  -8  -3    3.70    1.20
  -7   8   3    2.70    1.20
   6  -8  -3    1.30    1.10
   6  -8  -3    1.10    0.80
  -6   8   3    2.60    1.00
   5  -8  -3   14.40    2.40
   5  -8  -3   14.70    2.00
  -5   8   3   14.70    2.20
  -5   8   3   17.00    2.70
   4  -8  -3   43.20    4.10
   4  -8  -3   46.20    3.30
  -4   8   3   41.80    3.60
  -4   8   3   37.40    4.50
   3  -8  -3   18.20    2.00
   3  -8  -3   16.30    2.70
  -3   8   3   16.60    2.30
  -3   8   3   16.00    2.70
   2  -8  -3    0.30    0.50
   2  -8  -3   -0.80    0.80
  -2   8   3    0.10    0.80
  -2   8   3    0.90    0.70
   1  -8  -3   17.60    1.90
   1  -8  -3   16.90    1.90
  -1   8   3   11.80    2.40
  -1   8   3   14.90    2.00
   0  -8  -3    1.30    0.70
   0  -8  -3    2.50    1.00
   0   8   3    2.50    1.30
   0   8   3    1.50    0.80
  -1  -8  -3    0.00    0.60
  -1  -8  -3    0.00    0.60
   1   8   3    0.50    0.90
  -2  -8  -3   63.69    5.00
  -2  -8  -3   60.49    4.50
   2   8   3   63.29    5.50
   2   8   3   62.09    4.70
  -3  -8  -3   17.50    2.80
  -3  -8  -3   18.80    2.30
   3   8   3   18.10    3.20
   3   8   3   18.60    2.50
   4   8   3   17.90    3.20
   7  -9  -3  147.69    9.60
  -7   9   3  148.49   10.00
   6  -9  -3    0.90    0.90
   6  -9  -3    4.50    1.70
  -6   9   3    2.00    1.00
   5  -9  -3   52.39    3.90
   5  -9  -3   42.80    4.50
  -5   9   3   52.59    4.30
  -5   9   3   52.79    4.90
   4  -9  -3   70.29    4.90
   4  -9  -3   71.49    5.90
  -4   9   3   69.19    5.20
  -4   9   3   70.09    6.00
   3  -9  -3   -0.10    0.60
   3  -9  -3    0.80    1.20
  -3   9   3    0.60    0.70
  -3   9   3    1.20    1.20
   2  -9  -3   37.00    3.10
   2  -9  -3   47.20    4.40
  -2   9   3   42.20    4.80
  -2   9   3   46.30    3.60
   1  -9  -3   38.50    3.10
   1  -9  -3   44.40    4.30
  -1   9   3   37.90    4.60
  -1   9   3   38.60    3.40
   0  -9  -3    5.80    1.20
   0   9   3    8.90    2.30
  -1  -9  -3   64.89    4.50
  -1  -9  -3   61.89    4.80
   1   9   3   50.49    5.30
  -2  -9  -3  109.49    7.80
   2   9   3  108.59    8.50
   6 -10  -3    0.40    0.90
   6 -10  -3    0.70    1.20
   5 -10  -3    3.30    1.70
   5 -10  -3    4.20    1.20
  -5  10   3    5.40    1.60
  -5  10   3    2.80    1.70
   4 -10  -3    5.80    1.40
   4 -10  -3    9.50    2.40
  -4  10   3    6.60    2.20
  -4  10   3    7.40    1.80
   3 -10  -3    5.40    1.90
   3 -10  -3   10.80    1.70
  -3  10   3    5.90    2.00
  -3  10   3    9.30    1.90
   2 -10  -3   55.09    5.60
   2 -10  -3   66.89    4.60
  -2  10   3   67.39    5.00
  -2  10   3   64.89    5.90
   1 -10  -3    2.90    1.00
   1 -10  -3    1.00    1.20
  -1  10   3    3.40    1.10
  -1  10   3    4.40    1.80
   0 -10  -3   31.60    4.40
   0 -10  -3   28.30    2.70
  -1 -12   4    2.60    1.60
   0 -12   4   28.30    3.90
   1 -12   4   41.50    5.00
   3  11  -4    0.80    1.00
  -3 -11   4   -0.50    1.10
   2  11  -4    7.50    1.70
  -2 -11   4    7.70    1.90
   1  11  -4   26.40    3.30
  -1 -11   4   32.30    3.70
  -1 -11   4   24.10    3.40
   0  11  -4   50.79    4.30
   0 -11   4   47.80    4.50
  -1  11  -4    1.50    1.00
   1 -11   4   -0.30    0.90
  -2  11  -4   -0.60    0.50
   2 -11   4    0.20    1.00
  -3  11  -4    0.20    0.80
   3 -11   4    0.20    1.00
  -4  11  -4   17.70    2.60
   4 -11   4   19.40    3.30
  -5  11  -4    0.90    1.00
   4  10  -4    0.50    1.40
  -4 -10   4    1.00    1.90
   3  10  -4    5.00    1.90
   3  10  -4    5.30    1.40
  -3 -10   4    3.80    1.80
  -3 -10   4    3.60    1.40
   2  10  -4   18.30    2.50
   2  10  -4   22.50    3.40
  -2 -10   4   15.70    2.50
  -2 -10   4   16.80    2.70
   1  10  -4  120.39    8.60
   1  10  -4  112.29    7.80
  -1 -10   4  117.79    8.10
  -1 -10   4  119.69    8.20
   0  10  -4  176.58   11.30
   0  10  -4  188.18   12.10
   0 -10   4  178.28   11.70
  -1  10  -4    0.00    0.90
  -1  10  -4   -0.40    0.60
   1 -10   4   -1.10    0.60
  -2  10  -4    4.00    1.50
  -2  10  -4    7.10    1.50
   2 -10   4    5.00    1.60
  -3  10  -4  116.29    8.30
  -3  10  -4  122.39    7.80
   3 -10   4  104.09    8.10
  -4  10  -4   13.10    2.10
  -4  10  -4   13.90    2.60
   4 -10   4   10.50    2.40
  -5  10  -4   20.00    3.10
  -5  10  -4   15.30    2.40
   5 -10   4   18.50    3.10
  -6  10  -4    3.70    2.30
  -6  10  -4    0.90    1.00
   6 -10   4   -0.10    1.40
   5   9  -4  146.79    9.90
  -5  -9   4   98.09    9.40
   4   9  -4    2.70    1.40
  -4  -9   4    1.70    1.60
  -4  -9   4    2.80    1.20
   3   9  -4   14.20    2.10
   3   9  -4   14.20    2.70
  -3  -9   4   12.60    2.20
   2   9  -4    7.30    1.90
   2   9  -4    5.50    1.40
  -2  -9   4    5.50    1.40
  -2  -9   4    7.80    1.60
   1   9  -4  340.67   20.00
   1   9  -4  344.67   20.80
  -1  -9   4  348.47   20.20
  -1  -9   4  333.67   20.20
   0   9  -4  143.69    8.90
   0   9  -4  141.09    9.50
   0  -9   4  131.29    9.10
  -1   9  -4   25.20    2.80
  -1   9  -4   21.10    3.00
   1  -9   4   21.80    2.90
  -2   9  -4   34.80    3.50
  -2   9  -4   37.70    3.20
   2  -9   4   39.10    3.60
  -3   9  -4   13.40    2.40
  -3   9  -4   12.30    2.00
   3  -9   4   18.70    2.70
  -4   9  -4    2.40    1.30
  -4   9  -4    5.70    1.30
   4  -9   4    3.20    1.40
  -5   9  -4  126.49    8.90
  -5   9  -4  121.29    8.20
   5  -9   4  130.09    8.90
  -6   9  -4   24.20    3.00
  -6   9  -4   36.40    4.30
   6  -9   4   29.90    3.90
  -7   9  -4   15.70    3.10
   7  -9   4   23.70    3.50
   6   8  -4   32.00    4.80
  -6  -8   4   41.70    5.80
   5   8  -4    0.50    1.20
  -5  -8   4    2.40    1.70
   4   8  -4    0.50    1.00
  -4  -8   4   -1.20    0.90
  -4  -8   4   -0.70    0.60
   3   8  -4    8.20    2.10
   3   8  -4    9.50    1.60
  -3  -8   4    8.00    1.50
  -3  -8   4   10.80    1.80
   2   8  -4  148.19    9.80
   2   8  -4  138.79    8.90
  -2  -8   4  147.99    9.20
  -2  -8   4  137.49    9.10
   1   8  -4  944.71   52.59
   1   8  -4  905.11   51.79
  -1  -8   4  938.51   52.09
   0   8  -4    2.00    1.10
   0   8  -4    3.60    1.00
   0  -8   4    5.50    1.30
  -1   8  -4    3.20    1.20
  -1   8  -4    2.50    0.90
   1  -8   4    2.90    1.10
  -2   8  -4   10.70    2.00
  -2   8  -4   14.20    1.90
   2  -8   4   16.50    2.40
  -3   8  -4    8.10    1.80
  -3   8  -4    7.30    1.40
   3  -8   4    8.50    1.80
  -4   8  -4  145.29    8.90
  -4   8  -4  140.99    9.50
   4  -8   4  138.19    9.50
  -5   8  -4  157.68   10.30
  -5   8  -4  156.58    9.70
   5  -8   4  148.39   10.20
  -6   8  -4    4.70    1.60
  -6   8  -4    3.20    1.00
   6  -8   4    3.00    1.40
  -7   8  -4   10.00    2.50
   7  -8   4   12.30    2.60
   8  -8   4   48.70    6.00
  -7  -7   4   32.20    5.10
   6   7  -4   65.09    6.10
  -6  -7   4   65.39    6.40
   5   7  -4   -0.50    1.00
  -5  -7   4    0.30    0.70
  -5  -7   4    0.60    0.90
   4   7  -4   14.80    2.70
  -4  -7   4   15.80    2.10
  -4  -7   4   13.50    2.70
   3   7  -4   11.80    2.20
   3   7  -4    9.50    1.50
  -3  -7   4   10.10    1.60
  -3  -7   4   11.00    1.70
   2   7  -4   45.20    3.40
   2   7  -4   46.90    4.10
  -2  -7   4   42.50    3.50
  -2  -7   4   45.10    3.50
   1   7  -4  534.55   30.80
   1   7  -4  533.25   30.20
  -1  -7   4  531.55   30.40
  -1  -7   4  542.25   30.40
   0   7  -4   23.20    2.20
   0   7  -4   23.60    2.90
   0  -7   4   25.20    2.40
  -1   7  -4   74.69    5.30
  -1   7  -4   68.89    4.80
   1  -7   4   68.19    5.00
  -2   7  -4   91.89    5.70
  -2   7  -4   82.79    6.00
   2  -7   4   79.79    5.90
  -3   7  -4   25.60    2.30
  -3   7  -4   29.10    2.80
   3  -7   4   25.40    3.00
  -4   7  -4  240.88   14.70
  -4   7  -4  238.18   14.20
   4  -7   4  243.28   14.70
  -5   7  -4   -0.30    0.60
  -5   7  -4    1.10    0.80
   5  -7   4    0.60    0.90
  -6   7  -4    2.20    1.20
   6  -7   4    0.50    0.90
  -7   7  -4   48.90    4.60
   7  -7   4   44.60    4.40
  -8   7  -4   12.30    3.10
   8  -7   4   14.60    3.20
   8   6  -4    2.10    1.10
   7   6  -4   11.70    1.90
  -7  -6   4    9.60    2.80
   6   6  -4   31.80    2.80
   6   6  -4   31.90    4.40
  -6  -6   4   39.90    5.20
   5   6  -4   21.10    2.00
   5   6  -4   18.00    3.00
  -5  -6   4   14.20    3.00
  -5  -6   4   19.80    2.30
   4   6  -4  111.39    6.70
   4   6  -4  103.29    7.80
  -4  -6   4   98.59    8.10
  -4  -6   4  117.09    7.10
   3   6  -4   12.50    1.70
   3   6  -4   15.20    2.30
   3   6  -4   13.20    1.30
  -3  -6   4   18.30    1.70
  -3  -6   4   14.00    1.90
   2   6  -4  427.36   24.60
   2   6  -4  453.95   24.10
   2   6  -4  425.26   25.20
  -2  -6   4  408.76   24.60
  -2  -6   4  416.26   24.00
  -2  -6   4  470.55   24.70
   1   6  -4  257.37   13.60
   1   6  -4  235.78   14.10
  -1  -6   4  256.87   13.70
  -1  -6   4  228.98   13.60
  -1  -6   4  198.48   12.80
   0   6  -4   15.10    1.70
   0   6  -4   13.70    2.00
   0  -6   4   11.70    1.70
  -1   6  -4  315.87   19.10
  -1   6  -4  342.07   18.70
   1  -6   4  321.37   18.90
  -2   6  -4   74.59    4.80
  -2   6  -4   75.09    5.20
   2  -6   4   66.19    5.00
  -3   6  -4    1.70    0.80
  -3   6  -4    0.60    0.50
   3  -6   4    0.80    0.60
  -4   6  -4  624.04   35.30
  -4   6  -4  631.04   35.90
   4  -6   4  638.04   35.90
  -5   6  -4   62.99    4.80
  -5   6  -4   54.39    4.00
   5  -6   4   58.69    4.70
  -6   6  -4   28.10    3.50
   6  -6   4   25.10    3.20
  -7   6  -4    4.30    1.70
   7  -6   4    4.80    1.50
  -8   6  -4   47.30    5.50
   8   5  -4    2.00    1.10
  -8  -5   4    1.00    1.40
   7   5  -4   10.30    1.80
  -7  -5   4   14.40    3.10
   6   5  -4    3.70    1.00
   6   5  -4    3.90    1.50
  -6  -5   4    1.90    1.20
  -6  -5   4    2.50    0.90
   5   5  -4  155.78    8.90
   5   5  -4  157.28   10.00
  -5  -5   4  149.09    8.90
  -5  -5   4  109.69    9.80
   4   5  -4   34.50    3.40
   4   5  -4   33.70    2.50
  -4  -5   4   30.20    2.60
   3   5  -4   56.99    4.70
   3   5  -4   62.89    3.90
  -3  -5   4   63.49    4.10
  -3  -5   4   64.19    4.30
   2   5  -4   35.90    2.80
   2   5  -4   34.20    3.20
   2   5  -4   39.20    2.40
  -2  -5   4   42.30    2.80
  -2  -5   4   38.40    2.90
   1   5  -4    0.00    0.10
   1   5  -4    0.10    0.50
   1   5  -4    0.10    0.30
  -1  -5   4    0.60    0.40
  -1  -5   4    0.00    0.10
  -1  -5   4   -0.10    0.30
   0   5  -4   55.49    3.40
   0   5  -4   54.69    3.80
   0  -5   4   50.39    3.50
   0  -5   4   42.50    2.60
  -1   5  -4   81.19    5.00
  -1   5  -4   84.09    5.40
   1  -5   4   78.29    4.40
   1  -5   4   70.39    5.10
  -2   5  -4  199.08   11.40
  -2   5  -4  185.68   11.80
   2  -5   4  198.28   11.00
   2  -5   4  199.78   11.80
  -3   5  -4    3.60    0.80
  -3   5  -4    3.50    1.10
   3  -5   4    3.00    0.60
   3  -5   4    1.20    0.70
  -4   5  -4  160.68   10.00
  -4   5  -4  152.78    9.30
   4  -5   4  150.78    9.80
   4  -5   4  160.68    9.20
  -5   5  -4   98.39    7.10
  -5   5  -4   96.39    6.30
   5  -5   4  105.19    6.40
   5  -5   4  108.69    7.10
  -6   5  -4   50.49    4.50
   6  -5   4   49.70    4.30
   6  -5   4   55.29    3.90
  -7   5  -4   49.10    4.60
   7  -5   4   47.50    3.80
   7  -5   4   47.80    4.20
  -8   5  -4  138.19   10.00
   9   4  -4    6.50    1.70
   8   4  -4    1.50    0.90
  -8  -4   4    1.40    1.50
   7   4  -4  104.89    7.10
  -7  -4   4  108.49    8.70
   6   4  -4   10.10    1.50
   6   4  -4    9.30    2.20
  -6  -4   4    6.90    2.00
  -6  -4   4    7.50    1.40
   5   4  -4   97.69    7.00
   5   4  -4   91.29    6.00
  -5  -4   4  102.49    6.20
  -5  -4   4   89.49    7.30
   4   4  -4    4.90    0.90
   4   4  -4    8.00    1.70
  -4  -4   4    5.40    1.00
   3   4  -4   28.50    2.70
   3   4  -4   28.20    2.00
  -3  -4   4   27.10    2.30
  -3  -4   4   28.50    2.00
   2   4  -4  264.57   15.00
   2   4  -4  289.57   15.40
   2   4  -4  266.77   15.90
  -2  -4   4  266.27   15.30
  -2  -4   4  259.17   15.40
   1   4  -4  114.59    6.10
   1   4  -4  108.09    7.00
   1   4  -4  103.99    6.60
  -1  -4   4  113.49    6.10
  -1  -4   4   99.99    6.60
  -1  -4   4  108.79    6.70
   0   4  -4 2289.07  122.89
   0   4  -4 2171.68  123.19
   0  -4   4 2202.88  122.89
   0  -4   4 2306.57  122.99
  -1   4  -4  111.69    6.70
  -1   4  -4  104.39    7.00
   1  -4   4  114.09    6.20
   1  -4   4  115.99    7.00
  -2   4  -4    1.80    0.50
  -2   4  -4    1.00    0.60
   2  -4   4    2.30    0.70
   2  -4   4    2.20    0.40
  -3   4  -4  131.69    8.00
  -3   4  -4  144.99    7.80
  -3   4  -4  157.18    8.70
   3  -4   4  120.59    7.80
   3  -4   4  127.89    8.40
  -4   4  -4   24.30    1.90
  -4   4  -4   25.30    2.50
   4  -4   4   26.70    2.50
   4  -4   4   25.20    2.00
  -5   4  -4    3.10    1.10
   5  -4   4    2.90    0.80
   5  -4   4    2.90    1.10
  -6   4  -4   11.30    2.00
   6  -4   4    9.30    1.80
   6  -4   4    5.90    1.30
  -7   4  -4    1.30    1.10
   7  -4   4   -0.10    0.60
   7  -4   4    0.60    0.90
  -8   4  -4   31.80    4.30
   8  -4   4   34.80    3.30
   9   3  -4   11.70    2.20
  -9  -3   4   11.50    3.10
   8   3  -4   48.90    4.00
  -8  -3   4   41.30    5.60
   7   3  -4   55.89    4.50
  -7  -3   4   65.29    4.40
  -7  -3   4   65.99    5.90
   6   3  -4   59.69    5.00
   6   3  -4   54.39    4.10
  -6  -3   4   61.09    5.40
  -6  -3   4   58.79    4.00
   5   3  -4    2.10    1.10
   5   3  -4    4.80    0.90
  -5  -3   4    4.60    1.50
  -5  -3   4    4.00    0.90
   4   3  -4   65.09    4.10
   4   3  -4   60.79    4.80
  -4  -3   4   60.99    5.10
  -4  -3   4   64.29    4.20
   3   3  -4   13.70    1.20
   3   3  -4   13.40    1.90
  -3  -3   4   15.30    1.10
  -3  -3   4   12.50    1.50
   2   3  -4  201.68   12.40
   2   3  -4  220.18   11.70
  -2  -3   4  215.58   11.80
  -2  -3   4  193.58   12.00
   1   3  -4    0.20    0.40
   1   3  -4    0.80    0.30
  -1  -3   4    0.70    0.30
  -1  -3   4   -0.20    0.20
   0   3  -4 1299.07   73.09
   0   3  -4 1365.36   73.49
   0  -3   4 1347.37   73.19
   0  -3   4 1315.67   73.19
  -1   3  -4  139.39    8.70
  -1   3  -4  175.38    9.20
   1  -3   4  142.69    9.00
   1  -3   4  146.59    8.40
   1  -3   4  158.68    8.80
  -2   3  -4  777.42   41.40
  -2   3  -4  764.42   41.50
  -2   3  -4  739.13   42.00
   2  -3   4  765.32   42.00
   2  -3   4  719.23   41.40
  -3   3  -4    7.50    1.40
  -3   3  -4    5.60    0.80
  -3   3  -4    5.90    0.80
   3  -3   4    6.30    1.20
   3  -3   4    7.40    0.90
  -4   3  -4   35.50    2.60
  -4   3  -4   37.30    2.40
  -4   3  -4   41.40    3.30
   4  -3   4   34.30    3.00
   4  -3   4   31.80    2.60
  -5   3  -4   79.29    5.30
  -5   3  -4   82.79    5.90
   5  -3   4   80.19    5.60
   5  -3   4   78.89    5.20
  -6   3  -4    8.90    1.90
   6  -3   4   12.80    2.00
   6  -3   4   13.20    1.80
  -7   3  -4   27.20    3.70
   7  -3   4   28.20    2.80
   7  -3   4   30.40    3.40
  -8   3  -4   18.60    3.20
   8  -3   4   15.40    2.30
   9   2  -4    0.30    1.00
  -9  -2   4    1.50    1.80
   8   2  -4   21.60    2.70
  -8  -2   4   21.90    3.70
   7   2  -4   -0.10    0.60
  -7  -2   4    0.90    0.60
  -7  -2   4    1.10    1.10
   6   2  -4    4.60    1.40
   6   2  -4    4.80    1.10
  -6  -2   4    6.80    1.10
  -6  -2   4    3.70    1.60
   5   2  -4    4.60    1.30
   5   2  -4    5.40    1.00
  -5  -2   4    2.10    1.10
  -5  -2   4    2.80    0.70
   4   2  -4   31.60    2.80
   4   2  -4   30.60    2.20
  -4  -2   4   31.20    2.30
  -4  -2   4   24.80    3.20
   3   2  -4  359.16   21.10
   3   2  -4  385.06   21.80
  -3  -2   4  387.76   21.40
  -3  -2   4  387.26   20.90
   2   2  -4    1.60    0.60
   2   2  -4    1.30    0.30
  -2  -2   4    2.50    0.50
  -2  -2   4    1.10    0.40
   1   2  -4 1215.78   68.39
  -1  -2   4 1267.27   68.19
  -1  -2   4 1239.78   68.09
   0   2  -4 1463.65   82.59
   0   2  -4 1506.25   82.29
   0  -2   4 1479.15   82.39
   0  -2   4 1564.64   82.59
  -1   2  -4   10.60    0.90
  -1   2  -4   10.40    0.90
  -1   2  -4    9.60    1.30
   1  -2   4   10.50    0.80
   1  -2   4    9.20    1.20
   1  -2   4    6.40    0.90
  -2   2  -4   97.99    5.30
  -2   2  -4   82.79    5.60
  -2   2  -4   88.89    5.10
   2  -2   4   82.09    5.10
   2  -2   4   84.19    5.20
   2  -2   4   87.89    5.60
  -3   2  -4   25.70    2.00
  -3   2  -4   22.90    1.60
  -3   2  -4   23.50    2.20
   3  -2   4   25.80    1.70
   3  -2   4   24.80    1.90
   3  -2   4   26.20    2.20
  -4   2  -4   30.90    2.60
  -4   2  -4   36.70    3.00
   4  -2   4   32.90    2.50
   4  -2   4   32.80    2.80
  -5   2  -4   38.80    3.40
  -5   2  -4   32.70    2.90
   5  -2   4   35.80    3.10
   5  -2   4   35.90    2.80
  -6   2  -4   40.20    3.70
  -6   2  -4   36.90    3.20
   6  -2   4   36.10    3.30
   6  -2   4   34.00    3.00
  -7   2  -4   59.29    5.20
  -7   2  -4   66.79    4.90
   7  -2   4   51.09    4.60
   7  -2   4   59.59    4.60
  -8   2  -4   61.49    5.60
   8  -2   4   58.99    4.80
   9   1  -4   45.90    4.10
  -9  -1   4   42.80    5.60
   8   1  -4    0.20    0.70
  -8  -1   4    0.10    0.60
  -8  -1   4    1.70    1.40
   7   1  -4   -0.40    0.50
  -7  -1   4    0.20    0.70
  -7  -1   4   -0.10    0.40
   6   1  -4    6.80    1.20
  -6  -1   4    7.00    1.20
  -6  -1   4    6.80    1.80
   5   1  -4    8.30    1.30
   5   1  -4   10.20    1.80
  -5  -1   4   10.70    2.10
  -5  -1   4   11.50    1.40
   4   1  -4    5.20    1.20
   4   1  -4    4.90    0.80
  -4  -1   4    6.60    1.00
  -4  -1   4    4.60    1.30
   3   1  -4  236.68   13.80
   3   1  -4  247.98   14.30
  -3  -1   4  255.47   13.60
  -3  -1   4  238.28   14.00
   2   1  -4   -0.50    0.20
   2   1  -4   -0.10    0.10
  -2  -1   4    0.00    0.20
  -2  -1   4    0.00    0.20
   1   1  -4  293.47   16.80
   1   1  -4  317.57   16.40
  -1  -1   4  281.27   16.60
  -1  -1   4  291.97   16.70
   0   1  -4  252.47   13.80
   0   1  -4  257.27   13.40
   0   1  -4  241.28   13.60
   0  -1   4  243.78   13.60
   0  -1   4  222.38   13.40
   0  -1   4  236.08   13.80
  -1   1  -4   63.39    4.40
  -1   1  -4   87.59    4.70
   1  -1   4   73.29    4.30
   1  -1   4   71.39    4.30
   1  -1   4   73.09    4.70
  -2   1  -4    4.90    1.00
  -2   1  -4    5.70    0.90
   2  -1   4    6.90    1.10
   2  -1   4    3.90    0.70
   2  -1   4    5.20    0.60
  -3   1  -4   23.70    2.00
  -3   1  -4   21.30    2.10
   3  -1   4   22.20    2.10
   3  -1   4   21.50    1.80
  -4   1  -4   27.80    2.50
  -4   1  -4   22.70    2.20
   4  -1   4   26.10    2.40
   4  -1   4   24.60    2.10
  -5   1  -4   60.69    4.80
  -5   1  -4   60.99    4.50
   5  -1   4   63.19    4.60
   5  -1   4   60.89    4.30
  -6   1  -4    1.40    0.80
  -6   1  -4    0.90    0.90
   6  -1   4    0.80    0.70
   6  -1   4    2.00    0.90
  -7   1  -4    2.00    1.10
  -7   1  -4    4.00    1.30
   7  -1   4    1.10    0.90
  -8   1  -4    1.00    1.10
  -8   1  -4   -0.30    1.10
   8  -1   4    0.10    0.80
 -10   0   4   32.10    4.90
   9   0  -4    3.00    1.20
  -9   0   4    1.80    1.70
   8   0  -4    0.90    0.80
  -8   0   4    0.40    0.80
  -8   0   4    2.90    0.90
   7   0  -4    1.60    0.80
  -7   0   4    4.00    1.50
  -7   0   4    2.10    0.70
   6   0  -4  118.59    7.50
  -6   0   4  127.89    8.50
  -6   0   4  116.59    7.30
   5   0  -4    6.00    1.00
   5   0  -4    5.30    1.20
  -5   0   4    4.20    1.20
  -5   0   4    5.20    0.90
   4   0  -4   58.89    3.30
   4   0  -4   60.49    4.10
   4   0  -4   55.29    3.70
  -4   0   4   56.39    3.80
  -4   0   4   53.99    3.30
  -4   0   4   60.09    4.40
   3   0  -4   73.99    4.80
   3   0  -4   75.19    4.50
  -3   0   4   71.29    4.60
  -3   0   4   74.09    4.30
   2   0  -4   95.09    5.80
   2   0  -4   95.39    5.50
  -2   0   4   96.29    5.70
  -2   0   4   91.59    5.60
   1   0  -4  157.68    8.90
   1   0  -4  160.68    8.70
  -1   0   4  143.79    8.80
  -1   0   4  152.98    8.90
   0   0  -4   24.50    1.80
   0   0  -4   22.70    1.80
   0   0  -4   28.70    1.60
   0   0   4   22.40    1.60
   0   0   4   23.40    1.90
   0   0   4   23.70    1.60
  -1   0  -4   -0.30    0.20
  -1   0  -4   -0.20    0.20
   1   0   4    0.00    0.20
   1   0   4    0.10    0.20
   1   0   4    0.00    0.30
  -2   0  -4   10.70    1.40
  -2   0  -4   13.40    1.50
   2   0   4    9.40    0.70
   2   0   4   11.10    1.20
   2   0   4   10.60    1.40
  -3   0  -4   31.70    2.60
  -3   0  -4   33.50    2.70
   3   0   4   34.70    2.50
   3   0   4   29.60    2.60
  -4   0  -4   55.69    4.20
  -4   0  -4   52.39    4.00
   4   0   4   51.29    3.70
   4   0   4   53.39    4.00
  -5   0  -4   -0.40    0.60
  -5   0  -4    0.10    0.60
   5   0   4   -0.30    0.50
   5   0   4   -0.20    0.50
  -6   0  -4   14.50    2.30
  -6   0  -4   10.00    2.10
   6   0   4   13.90    2.00
   6   0   4   11.20    2.00
  -7   0  -4   10.60    2.20
  -7   0  -4   17.90    2.90
   7   0   4   16.60    2.30
  -8   0  -4   45.10    4.40
  -8   0  -4   45.90    5.40
   8   0   4   43.40    4.00
  10  -1  -4    5.10    1.80
 -10   1   4    4.00    2.10
   9  -1  -4    2.50    1.10
  -9   1   4    1.40    1.30
   8  -1  -4    0.30    0.70
  -8   1   4   -0.40    0.40
  -8   1   4    0.40    0.80
   7  -1  -4    8.40    1.50
  -7   1   4    8.70    1.30
  -7   1   4    8.90    2.00
   6  -1  -4    2.50    0.80
  -6   1   4    3.90    1.30
  -6   1   4    2.90    0.80
   5  -1  -4  118.59    7.50
  -5   1   4  129.49    8.20
  -5   1   4  126.09    7.50
   4  -1  -4    2.10    0.70
   4  -1  -4    1.60    0.50
  -4   1   4    2.40    0.50
  -4   1   4    2.40    0.60
  -4   1   4    1.60    0.70
   3  -1  -4  620.54   34.00
   3  -1  -4  567.24   33.80
  -3   1   4  644.34   33.80
  -3   1   4  606.94   33.90
  -3   1   4  619.64   34.20
   2  -1  -4   41.70    2.60
   2  -1  -4   38.80    2.50
  -2   1   4   39.10    2.70
  -2   1   4   41.40    2.70
   1  -1  -4   75.49    4.70
  -1   1   4   84.89    4.80
  -1   1   4   81.39    5.00
   0  -1  -4   51.89    2.90
   0  -1  -4   38.00    2.90
   0  -1  -4   45.50    3.10
   0   1   4   41.80    2.90
   0   1   4   47.90    3.20
   0   1   4   54.39    2.90
  -1  -1  -4   86.59    5.10
  -1  -1  -4   86.59    5.20
  -1  -1  -4   87.99    5.40
   1   1   4   88.69    5.50
   1   1   4   79.69    4.90
   1   1   4   83.59    5.10
  -2  -1  -4   88.29    5.80
  -2  -1  -4   97.29    6.00
   2   1   4   93.39    5.70
   2   1   4   89.79    6.00
  -3  -1  -4  135.49    8.70
  -3  -1  -4  148.69    8.70
   3   1   4  135.09    8.30
   3   1   4  137.79    8.70
  -4  -1  -4   13.30    2.00
  -4  -1  -4   13.90    2.10
   4   1   4   11.30    1.80
   4   1   4   13.50    1.70
  -5  -1  -4    5.90    1.40
  -5  -1  -4    5.20    1.40
   5   1   4    3.90    1.20
   5   1   4    5.10    1.20
  -6  -1  -4   15.50    2.50
  -6  -1  -4   15.50    2.60
   6   1   4   17.00    2.50
   6   1   4   13.60    2.00
  -7  -1  -4    7.10    1.90
  -7  -1  -4    5.50    1.80
   7   1   4    8.70    1.80
  10  -2  -4   52.19    5.80
 -10   2   4   52.89    5.30
   9  -2  -4    7.10    1.70
  -9   2   4    6.60    1.40
  -9   2   4    5.80    1.90
   8  -2  -4   91.09    6.20
  -8   2   4   90.19    5.90
  -8   2   4   82.99    6.70
   7  -2  -4   75.09    5.30
  -7   2   4   72.89    5.10
  -7   2   4   81.19    5.90
   6  -2  -4    2.30    0.80
  -6   2   4    2.80    1.10
  -6   2   4    2.30    0.80
   5  -2  -4   73.09    4.90
   5  -2  -4   81.49    4.80
  -5   2   4   76.59    5.30
  -5   2   4   75.89    4.70
  -5   2   4   74.79    4.90
   4  -2  -4   18.60    1.70
  -4   2   4   23.80    2.00
  -4   2   4   27.90    1.90
  -4   2   4   18.70    1.70
   3  -2  -4  126.49    7.60
  -3   2   4  118.59    7.60
  -3   2   4  141.89    7.80
  -3   2   4  136.39    7.80
   2  -2  -4    9.70    0.90
   2  -2  -4   10.20    0.80
  -2   2   4    8.90    1.20
  -2   2   4    9.90    1.10
  -2   2   4    7.20    0.80
   1  -2  -4   27.50    2.00
   1  -2  -4   25.70    1.60
   1  -2  -4   25.20    1.80
  -1   2   4   25.40    2.10
  -1   2   4   25.40    1.90
   0  -2  -4   37.30    2.70
   0  -2  -4   39.00    2.50
   0   2   4   35.90    2.50
   0   2   4   34.20    2.70
   0   2   4   35.40    2.30
  -1  -2  -4  351.16   19.40
  -1  -2  -4  364.56   19.70
   1   2   4  327.07   19.40
   1   2   4  331.57   19.80
   1   2   4  348.37   19.10
  -2  -2  -4   76.49    4.80
  -2  -2  -4   81.99    5.00
   2   2   4   64.59    4.50
   2   2   4   61.89    4.80
  -3  -2  -4   74.69    5.10
  -3  -2  -4   69.69    5.10
   3   2   4   77.19    4.90
   3   2   4   68.59    5.10
  -4  -2  -4    2.10    0.90
  -4  -2  -4    0.50    0.60
   4   2   4    2.40    0.80
   4   2   4    1.00    0.80
  -5  -2  -4   11.00    2.00
  -5  -2  -4   12.10    2.20
   5   2   4   10.60    1.80
   5   2   4   12.40    2.10
  -6  -2  -4   13.70    2.60
  -6  -2  -4   13.50    2.50
   6   2   4   19.40    2.80
   6   2   4   23.30    2.70
  -7  -2  -4    3.40    1.50
  -7  -2  -4    1.70    1.30
   7   2   4    2.20    1.20
 -10   3   4    9.20    2.50
   9  -3  -4    0.30    0.90
  -9   3   4    0.00    1.20
  -9   3   4    0.40    0.60
   8  -3  -4    0.90    0.90
  -8   3   4    0.60    0.90
  -8   3   4    0.70    0.70
   7  -3  -4   10.40    1.60
  -7   3   4    9.30    1.80
  -7   3   4    9.10    1.50
   6  -3  -4   24.30    2.10
  -6   3   4   20.20    2.00
  -6   3   4   25.60    2.40
   5  -3  -4  362.36   20.70
   5  -3  -4  376.96   20.70
  -5   3   4  356.56   20.70
  -5   3   4  362.46   20.90
  -5   3   4  366.76   20.70
   4  -3  -4  103.39    6.30
  -4   3   4   95.89    6.30
  -4   3   4  117.29    6.50
  -4   3   4  103.89    6.50
   3  -3  -4   67.59    4.20
  -3   3   4   70.09    3.90
  -3   3   4   68.79    4.50
  -3   3   4   57.79    4.20
   2  -3  -4  444.36   21.80
  -2   3   4  368.26   21.80
  -2   3   4  353.06   22.10
   1  -3  -4    7.30    0.90
   1  -3  -4    7.90    1.10
  -1   3   4    7.00    0.90
  -1   3   4    8.80    1.30
   0  -3  -4  266.27   15.00
   0   3   4  268.47   15.10
   0   3   4  306.37   15.60
   0   3   4  233.18   14.90
  -1  -3  -4   80.39    5.10
  -1  -3  -4   96.39    5.10
  -1  -3  -4   84.09    5.40
   1   3   4   77.39    5.50
   1   3   4   77.69    5.10
   1   3   4   73.69    4.80
  -2  -3  -4   30.50    2.40
  -2  -3  -4   36.10    2.70
   2   3   4   29.90    2.50
   2   3   4   31.30    2.80
  -3  -3  -4    5.50    1.30
  -3  -3  -4    7.00    1.40
   3   3   4    6.60    1.40
   3   3   4    5.30    1.10
  -4  -3  -4    3.40    1.20
  -4  -3  -4    5.30    1.40
   4   3   4    3.90    1.20
   4   3   4    5.60    1.20
  -5  -3  -4    5.90    1.60
  -5  -3  -4    3.40    1.20
   5   3   4    4.10    1.50
   5   3   4    4.50    1.20
  -6  -3  -4   44.30    4.40
  -6  -3  -4   47.10    4.50
   6   3   4   45.70    4.00
  -7  -3  -4    7.60    2.30
   9  -4  -4  234.48   14.40
  -9   4   4  228.68   14.00
   8  -4  -4  102.39    7.10
  -8   4   4  106.49    6.90
   7  -4  -4   19.90    2.40
  -7   4   4   19.10    2.30
   6  -4  -4   23.70    2.10
  -6   4   4   19.50    2.20
   5  -4  -4    0.10    0.40
   5  -4  -4    0.20    0.50
  -5   4   4    0.30    0.60
  -5   4   4   -0.10    0.30
   4  -4  -4    2.40    0.60
  -4   4   4    2.50    0.70
  -4   4   4    3.00    0.90
   3  -4  -4    5.20    0.80
  -3   4   4    4.60    0.90
  -3   4   4    5.10    1.10
   2  -4  -4   28.20    2.00
  -2   4   4   26.50    2.10
  -2   4   4   29.80    2.50
   1  -4  -4    4.40    0.80
   1  -4  -4    5.70    1.00
  -1   4   4    5.20    1.20
  -1   4   4    5.90    0.90
   0  -4  -4  554.94   32.20
   0  -4  -4  635.14   32.70
   0   4   4  581.24   32.20
   0   4   4  546.45   32.80
  -1  -4  -4   43.90    3.40
  -1  -4  -4   40.20    3.00
   1   4   4   43.40    2.80
   1   4   4   43.20    3.10
   1   4   4   43.20    3.50
  -2  -4  -4    1.10    0.70
  -2  -4  -4    3.40    0.80
   2   4   4    0.90    0.80
   2   4   4    3.70    0.90
  -3  -4  -4   19.70    2.10
  -3  -4  -4   18.60    2.50
   3   4   4   15.50    2.00
   3   4   4   17.70    2.40
  -4  -4  -4    3.20    1.30
   4   4   4    5.70    1.50
   4   4   4    6.30    1.40
  -5  -4  -4   25.60    3.50
   5   4   4   26.90    3.40
   5   4   4   31.10    2.90
  -6  -4  -4   13.20    2.60
   6   4   4   10.00    2.00
   9  -5  -4   53.59    4.70
  -9   5   4   59.39    4.60
   8  -5  -4   71.09    5.40
  -8   5   4   74.19    5.30
   7  -5  -4   72.29    5.20
  -7   5   4   74.09    5.20
   6  -5  -4   95.19    6.30
   6  -5  -4   87.89    6.00
  -6   5   4   95.89    6.20
   5  -5  -4    0.30    0.40
   5  -5  -4    0.50    0.60
  -5   5   4    0.90    0.60
  -5   5   4    0.60    0.60
   4  -5  -4    0.00    0.50
   4  -5  -4    0.20    0.40
  -4   5   4   -0.60    0.40
  -4   5   4    0.20    0.60
   3  -5  -4    7.70    1.10
  -3   5   4   10.30    1.70
  -3   5   4   10.00    1.40
   2  -5  -4  348.37   23.30
  -2   5   4  457.65   24.30
  -2   5   4  458.25   23.60
   1  -5  -4   15.10    1.50
   1  -5  -4   13.60    1.50
  -1   5   4   10.80    1.40
  -1   5   4   12.40    1.90
   0  -5  -4   51.19    3.60
   0  -5  -4   45.80    3.20
   0   5   4   42.40    3.20
   0   5   4   46.70    3.80
  -1  -5  -4    0.60    0.60
  -1  -5  -4    0.80    0.50
   1   5   4    0.50    0.60
   1   5   4    1.20    0.80
  -2  -5  -4    3.10    1.00
  -2  -5  -4    1.60    0.70
   2   5   4    1.40    0.70
   2   5   4    1.10    0.90
  -3  -5  -4   29.90    2.70
  -3  -5  -4   30.30    3.10
   3   5   4   30.20    3.50
   3   5   4   29.90    2.80
  -4  -5  -4   21.60    3.00
   4   5   4   20.20    2.50
   4   5   4   14.60    2.50
  -5  -5  -4   85.89    6.60
  -5  -5  -4   87.69    5.90
   5   5   4   70.49    6.20
   5   5   4   77.39    5.90
   9  -6  -4  339.47   20.90
  -9   6   4  359.86   20.80
   8  -6  -4   33.30    3.60
  -8   6   4   34.30    3.20
   7  -6  -4   -0.20    0.60
  -7   6   4    1.80    0.90
   6  -6  -4   15.80    2.30
   6  -6  -4   17.60    2.20
  -6   6   4   17.50    2.40
  -6   6   4   17.10    2.20
   5  -6  -4   16.40    2.00
   5  -6  -4   17.20    2.40
  -5   6   4   16.20    2.50
  -5   6   4   18.30    2.20
   4  -6  -4  219.28   12.70
   4  -6  -4  206.98   11.90
  -4   6   4  196.08   12.60
  -4   6   4  189.78   12.10
   3  -6  -4    0.40    0.50
  -3   6   4   -0.80    0.60
  -3   6   4   -0.10    0.50
   2  -6  -4   65.49    4.60
  -2   6   4   79.29    4.90
  -2   6   4   71.59    5.40
   1  -6  -4  123.39    6.70
   1  -6  -4   87.49    6.20
  -1   6   4   93.39    6.30
  -1   6   4  103.99    7.10
   0  -6  -4  163.58    9.40
   0  -6  -4  156.68    9.70
   0   6   4  151.68   10.20
   0   6   4  152.18    9.30
  -1  -6  -4    1.80    0.70
  -1  -6  -4    3.20    1.10
   1   6   4    2.40    0.90
   1   6   4    3.10    1.20
  -2  -6  -4  224.28   13.40
  -2  -6  -4  249.28   14.10
   2   6   4  226.68   13.60
   2   6   4  200.18   14.00
  -3  -6  -4    3.50    1.10
  -3  -6  -4    3.30    1.30
   3   6   4    5.80    1.70
   3   6   4    5.00    1.20
  -4  -6  -4   39.00    3.90
  -4  -6  -4   34.80    3.20
   4   6   4   31.50    4.10
   4   6   4   38.10    3.40
   8  -7  -4   63.89    5.10
  -8   7   4   67.89    5.20
   7  -7  -4   41.90    3.60
  -7   7   4   42.70    3.70
   6  -7  -4   14.40    2.00
   6  -7  -4   14.30    2.40
  -6   7   4   13.70    2.10
  -6   7   4   17.40    2.60
   5  -7  -4   11.30    1.80
   5  -7  -4   18.90    2.70
  -5   7   4   17.80    2.80
  -5   7   4   18.10    2.30
   4  -7  -4  302.87   17.00
   4  -7  -4  291.97   17.80
  -4   7   4  288.87   17.90
  -4   7   4  290.77   17.30
   3  -7  -4    9.70    1.40
  -3   7   4    8.80    2.00
  -3   7   4   10.30    1.60
   2  -7  -4  165.58   10.20
  -2   7   4  169.28   11.30
  -2   7   4  183.58   10.60
   1  -7  -4   62.09    4.50
   1  -7  -4   63.49    4.20
  -1   7   4   57.39    4.30
  -1   7   4   60.59    5.00
   0  -7  -4    9.80    1.70
   0  -7  -4   10.40    1.50
   0   7   4   11.20    2.10
  -1  -7  -4  122.99    8.10
  -1  -7  -4  139.49    8.70
   1   7   4  126.89    9.10
  -2  -7  -4   35.00    3.60
  -2  -7  -4   44.90    3.30
   2   7   4   40.80    3.40
   2   7   4   34.40    4.30
  -3  -7  -4    1.00    0.80
  -3  -7  -4    0.70    1.00
   3   7   4    0.40    1.20
   3   7   4    1.10    0.90
  -4  -7  -4    2.00    1.40
   4   7   4    2.50    1.70
   7  -8  -4   10.60    1.90
  -7   8   4   12.60    2.20
   6  -8  -4   -0.60    0.70
   6  -8  -4    1.60    1.10
  -6   8   4    0.30    1.00
  -6   8   4    0.50    0.80
   5  -8  -4   72.99    5.90
   5  -8  -4   72.19    5.10
  -5   8   4   74.69    6.00
  -5   8   4   74.29    5.50
   4  -8  -4  131.09    9.40
   4  -8  -4  132.29    8.50
  -4   8   4  144.09    8.90
  -4   8   4  137.19    9.50
   3  -8  -4   41.10    4.00
   3  -8  -4   40.70    3.20
  -3   8   4   45.60    4.20
  -3   8   4   37.30    3.40
   2  -8  -4   38.50    3.20
  -2   8   4   47.00    3.60
  -2   8   4   53.59    4.60
   1  -8  -4   40.00    3.30
   1  -8  -4   40.90    3.10
  -1   8   4   35.50    4.30
  -1   8   4   35.70    3.10
   0  -8  -4   10.50    1.80
   0  -8  -4    9.40    1.50
   0   8   4    7.40    2.00
  -1  -8  -4  278.37   16.10
  -1  -8  -4  290.87   16.70
   1   8   4  245.68   17.10
  -2  -8  -4  135.79    9.60
  -2  -8  -4  149.49    9.10
   2   8   4  141.49   10.10
  -3  -8  -4   -0.20    1.00
   3   8   4    1.30    1.60
   6  -9  -4   22.50    2.70
   6  -9  -4   20.50    3.20
  -6   9   4   19.70    2.90
   5  -9  -4   89.99    7.20
   5  -9  -4   86.39    6.20
  -5   9   4   99.39    7.40
  -5   9   4   94.89    6.70
   4  -9  -4   32.90    4.30
   4  -9  -4   40.70    3.20
  -4   9   4   29.90    4.20
  -4   9   4   38.00    3.50
   3  -9  -4   25.30    2.40
   3  -9  -4   22.30    3.60
  -3   9   4   29.20    3.20
  -3   9   4   25.70    3.80
   2  -9  -4   55.79    4.00
   2  -9  -4   56.09    5.20
  -2   9   4   59.79    5.30
  -2   9   4   50.49    4.20
   1  -9  -4   43.40    3.40
  -1   9   4   44.40    5.10
   0  -9  -4   42.40    3.40
   0   9   4   39.10    5.00
  -1  -9  -4  170.18   10.20
  -1  -9  -4  166.18   10.70
   1   9   4  147.19   11.40
  -2  -9  -4    1.30    1.20
  -5  10   4   16.30    3.50
   4 -10  -4   12.70    2.90
   4 -10  -4   15.70    2.20
  -4  10   4   15.90    3.10
  -4  10   4   14.50    2.40
   3 -10  -4    1.20    1.40
   3 -10  -4    2.80    1.10
  -3  10   4    1.20    1.00
  -3  10   4    1.50    1.80
   2 -10  -4    4.10    1.20
  -2  10   4    3.70    1.30
   1 -10  -4    0.50    0.90
  -1 -12   5   10.50    2.40
   0 -12   5   34.60    4.50
   1 -12   5   25.40    4.20
   3  11  -5   66.79    5.70
  -3 -11   5   92.99    6.50
   2  11  -5    5.80    2.30
   2  11  -5    6.70    1.70
  -2 -11   5    8.10    2.00
   1  11  -5    8.00    2.30
   1  11  -5    5.70    1.60
  -1 -11   5    6.40    1.80
  -1 -11   5    7.60    1.80
   0  11  -5    6.30    2.00
   0  11  -5    7.40    1.70
   0 -11   5    5.70    1.70
   0 -11   5    7.50    2.00
  -1  11  -5    0.10    0.80
  -1  11  -5    1.50    1.40
   1 -11   5   -1.10    0.90
  -2  11  -5    2.40    1.40
  -2  11  -5    0.30    0.80
   2 -11   5    1.30    1.30
  -3  11  -5   20.20    4.60
  -3  11  -5   16.00    2.40
   3 -11   5   12.20    2.70
  -4  11  -5    0.20    0.90
   4 -11   5    0.20    1.10
   4  10  -5    0.50    1.40
  -4 -10   5    2.40    1.30
  -4 -10   5    0.70    1.60
   3  10  -5   22.80    3.80
   3  10  -5   22.80    2.80
  -3 -10   5   22.20    3.00
   2  10  -5   94.89    7.50
  -2 -10   5   81.69    6.40
  -2 -10   5   92.99    6.70
   1  10  -5   15.80    2.90
   1  10  -5   17.50    2.40
  -1 -10   5   15.50    2.50
  -1 -10   5   21.20    2.80
   0  10  -5  102.59    7.50
   0  10  -5  102.29    8.20
   0 -10   5  133.89    8.10
   0 -10   5  114.99    8.00
  -1  10  -5    2.30    1.30
  -1  10  -5    0.70    0.80
   1 -10   5    0.90    1.00
  -2  10  -5   79.59    6.00
  -2  10  -5   82.19    6.70
   2 -10   5   95.09    6.70
  -3  10  -5   29.00    3.30
  -3  10  -5   28.90    3.80
   3 -10   5   20.70    3.20
  -4  10  -5    0.40    0.90
  -4  10  -5    0.40    0.90
   4 -10   5    0.00    1.10
  -5  10  -5    0.50    0.90
  -5  10  -5   -1.10    1.00
   5 -10   5    0.40    1.10
  -6  10  -5    1.30    1.50
   5   9  -5    4.00    1.90
  -5  -9   5    4.70    1.40
  -5  -9   5    3.50    1.80
   4   9  -5    1.80    1.60
  -4  -9   5    0.80    1.00
  -4  -9   5    1.80    1.50
   3   9  -5   21.30    2.60
   3   9  -5   29.60    4.00
  -3  -9   5   20.00    2.80
   2   9  -5   45.80    3.80
   2   9  -5   42.70    4.40
  -2  -9   5   49.90    4.00
  -2  -9   5   48.20    4.10
   1   9  -5  128.09    8.70
  -1  -9   5  123.99    8.00
  -1  -9   5  104.29    7.80
   0   9  -5    0.50    0.50
   0   9  -5    0.60    0.90
   0  -9   5   -0.20    0.70
   0  -9   5   -0.10    0.70
  -1   9  -5   15.90    2.60
  -1   9  -5   18.30    2.40
   1  -9   5   17.10    2.60
  -2   9  -5   12.50    2.00
  -2   9  -5   13.10    2.40
   2  -9   5   14.50    2.40
  -3   9  -5    0.30    0.70
  -3   9  -5    0.10    0.80
   3  -9   5    0.90    0.90
  -4   9  -5   13.70    2.10
  -4   9  -5   15.30    2.70
   4  -9   5   15.50    2.70
  -5   9  -5  103.59    7.70
  -5   9  -5   98.49    6.90
   5  -9   5  101.69    7.60
  -6   9  -5    4.50    1.80
   6  -9   5    4.90    1.80
   6   8  -5   41.90    5.30
  -6  -8   5   29.30    5.10
   5   8  -5    6.40    2.10
  -5  -8   5    4.20    1.90
  -5  -8   5    8.10    1.70
   4   8  -5   15.80    3.00
  -4  -8   5   18.60    2.50
   3   8  -5   38.70    3.40
   3   8  -5   47.60    4.40
  -3  -8   5   45.50    3.70
   2   8  -5   -0.70    0.50
   2   8  -5   -0.10    0.60
  -2  -8   5   -0.70    0.60
  -2  -8   5   -0.40    0.60
   1   8  -5   33.00    2.70
   1   8  -5   24.70    3.40
  -1  -8   5   20.70    2.70
  -1  -8   5   28.10    3.10
   0   8  -5    4.70    1.50
   0   8  -5    5.40    1.20
   0  -8   5    6.80    1.40
   0  -8   5    6.80    1.50
  -1   8  -5    0.60    0.90
  -1   8  -5    1.60    0.70
   1  -8   5    0.40    0.70
  -2   8  -5   53.09    4.40
  -2   8  -5   51.29    3.90
   2  -8   5   46.90    4.10
  -3   8  -5    9.10    1.60
  -3   8  -5    9.50    2.00
   3  -8   5    7.90    1.70
  -4   8  -5   38.50    3.20
  -4   8  -5   39.00    3.80
   4  -8   5   38.80    3.70
  -5   8  -5    6.00    1.80
  -5   8  -5    3.10    1.00
   5  -8   5    5.50    1.70
  -6   8  -5    4.80    1.80
   6  -8   5    7.70    2.10
  -7   8  -5    4.80    1.80
   7  -8   5    6.70    2.10
   7   7  -5   78.99    7.30
   6   7  -5   39.30    5.20
  -6  -7   5   46.10    3.80
  -6  -7   5   41.30    5.80
   5   7  -5   45.20    5.20
  -5  -7   5   37.80    3.40
  -5  -7   5   36.10    5.00
   4   7  -5   25.10    3.60
  -4  -7   5   29.30    3.10
   3   7  -5    4.60    1.10
   3   7  -5    6.20    1.80
  -3  -7   5    9.70    1.60
  -3  -7   5    6.80    1.30
   2   7  -5  883.51   49.99
   2   7  -5  843.62   49.10
  -2  -7   5  895.21   49.10
  -2  -7   5  901.21   49.30
   1   7  -5  249.78   15.20
   1   7  -5  264.37   15.90
  -1  -7   5  269.87   15.40
  -1  -7   5  253.37   15.30
   0   7  -5   17.30    2.50
   0   7  -5   19.70    2.10
   0  -7   5   13.40    2.00
   0  -7   5   15.30    2.00
  -1   7  -5    0.50    0.50
  -1   7  -5   -0.20    0.40
   1  -7   5   -0.10    0.50
  -2   7  -5   23.90    2.90
  -2   7  -5   19.20    2.20
   2  -7   5   18.60    2.50
  -3   7  -5   74.29    5.00
  -3   7  -5   68.69    5.50
   3  -7   5   74.99    5.50
  -4   7  -5  300.07   16.80
  -4   7  -5  280.27   17.50
   4  -7   5  282.37   17.40
  -5   7  -5    5.20    1.20
  -5   7  -5    5.00    1.60
   5  -7   5    2.90    1.30
  -6   7  -5   13.40    2.60
   6  -7   5   11.10    2.30
  -7   7  -5  325.77   20.70
   7  -7   5  344.47   20.70
   7   6  -5  114.09    9.10
  -7  -6   5  114.39    9.50
   6   6  -5   12.60    2.60
  -6  -6   5   14.20    2.10
  -6  -6   5   15.30    3.20
   5   6  -5    4.10    1.60
  -5  -6   5    4.20    1.20
  -5  -6   5    4.80    1.90
   4   6  -5   21.00    3.00
  -4  -6   5   18.20    2.20
   3   6  -5    5.40    1.50
  -3  -6   5    3.50    0.80
  -3  -6   5    3.40    1.00
   2   6  -5   80.79    6.20
   2   6  -5   81.49    5.50
  -2  -6   5   90.59    5.60
  -2  -6   5   87.59    5.70
   1   6  -5  424.86   23.50
   1   6  -5  388.16   24.00
  -1  -6   5  420.06   23.60
  -1  -6   5  418.06   23.60
   0   6  -5    1.40    0.60
   0   6  -5    0.50    0.70
   0  -6   5    1.10    0.70
   0  -6   5    0.10    0.50
  -1   6  -5   74.59    5.50
  -1   6  -5   74.79    5.10
   1  -6   5   81.89    5.40
  -2   6  -5  125.09    8.60
  -2   6  -5  141.99    8.20
   2  -6   5  129.89    8.50
  -3   6  -5  176.28   10.60
  -3   6  -5  176.08   11.20
   3  -6   5  177.98   11.10
  -4   6  -5  171.68   10.40
  -4   6  -5  187.58   11.30
   4  -6   5  164.68   11.00
  -5   6  -5   77.49    5.90
   5  -6   5   76.29    5.80
  -6   6  -5    1.50    1.10
   6  -6   5    1.00    1.20
  -7   6  -5    2.90    1.30
   7  -6   5    4.30    1.60
   8   5  -5  101.59    6.60
  -8  -5   5   73.69    7.70
   7   5  -5   -0.10    0.70
   7   5  -5    1.90    1.50
  -7  -5   5   -0.10    1.00
   6   5  -5  135.49    9.70
  -6  -5   5  131.19   10.00
  -6  -5   5  133.49    8.50
   5   5  -5   71.99    4.50
   5   5  -5   64.49    5.50
  -5  -5   5   59.09    5.70
  -5  -5   5   68.49    4.80
   4   5  -5   45.30    4.10
   4   5  -5   47.60    3.20
  -4  -5   5   48.00    3.60
   3   5  -5  174.18   10.00
   3   5  -5  174.58   11.20
  -3  -5   5  179.38   10.60
   2   5  -5  886.71   47.40
   2   5  -5  937.51   46.70
  -2  -5   5  765.62   46.50
  -2  -5   5  779.12   46.70
   1   5  -5   12.80    1.60
   1   5  -5   17.00    2.30
  -1  -5   5   16.70    1.60
  -1  -5   5   14.50    1.80
   0   5  -5    4.90    0.90
   0   5  -5    6.10    1.40
   0  -5   5    4.60    1.00
   0  -5   5    4.50    0.90
  -1   5  -5    5.60    1.30
  -1   5  -5    6.30    1.10
   1  -5   5    5.80    1.10
   1  -5   5    5.60    1.00
  -2   5  -5  134.29    7.90
  -2   5  -5  126.39    8.30
   2  -5   5  129.49    8.30
  -3   5  -5  890.91   47.50
  -3   5  -5  840.52   48.10
   3  -5   5  835.32   48.00
  -4   5  -5   17.90    1.70
  -4   5  -5   20.00    2.60
   4  -5   5   18.50    2.50
  -5   5  -5    3.40    1.20
   5  -5   5    2.90    1.20
  -6   5  -5    6.00    1.80
   6  -5   5   10.20    2.00
  -7   5  -5   42.90    4.30
   7  -5   5   47.50    4.30
   8   4  -5    7.60    1.70
  -8  -4   5    8.10    2.40
   7   4  -5    0.10    0.60
   7   4  -5    0.00    1.10
  -7  -4   5   -0.10    1.00
  -7  -4   5   -0.40    1.20
   6   4  -5  223.38   13.50
   6   4  -5  226.48   14.70
  -6  -4   5  221.88   13.60
  -6  -4   5  253.97   15.50
   5   4  -5  158.58   10.60
   5   4  -5  164.58    9.60
  -5  -4   5  167.08   11.20
  -5  -4   5  151.98    9.70
   4   4  -5  135.49    8.20
   4   4  -5  139.69    9.20
  -4  -4   5  139.39    8.50
   3   4  -5    8.90    1.00
   3   4  -5    6.00    1.40
  -3  -4   5    5.70    1.10
  -3  -4   5    9.70    1.10
   2   4  -5  152.78    8.10
   2   4  -5  137.39    9.00
  -2  -4   5  141.49    8.40
  -2  -4   5  134.79    8.60
   1   4  -5  168.98   10.20
   1   4  -5  160.58   10.70
  -1  -4   5  204.38   10.50
  -1  -4   5  171.28   10.30
   0   4  -5  114.29    7.60
   0   4  -5  124.99    7.30
   0  -4   5  123.59    7.40
   0  -4   5  118.99    7.30
  -1   4  -5  183.08   10.10
  -1   4  -5  153.18    9.50
  -1   4  -5  194.08   10.70
   1  -4   5  161.38    9.50
   1  -4   5  190.68   10.50
   1  -4   5  180.98   10.20
  -2   4  -5   32.30    2.20
  -2   4  -5   28.40    2.50
   2  -4   5   26.20    2.20
   2  -4   5   27.30    1.80
   2  -4   5   27.50    2.50
  -3   4  -5  802.62   45.30
  -3   4  -5  784.12   44.60
  -3   4  -5  825.52   44.50
   3  -4   5  830.92   44.70
   3  -4   5  781.82   44.50
   3  -4   5  816.72   45.30
  -4   4  -5    1.90    1.00
   4  -4   5    1.40    0.60
   4  -4   5    1.80    0.90
  -5   4  -5  114.09    8.00
   5  -4   5  115.19    7.30
   5  -4   5  123.49    8.00
  -6   4  -5   10.80    2.10
   6  -4   5   10.90    1.60
   6  -4   5   15.40    2.30
  -7   4  -5    4.70    1.70
   7  -4   5    3.10    1.50
   7  -4   5    4.70    1.50
   9   3  -5    2.50    1.20
  -9  -3   5    0.50    1.10
   8   3  -5    6.40    1.50
  -8  -3   5    7.40    2.30
   7   3  -5  108.69    7.20
   7   3  -5  111.59    8.30
  -7  -3   5  109.09    7.10
  -7  -3   5  111.29    8.70
   6   3  -5  328.67   19.90
   6   3  -5  328.27   18.80
  -6  -3   5  350.06   18.80
  -6  -3   5  286.17   20.00
   5   3  -5    4.80    1.40
   5   3  -5    4.30    0.90
  -5  -3   5    5.20    1.00
  -5  -3   5    3.90    1.50
   4   3  -5   11.00    1.90
   4   3  -5   11.50    1.30
  -4  -3   5   13.00    1.60
   3   3  -5   62.69    4.60
   3   3  -5   61.19    3.90
  -3  -3   5   63.79    3.80
  -3  -3   5   63.49    4.20
   2   3  -5    2.90    0.90
   2   3  -5    1.20    0.30
  -2  -3   5    2.00    0.50
  -2  -3   5    1.90    0.60
   1   3  -5  474.05   23.00
   1   3  -5  406.36   23.90
  -1  -3   5  388.96   23.50
  -1  -3   5  398.86   23.60
   0   3  -5  634.84   34.30
   0   3  -5  646.74   34.80
   0   3  -5  540.35   33.80
   0  -3   5  625.84   34.50
   0  -3   5  661.13   34.40
  -1   3  -5   14.60    1.20
  -1   3  -5   15.60    1.60
   1  -3   5   17.00    1.60
   1  -3   5   10.80    1.30
   1  -3   5   13.80    1.00
  -2   3  -5  282.17   17.10
  -2   3  -5  269.87   16.50
  -2   3  -5  328.47   16.60
   2  -3   5  297.27   17.10
   2  -3   5  289.97   16.40
   2  -3   5  295.77   16.60
  -3   3  -5  699.33   37.50
  -3   3  -5  689.93   36.60
   3  -3   5  630.64   36.70
   3  -3   5  666.63   37.40
   3  -3   5  634.84   36.70
  -4   3  -5    2.00    1.00
  -4   3  -5    2.10    0.70
   4  -3   5    1.60    0.60
   4  -3   5    1.50    0.80
  -5   3  -5   55.69    4.10
  -5   3  -5   62.89    4.80
   5  -3   5   58.89    4.10
   5  -3   5   57.99    4.60
  -6   3  -5    1.00    1.10
   6  -3   5    1.30    0.90
   6  -3   5    3.50    1.00
  -7   3  -5    2.40    1.20
   7  -3   5    3.00    1.10
   7  -3   5    0.80    1.00
   8  -3   5  450.65   26.20
   9   2  -5   10.90    2.00
  -9  -2   5    8.60    2.70
   8   2  -5   24.70    2.90
  -8  -2   5   24.90    2.60
  -8  -2   5   21.40    3.80
   7   2  -5   58.09    4.40
  -7  -2   5   61.49    4.30
  -7  -2   5   60.09    5.60
   6   2  -5  343.47   21.10
   6   2  -5  341.67   20.10
  -6  -2   5  338.07   20.10
  -6  -2   5  391.36   21.80
   5   2  -5   14.70    2.20
   5   2  -5   11.50    1.50
  -5  -2   5   13.70    1.70
  -5  -2   5   14.40    2.50
   4   2  -5   90.99    5.30
   4   2  -5   82.79    6.00
  -4  -2   5   83.79    5.50
   3   2  -5    4.40    0.70
   3   2  -5    6.60    1.20
  -3  -2   5    6.70    1.10
  -3  -2   5    6.10    0.70
   2   2  -5  149.49    9.00
   2   2  -5  132.79    8.20
  -2  -2   5  153.18    8.50
  -2  -2   5  153.78    8.70
   1   2  -5  367.26   20.50
  -1  -2   5  327.27   20.10
  -1  -2   5  382.96   20.20
   0   2  -5   79.39    4.30
   0   2  -5   69.49    4.90
   0  -2   5   77.29    4.90
   0  -2   5   77.39    4.80
  -1   2  -5   29.20    2.20
  -1   2  -5   42.20    2.50
  -1   2  -5   37.10    2.80
   1  -2   5   37.50    2.30
   1  -2   5   35.10    2.50
   1  -2   5   39.10    2.80
  -2   2  -5   81.39    5.80
  -2   2  -5   94.69    5.60
   2  -2   5   92.29    5.40
   2  -2   5   96.49    5.40
   2  -2   5   84.29    5.90
  -3   2  -5    6.70    1.10
  -3   2  -5    6.90    1.40
   3  -2   5    7.20    1.30
   3  -2   5    7.30    1.00
  -4   2  -5    3.80    1.10
  -4   2  -5    2.30    0.70
   4  -2   5    1.70    0.60
   4  -2   5    1.10    0.70
  -5   2  -5    2.40    1.10
  -5   2  -5    3.80    1.00
   5  -2   5    3.90    1.00
   5  -2   5    2.00    1.00
  -6   2  -5   21.40    3.00
  -6   2  -5   16.40    2.30
   6  -2   5   18.70    2.30
   6  -2   5   17.50    2.50
  -7   2  -5    1.30    1.20
   7  -2   5    1.20    1.00
   7  -2   5    2.00    0.90
   8  -2   5  152.58   10.00
   9   1  -5   28.00    3.30
  -9  -1   5   21.10    3.90
   8   1  -5    0.80    0.80
  -8  -1   5    0.20    0.60
  -8  -1   5    0.70    1.30
   7   1  -5  209.28   12.20
  -7  -1   5  199.68   13.40
  -7  -1   5  195.08   12.00
   6   1  -5   31.20    2.60
   6   1  -5   32.50    3.20
  -6  -1   5   26.20    2.40
  -6  -1   5   30.00    3.80
   5   1  -5    2.60    0.70
   5   1  -5    1.80    0.90
  -5  -1   5    2.10    0.70
  -5  -1   5    0.50    0.80
   4   1  -5    8.60    1.50
   4   1  -5    6.80    1.00
  -4  -1   5    8.90    1.20
  -4  -1   5    8.10    0.60
  -4  -1   5    7.60    1.60
   3   1  -5  245.08   13.20
   3   1  -5  219.98   13.70
  -3  -1   5  230.88   13.40
  -3  -1   5  236.78   13.10
   2   1  -5    6.70    0.60
   2   1  -5    5.70    1.00
  -2  -1   5    4.90    0.80
  -2  -1   5    4.30    0.80
   1   1  -5 1500.55   82.29
   1   1  -5 1477.15   81.69
  -1  -1   5 1475.55   82.09
  -1  -1   5 1529.25   82.09
   0   1  -5  186.28    9.80
   0   1  -5  161.68    9.20
   0  -1   5  153.18    9.60
   0  -1   5  155.98    9.40
  -1   1  -5  194.98   11.50
  -1   1  -5  200.08   11.10
  -1   1  -5  190.08   11.30
   1  -1   5  191.68   11.60
   1  -1   5  199.98   11.10
   1  -1   5  202.08   11.10
  -2   1  -5  246.78   13.50
  -2   1  -5  240.78   13.70
   2  -1   5  217.28   13.70
   2  -1   5  233.08   13.00
   2  -1   5  228.48   13.30
  -3   1  -5  110.09    7.10
  -3   1  -5  110.29    6.80
   3  -1   5  104.79    7.00
   3  -1   5  105.89    6.60
  -4   1  -5  298.87   18.70
  -4   1  -5  328.37   18.50
   4  -1   5  335.57   18.80
   4  -1   5  309.67   18.20
  -5   1  -5    4.80    1.30
  -5   1  -5    4.20    1.10
   5  -1   5    4.60    1.30
   5  -1   5    6.40    1.20
  -6   1  -5    2.50    1.20
  -6   1  -5    0.70    0.80
   6  -1   5    0.60    1.00
   6  -1   5    0.50    0.70
  -7   1  -5   59.59    5.30
  -7   1  -5   59.29    4.90
   7  -1   5   53.49    4.90
   7  -1   5   59.39    4.60
 -10   0   5    7.30    2.50
   9   0  -5   11.00    2.00
  -9   0   5    6.70    2.20
   8   0  -5   13.10    2.10
  -8   0   5   16.80    2.10
  -8   0   5   18.40    3.20
   7   0  -5   17.90    2.30
  -7   0   5   20.00    2.20
  -7   0   5   22.00    3.30
   6   0  -5   14.20    1.80
  -6   0   5   17.40    2.70
  -6   0   5   14.80    1.80
   5   0  -5   11.00    1.40
   5   0  -5   11.00    1.80
  -5   0   5   11.20    1.40
  -5   0   5    8.40    1.80
   4   0  -5  144.39    9.00
   4   0  -5  161.98    9.50
  -4   0   5  143.19    9.60
  -4   0   5  158.48    8.80
  -4   0   5  160.28    9.20
   3   0  -5   76.39    4.90
   3   0  -5   69.59    4.40
  -3   0   5   76.19    4.50
  -3   0   5   71.19    4.60
   2   0  -5    5.50    0.90
   2   0  -5    5.60    0.70
  -2   0   5    4.20    0.80
  -2   0   5    4.10    0.80
   1   0  -5   26.10    1.70
   1   0  -5   27.40    2.00
  -1   0   5   23.20    2.00
  -1   0   5   25.90    1.90
   0   0  -5    8.50    1.10
   0   0  -5    7.90    1.10
   0   0  -5    6.20    0.80
   0   0   5    8.60    1.00
   0   0   5    7.50    1.10
   0   0   5    6.70    0.80
  -1   0  -5   18.10    1.30
  -1   0  -5   16.10    1.50
  -1   0  -5   17.10    1.50
   1   0   5   14.80    1.30
   1   0   5   13.00    1.70
   1   0   5   16.50    1.20
  -2   0  -5   82.99    4.70
  -2   0  -5   67.69    4.60
   2   0   5   67.19    4.80
   2   0   5   57.79    4.30
  -3   0  -5   45.90    3.40
  -3   0  -5   39.10    3.30
   3   0   5   39.70    3.40
   3   0   5   45.40    3.10
  -4   0  -5   93.29    6.00
  -4   0  -5   72.89    5.90
   4   0   5   84.59    6.00
   4   0   5   91.69    5.70
  -5   0  -5   21.70    2.40
  -5   0  -5   23.00    3.00
   5   0   5   22.80    2.90
   5   0   5   21.70    2.40
  -6   0  -5   76.49    6.10
  -6   0  -5   75.39    5.80
   6   0   5   78.19    5.80
   6   0   5   74.19    5.40
  -7   0  -5   11.90    2.50
  -7   0  -5   10.60    2.10
   7   0   5    8.30    1.80
  10  -1  -5    0.90    1.30
 -10   1   5    1.40    1.50
   9  -1  -5   -0.40    0.70
  -9   1   5    0.30    1.40
  -9   1   5   -0.20    0.60
   8  -1  -5    9.60    1.70
  -8   1   5    8.90    1.50
  -8   1   5    8.60    2.20
   7  -1  -5   33.90    2.90
  -7   1   5   34.00    2.80
  -7   1   5   28.20    3.80
   6  -1  -5   13.50    1.80
  -6   1   5   17.30    2.00
  -6   1   5   16.90    2.50
   5  -1  -5    5.30    1.00
  -5   1   5    5.70    1.40
  -5   1   5    3.10    0.80
   4  -1  -5   43.50    3.00
   4  -1  -5   44.10    3.20
  -4   1   5   46.80    2.90
  -4   1   5   40.00    3.00
  -4   1   5   44.00    3.50
   3  -1  -5    1.70    0.40
   3  -1  -5    2.50    0.60
  -3   1   5    3.70    0.70
  -3   1   5    1.90    0.50
   2  -1  -5  168.58    9.50
   2  -1  -5  167.38    9.60
  -2   1   5  163.08    9.80
  -2   1   5  165.98    9.60
   1  -1  -5    6.20    0.80
   1  -1  -5    9.60    0.90
  -1   1   5    7.70    1.20
  -1   1   5    8.60    1.00
   0  -1  -5   37.30    2.60
   0  -1  -5   42.80    2.80
   0  -1  -5   40.20    2.90
   0   1   5   44.70    2.60
   0   1   5   38.10    3.00
   0   1   5   38.60    2.70
  -1  -1  -5    1.20    0.50
  -1  -1  -5    1.60    0.60
  -1  -1  -5    2.00    0.50
   1   1   5    1.40    0.60
   1   1   5    1.30    0.50
   1   1   5    1.30    0.30
  -2  -1  -5   36.90    3.20
  -2  -1  -5   50.09    3.40
   2   1   5   42.60    3.50
   2   1   5   50.79    3.20
  -3  -1  -5   17.10    2.00
  -3  -1  -5   21.00    2.10
   3   1   5   21.10    2.50
   3   1   5   20.40    1.90
  -4  -1  -5  187.98   10.80
  -4  -1  -5  176.38   10.70
   4   1   5  140.79   10.00
   4   1   5  168.28   10.60
  -5  -1  -5    7.90    1.70
  -5  -1  -5   10.10    1.90
   5   1   5    7.10    1.40
   5   1   5    6.60    1.60
  -6  -1  -5    0.90    1.10
  -6  -1  -5    2.40    1.30
   6   1   5    4.30    1.20
   6   1   5    4.40    1.40
  -7  -1  -5   43.30    5.00
  -7  -1  -5   32.90    3.80
   7   1   5   43.80    3.80
 -10   2   5   -0.70    1.30
   9  -2  -5    3.00    1.30
  -9   2   5    5.80    1.90
  -9   2   5    5.10    1.30
   8  -2  -5    0.40    0.80
  -8   2   5   -0.10    0.90
  -8   2   5    0.00    0.60
   7  -2  -5   35.80    3.10
  -7   2   5   35.00    3.50
  -7   2   5   38.50    3.00
   6  -2  -5   22.90    2.10
  -6   2   5   19.20    2.60
  -6   2   5   18.40    2.20
   5  -2  -5   49.60    3.60
   5  -2  -5   47.80    3.40
  -5   2   5   53.39    3.90
  -5   2   5   49.50    3.40
  -5   2   5   46.30    3.50
   4  -2  -5   84.39    5.30
  -4   2   5   82.09    5.40
  -4   2   5   92.29    5.60
  -4   2   5   84.99    5.40
   3  -2  -5  102.89    6.20
   3  -2  -5  103.89    6.20
  -3   2   5  108.59    6.50
  -3   2   5  101.79    6.30
  -3   2   5  104.79    6.40
   2  -2  -5    0.60    0.30
   2  -2  -5    0.70    0.30
  -2   2   5    1.80    0.50
  -2   2   5    0.10    0.30
   1  -2  -5    3.60    0.50
   1  -2  -5    3.80    0.70
   1  -2  -5    3.50    0.80
  -1   2   5    4.50    0.90
  -1   2   5    3.70    0.70
   0  -2  -5    0.80    0.40
   0  -2  -5    0.60    0.30
   0  -2  -5    0.90    0.30
   0   2   5    0.20    0.40
   0   2   5    1.50    0.40
   0   2   5    0.70    0.40
  -1  -2  -5    0.10    0.40
  -1  -2  -5    0.30    0.40
  -1  -2  -5    0.40    0.40
   1   2   5    0.10    0.20
   1   2   5    0.10    0.30
   1   2   5    0.30    0.50
  -2  -2  -5  112.29    6.10
  -2  -2  -5   84.69    6.30
  -2  -2  -5   97.69    6.20
   2   2   5   96.69    6.50
   2   2   5   92.79    6.00
  -3  -2  -5   22.40    2.30
  -3  -2  -5   23.30    2.50
   3   2   5   26.20    3.00
   3   2   5   26.40    2.20
  -4  -2  -5    1.00    0.80
  -4  -2  -5    3.40    1.20
   4   2   5    2.90    1.10
   4   2   5    2.90    1.00
  -5  -2  -5   -0.10    0.70
  -5  -2  -5   -0.50    0.50
   5   2   5   -0.20    0.60
   5   2   5   -0.90    0.80
  -6  -2  -5    8.90    2.10
  -6  -2  -5    5.60    1.80
   6   2   5    7.40    1.70
   6   2   5    4.50    1.50
  -7  -2  -5   22.60    3.60
   9  -3  -5    2.10    1.10
  -9   3   5    0.80    0.80
   8  -3  -5   24.80    3.00
  -8   3   5   30.50    2.70
   7  -3  -5   16.80    2.20
  -7   3   5   18.00    2.10
   6  -3  -5   88.39    5.90
  -6   3   5   92.89    6.00
   5  -3  -5   54.29    3.80
   5  -3  -5   55.49    3.80
  -5   3   5   55.39    3.90
  -5   3   5   53.19    3.80
   4  -3  -5   34.10    2.30
  -4   3   5   24.00    2.40
  -4   3   5   30.10    2.40
   3  -3  -5   92.09    5.50
  -3   3   5   92.99    5.70
  -3   3   5   82.79    5.80
   2  -3  -5   21.70    1.70
  -2   3   5   22.60    2.10
  -2   3   5   24.20    1.90
   1  -3  -5    2.20    0.50
   1  -3  -5    1.90    0.70
  -1   3   5    3.20    0.60
  -1   3   5    4.10    1.00
   0  -3  -5    1.80    0.60
   0  -3  -5    1.70    0.60
   0   3   5    1.80    0.50
   0   3   5    1.60    0.80
  -1  -3  -5   20.10    1.80
  -1  -3  -5   22.70    2.10
   1   3   5   17.70    2.40
   1   3   5   20.40    1.80
  -2  -3  -5   52.49    3.80
  -2  -3  -5   53.69    3.70
  -2  -3  -5   57.89    4.20
   2   3   5   50.19    4.20
   2   3   5   49.20    3.70
  -3  -3  -5    5.70    1.30
  -3  -3  -5    7.50    1.60
  -3  -3  -5    6.10    1.20
   3   3   5    6.10    1.40
   3   3   5    6.20    1.30
  -4  -3  -5   59.19    5.90
  -4  -3  -5   54.19    4.50
   4   3   5   53.59    4.60
   4   3   5   52.99    4.10
  -5  -3  -5   18.30    2.80
   5   3   5   18.60    2.90
   5   3   5   18.60    2.50
  -6  -3  -5   27.60    3.80
   6   3   5   25.50    3.10
 -10   4   5    2.10    1.10
   9  -4  -5    2.30    1.20
  -9   4   5    1.20    0.90
   8  -4  -5  178.38   11.20
  -8   4   5  175.58   11.00
   7  -4  -5    0.20    0.70
  -7   4   5    1.00    0.70
   6  -4  -5    7.70    1.30
  -6   4   5    4.00    1.10
   5  -4  -5    1.10    0.70
   5  -4  -5   -0.20    0.30
  -5   4   5   -0.30    0.50
  -5   4   5    0.50    0.60
   4  -4  -5    2.20    0.70
  -4   4   5    3.10    0.80
  -4   4   5    2.60    0.90
   3  -4  -5   17.30    1.60
  -3   4   5   18.60    2.30
  -3   4   5   18.40    1.70
   2  -4  -5   15.50    1.50
  -2   4   5   18.50    1.70
  -2   4   5   20.90    2.40
   1  -4  -5   54.69    3.70
   1  -4  -5   43.10    3.20
  -1   4   5   44.20    3.70
  -1   4   5   51.09    3.30
   0  -4  -5  100.59    6.40
   0  -4  -5  102.39    6.70
   0   4   5  106.39    6.30
   0   4   5  106.59    7.00
  -1  -4  -5  144.79    9.50
  -1  -4  -5  163.78    9.20
   1   4   5  157.58    9.30
   1   4   5  143.69    9.70
  -2  -4  -5    0.40    0.50
  -2  -4  -5   -0.80    0.40
   2   4   5    0.00    0.50
   2   4   5   -0.50    0.60
  -3  -4  -5    7.70    1.60
  -3  -4  -5    6.10    1.30
   3   4   5    6.70    1.70
   3   4   5    6.30    1.40
  -4  -4  -5    3.00    1.00
  -4  -4  -5    3.10    1.20
   4   4   5    1.80    1.20
   4   4   5    2.20    1.00
  -5  -4  -5    1.90    1.00
  -5  -4  -5    0.20    0.90
   5   4   5    0.80    1.00
   5   4   5    1.20    1.30
   9  -5  -5    1.80    1.10
  -9   5   5    0.40    1.00
   8  -5  -5    1.10    1.00
  -8   5   5    1.90    1.00
   7  -5  -5    3.90    1.10
  -7   5   5    2.10    1.00
   6  -5  -5  194.38   11.90
  -6   5   5  201.68   12.00
   5  -5  -5    1.30    0.80
   5  -5  -5    1.30    0.70
  -5   5   5    1.90    0.90
  -5   5   5    1.00    0.70
   4  -5  -5   51.59    3.70
  -4   5   5   53.39    3.90
  -4   5   5   54.29    4.20
   3  -5  -5    5.90    1.00
  -3   5   5    7.40    1.20
  -3   5   5    5.40    1.40
   2  -5  -5    9.70    1.30
  -2   5   5   11.70    1.90
  -2   5   5    8.30    1.30
   1  -5  -5   21.50    2.10
   1  -5  -5   22.20    1.90
  -1   5   5   22.40    1.90
  -1   5   5   17.60    2.50
   0  -5  -5   31.30    2.80
   0  -5  -5   32.20    2.50
   0   5   5   30.30    3.00
   0   5   5   30.90    2.40
  -1  -5  -5   71.59    4.60
  -1  -5  -5   80.99    5.20
   1   5   5   53.69    4.90
   1   5   5   58.59    4.60
  -2  -5  -5   21.40    2.40
  -2  -5  -5   26.00    2.60
   2   5   5   24.70    2.70
   2   5   5   21.30    3.00
  -3  -5  -5   13.80    1.90
  -3  -5  -5   10.60    2.10
   3   5   5    8.00    2.00
   3   5   5   11.50    1.80
  -4  -5  -5    1.60    0.90
  -4  -5  -5    1.20    1.00
   4   5   5    1.90    1.10
   4   5   5    1.20    1.20
   5   5   5   36.60    4.50
  -9   6   5    4.60    1.50
   8  -6  -5  154.38   10.10
  -8   6   5  157.48   10.10
   7  -6  -5   19.60    2.60
  -7   6   5   28.00    3.00
   6  -6  -5   11.20    1.80
  -6   6   5   12.20    1.90
  -6   6   5   10.60    2.00
   5  -6  -5    6.20    1.20
   5  -6  -5    5.20    1.50
  -5   6   5    6.20    1.60
  -5   6   5    4.70    1.20
   4  -6  -5    8.30    1.30
  -4   6   5    8.80    1.50
  -4   6   5    4.70    1.40
   3  -6  -5   36.30    2.90
  -3   6   5   38.00    3.60
  -3   6   5   41.70    3.10
   2  -6  -5   -0.50    0.30
  -2   6   5   -0.50    0.50
  -2   6   5    0.20    0.80
   1  -6  -5  268.87   15.40
   1  -6  -5  273.97   15.80
  -1   6   5  269.07   15.50
  -1   6   5  250.87   16.30
   0  -6  -5    4.10    1.20
   0  -6  -5    2.90    0.90
   0   6   5    3.40    1.40
  -1  -6  -5   65.79    4.80
  -1  -6  -5   56.99    4.20
   1   6   5   51.99    4.90
  -2  -6  -5    8.10    1.40
  -2  -6  -5   10.20    2.00
   2   6   5    6.70    1.90
   2   6   5    8.50    1.60
  -3  -6  -5    3.30    1.30
  -3  -6  -5    4.20    1.10
   3   6   5    2.90    1.10
   3   6   5    2.60    1.40
  -4  -6  -5   53.49    4.90
  -4  -6  -5   39.30    4.60
   4   6   5   52.89    4.90
   4   6   5   53.69    5.00
   8  -7  -5    9.80    1.90
  -8   7   5    6.10    1.60
   7  -7  -5   18.20    2.50
  -7   7   5   20.00    2.70
   6  -7  -5   -0.80    0.60
   6  -7  -5    0.10    0.90
  -6   7   5   -0.10    0.70
  -6   7   5   -0.70    0.70
   5  -7  -5  105.89    6.80
   5  -7  -5   98.99    7.40
  -5   7   5  105.59    7.00
  -5   7   5   99.79    7.50
   4  -7  -5  164.98   10.00
   4  -7  -5  172.18   11.00
  -4   7   5  157.88   10.90
  -4   7   5  164.58   10.30
   3  -7  -5   18.50    2.10
  -3   7   5   20.90    3.10
  -3   7   5   20.30    2.40
   2  -7  -5   35.10    2.70
  -2   7   5   36.30    4.20
  -2   7   5   33.20    2.90
   1  -7  -5    3.30    0.90
   1  -7  -5    2.00    0.90
  -1   7   5    0.50    1.00
  -1   7   5    3.50    0.90
   0  -7  -5   17.40    2.40
   0  -7  -5   15.00    1.90
   0   7   5   17.90    2.90
  -1  -7  -5   60.59    4.40
  -1  -7  -5   57.29    4.80
   1   7   5   63.29    5.40
  -2  -7  -5    1.60    0.90
  -2  -7  -5    1.80    1.10
   2   7   5    2.60    1.40
  -3  -7  -5    0.40    0.90
   3   7   5    0.60    1.10
   3   7   5    0.50    1.30
   7  -8  -5  136.49    8.90
  -7   8   5  130.69    9.10
   6  -8  -5    3.40    1.40
   6  -8  -5    1.90    1.00
  -6   8   5    2.50    1.30
  -6   8   5    2.30    1.20
   5  -8  -5   50.79    3.90
   5  -8  -5   49.60    4.60
  -5   8   5   48.90    4.70
  -5   8   5   45.70    4.00
   4  -8  -5    0.80    0.80
   4  -8  -5    0.80    1.00
  -4   8   5   -0.50    0.70
  -4   8   5   -0.50    0.90
   3  -8  -5    5.00    1.20
  -3   8   5    4.30    1.80
  -3   8   5    5.00    1.30
   2  -8  -5   15.90    2.10
  -2   8   5   25.40    3.60
  -2   8   5   20.60    2.40
   1  -8  -5   11.10    1.90
   1  -8  -5   10.30    1.60
  -1   8   5    8.50    2.20
   0  -8  -5    6.10    1.30
   0   8   5    5.20    1.90
  -1  -8  -5   25.50    2.80
  -1  -8  -5   25.60    3.30
   1   8   5   21.90    3.60
  -2  -8  -5   66.59    5.60
   6  -9  -5    3.10    1.60
  -6   9   5    2.50    1.50
   5  -9  -5  385.66   22.10
   5  -9  -5  389.76   23.20
  -5   9   5  379.46   22.40
  -5   9   5  355.36   23.20
   4  -9  -5   30.70    4.20
   4  -9  -5   31.50    3.00
  -4   9   5   31.60    3.60
  -4   9   5   35.80    4.60
   3  -9  -5   -0.10    0.60
   3  -9  -5    1.60    1.40
  -3   9   5    0.80    1.40
  -3   9   5   -0.40    0.80
   2  -9  -5    3.20    1.10
  -2   9   5    4.60    1.30
  -2   9   5    4.40    1.90
   1  -9  -5    8.00    1.50
  -1   9   5   10.60    2.70
   0  -9  -5    5.50    1.80
  -1 -12   6    9.20    2.90
   0 -12   6   54.49    5.20
   3  11  -6   26.50    4.40
   2  11  -6    7.70    1.80
   2  11  -6    3.70    1.90
  -2 -11   6    6.10    1.80
   1  11  -6    4.10    1.80
   1  11  -6    1.80    1.20
  -1 -11   6    6.20    1.80
  -1 -11   6    3.20    1.50
   0  11  -6    9.40    2.50
   0  11  -6    6.70    1.60
   0 -11   6    6.50    1.90
   0 -11   6   10.00    2.10
  -1  11  -6    1.40    1.00
  -1  11  -6    0.90    1.30
   1 -11   6   -0.30    1.00
   1 -11   6   -0.60    0.90
  -2  11  -6    0.20    1.20
  -2  11  -6   -0.50    0.80
   2 -11   6    0.00    1.00
   2 -11   6    0.50    1.10
  -3  11  -6   13.80    2.30
  -3  11  -6   12.30    2.80
   3 -11   6   13.30    2.60
  -4  11  -6   36.90    4.70
  -4  11  -6   33.80    3.80
  -5 -10   6    3.50    1.50
   4  10  -6    9.30    2.70
  -4 -10   6   12.70    2.40
  -4 -10   6   11.50    3.00
   3  10  -6    0.80    1.40
   3  10  -6   -1.20    0.60
  -3 -10   6   -0.80    0.80
   2  10  -6    5.60    1.50
   2  10  -6    7.10    2.20
  -2 -10   6    8.60    1.90
   1  10  -6   71.69    5.40
   1  10  -6   70.89    6.20
  -1 -10   6   76.89    5.70
  -1 -10   6   64.79    5.50
   0  10  -6    7.00    2.10
   0  10  -6    7.10    1.60
   0 -10   6    5.50    1.60
   0 -10   6    6.10    1.70
  -1  10  -6   39.50    3.50
  -1  10  -6   38.50    4.80
   1 -10   6   34.80    4.10
  -2  10  -6  107.59    7.20
  -2  10  -6  106.99    8.00
   2 -10   6   94.39    7.50
  -3  10  -6    1.70    1.20
  -3  10  -6   -0.70    0.70
   3 -10   6   -0.90    1.00
  -4  10  -6   15.90    2.40
  -4  10  -6   10.70    2.50
   4 -10   6   16.40    2.80
  -5  10  -6   49.10    4.30
  -5  10  -6   53.09    5.20
   5   9  -6    0.30    1.50
  -5  -9   6    1.00    1.10
  -5  -9   6    1.20    1.80
   4   9  -6   55.09    5.60
  -4  -9   6   57.59    4.70
   3   9  -6    0.60    0.80
   3   9  -6    1.30    1.30
  -3  -9   6    1.00    1.00
   2   9  -6   11.70    1.90
   2   9  -6   10.10    2.40
  -2  -9   6   10.10    1.90
  -2  -9   6    8.00    1.90
   1   9  -6    2.50    1.40
   1   9  -6    2.80    1.10
  -1  -9   6    0.60    0.90
  -1  -9   6    1.00    0.90
   0   9  -6   -0.40    0.60
   0   9  -6    0.40    1.00
   0  -9   6   -0.60    0.70
   0  -9   6   -0.30    0.70
  -1   9  -6    4.00    1.60
  -1   9  -6    8.50    1.60
   1  -9   6    4.70    1.40
   1  -9   6    6.90    1.60
  -2   9  -6    0.10    0.70
  -2   9  -6    0.40    1.00
   2  -9   6    0.20    0.80
  -3   9  -6   15.10    2.80
  -3   9  -6   16.80    2.30
   3  -9   6   15.40    2.60
  -4   9  -6    0.70    1.10
  -4   9  -6    2.30    1.10
   4  -9   6    0.70    1.20
  -5   9  -6   37.10    4.70
   5  -9   6   36.90    4.40
  -6   9  -6    0.30    1.30
   6   8  -6    6.30    2.20
  -6  -8   6    6.30    2.70
  -6  -8   6    8.00    1.90
   5   8  -6    1.20    1.20
  -5  -8   6    1.80    1.60
  -5  -8   6    1.10    0.90
   4   8  -6   10.80    2.50
  -4  -8   6    8.00    1.70
   3   8  -6   14.00    2.70
   3   8  -6   12.70    1.90
  -3  -8   6   11.20    2.00
   2   8  -6   97.39    6.50
   2   8  -6   95.49    7.30
  -2  -8   6  105.39    6.60
  -2  -8   6   81.69    6.50
   1   8  -6  145.89   10.30
   1   8  -6  166.58    9.70
  -1  -8   6  151.88    9.70
  -1  -8   6  142.69    9.70
   0   8  -6   23.50    3.30
   0   8  -6   30.00    2.60
   0  -8   6   26.80    3.00
   0  -8   6   21.60    2.80
  -1   8  -6  407.46   23.40
  -1   8  -6  404.56   24.10
   1  -8   6  357.96   23.30
   1  -8   6  453.05   23.80
  -2   8  -6  111.19    8.30
  -2   8  -6  120.99    7.80
   2  -8   6  129.59    8.30
  -3   8  -6    0.00    0.60
  -3   8  -6    0.20    0.90
   3  -8   6    1.40    0.90
  -4   8  -6   -0.30    0.50
  -4   8  -6    0.10    0.90
   4  -8   6    0.00    0.90
  -5   8  -6   14.20    2.80
   5  -8   6   12.90    2.50
  -6   8  -6   -0.70    0.70
   6  -8   6    2.60    1.40
   7   7  -6   62.19    6.30
  -7  -7   6   67.49    6.80
   6   7  -6   23.80    3.80
  -6  -7   6   13.30    3.40
  -6  -7   6   22.30    2.80
   5   7  -6    0.40    1.10
  -5  -7   6    0.40    1.20
  -5  -7   6    1.10    0.80
   4   7  -6    0.40    1.10
  -4  -7   6    1.40    0.90
   3   7  -6    8.70    2.00
  -3  -7   6   12.40    1.90
   2   7  -6  194.48   12.70
   2   7  -6  194.78   11.90
  -2  -7   6  206.68   11.90
  -2  -7   6  190.28   12.00
   1   7  -6    7.80    1.40
   1   7  -6    6.50    1.70
  -1  -7   6    8.90    1.60
  -1  -7   6    9.70    1.60
   0   7  -6    0.00    0.60
   0   7  -6   -0.50    0.50
   0  -7   6    0.80    0.70
   0  -7   6   -0.80    0.50
  -1   7  -6   31.50    3.10
  -1   7  -6   31.30    2.70
   1  -7   6   32.00    2.90
   1  -7   6   29.40    2.80
  -2   7  -6   68.79    4.40
  -2   7  -6   51.59    4.70
   2  -7   6   56.29    4.30
   2  -7   6   59.39    4.60
  -3   7  -6    0.90    0.60
  -3   7  -6    1.60    1.10
   3  -7   6    0.50    0.80
  -4   7  -6  163.68   10.80
  -4   7  -6  159.78    9.90
   4  -7   6  161.58   10.70
  -5   7  -6    3.10    1.40
   5  -7   6    6.80    1.80
  -6   7  -6   64.29    5.60
   6  -7   6   59.89    5.40
   7  -7   6   49.80    4.90
   7   6  -6    4.20    2.00
  -7  -6   6    2.00    1.00
  -7  -6   6    2.70    2.00
   6   6  -6   15.30    3.00
  -6  -6   6   11.80    1.90
  -6  -6   6    3.20    1.90
   5   6  -6    0.70    1.10
  -5  -6   6    0.90    1.20
  -5  -6   6    1.10    0.80
   4   6  -6    8.00    1.90
  -4  -6   6    5.40    1.30
   3   6  -6  130.59    9.10
  -3  -6   6  137.99    8.20
  -3  -6   6  132.09    8.50
   2   6  -6  103.79    6.80
   2   6  -6  116.79    7.70
  -2  -6   6  105.69    6.80
  -2  -6   6  103.39    7.00
   1   6  -6   -0.30    0.30
   1   6  -6    0.00    0.60
  -1  -6   6   -0.60    0.40
  -1  -6   6   -0.30    0.50
   0   6  -6   49.99    4.00
   0   6  -6   44.40    3.40
   0  -6   6   44.10    3.50
   0  -6   6   44.50    3.50
  -1   6  -6  294.87   16.20
  -1   6  -6  294.77   16.80
   1  -6   6  279.37   16.40
   1  -6   6  243.38   16.10
  -2   6  -6   43.70    3.60
  -2   6  -6   35.70    2.90
   2  -6   6   32.30    3.10
   2  -6   6   35.50    2.90
  -3   6  -6  334.77   18.50
  -3   6  -6  313.17   19.20
   3  -6   6  330.77   18.50
   3  -6   6  299.87   19.00
  -4   6  -6    0.10    0.50
  -4   6  -6    0.20    0.80
   4  -6   6    0.10    0.70
  -5   6  -6    5.00    1.60
   5  -6   6    3.30    1.40
  -6   6  -6    3.70    1.50
   6  -6   6    1.10    1.20
  -7   6  -6    4.20    1.70
   7  -6   6    3.20    1.70
  -8  -5   6   37.20    5.40
   7   5  -6  283.27   18.40
  -7  -5   6  299.27   19.10
  -7  -5   6  275.67   16.80
   6   5  -6    0.00    0.60
  -6  -5   6    1.30    0.90
  -6  -5   6    1.00    1.30
   5   5  -6   21.80    3.20
  -5  -5   6   22.40    3.60
  -5  -5   6   19.10    2.40
   4   5  -6   34.60    3.50
  -4  -5   6   36.30    3.00
   3   5  -6  968.30   55.89
  -3  -5   6  985.80   54.79
  -3  -5   6 1024.20   55.29
   2   5  -6   61.29    5.10
  -2  -5   6   65.89    4.50
  -2  -5   6   78.69    4.90
   1   5  -6  200.98   10.90
   1   5  -6  184.88   11.50
  -1  -5   6  167.78   10.90
  -1  -5   6  180.38   10.90
   0   5  -6   48.20    4.00
   0   5  -6   52.99    3.60
   0  -5   6   50.89    3.70
   0  -5   6   49.40    3.70
  -1   5  -6   17.30    2.40
  -1   5  -6   22.90    1.90
   1  -5   6   21.80    2.50
   1  -5   6   24.10    2.10
  -2   5  -6    0.20    0.40
  -2   5  -6   -0.10    0.60
   2  -5   6    0.00    0.40
   2  -5   6   -0.40    0.50
  -3   5  -6   59.99    4.80
  -3   5  -6   64.09    4.20
   3  -5   6   58.69    4.20
   3  -5   6   65.99    4.90
  -4   5  -6    4.50    1.30
   4  -5   6    6.90    1.60
  -5   5  -6    6.70    1.70
   5  -5   6    4.60    1.50
  -6   5  -6  125.69    8.70
   6  -5   6  109.49    8.20
  -7   5  -6   27.30    4.00
   7  -5   6   28.40    3.70
   9   4  -6  101.29    7.20
   8   4  -6   53.39    4.20
  -8  -4   6   45.10    6.20
   7   4  -6    6.30    1.30
   7   4  -6    2.70    1.30
  -7  -4   6    5.10    1.20
  -7  -4   6    8.10    2.30
   6   4  -6   23.70    2.20
   6   4  -6   25.40    3.60
  -6  -4   6   26.70    2.40
  -6  -4   6   18.00    3.40
   5   4  -6    0.20    0.40
   5   4  -6    0.00    0.70
  -5  -4   6   -0.50    0.80
  -5  -4   6    0.80    0.70
   4   4  -6   82.59    5.00
   4   4  -6   73.09    5.90
  -4  -4   6   82.79    5.50
   3   4  -6  229.78   14.10
   3   4  -6  255.47   15.30
  -3  -4   6  262.97   14.30
  -3  -4   6  259.47   14.70
   2   4  -6   97.89    7.00
  -2  -4   6  115.89    6.50
  -2  -4   6   96.59    6.60
   1   4  -6   70.89    5.50
  -1  -4   6   79.59    5.30
  -1  -4   6   90.59    5.30
   0   4  -6   23.00    2.20
   0   4  -6   22.40    1.80
   0  -4   6   19.10    1.90
   0  -4   6   21.70    1.90
  -1   4  -6    5.70    1.30
  -1   4  -6    6.30    1.00
   1  -4   6    5.30    1.00
   1  -4   6    6.00    1.20
  -2   4  -6 1426.26   80.59
  -2   4  -6 1466.95   79.99
   2  -4   6 1480.15   80.09
   2  -4   6 1443.76   80.59
  -3   4  -6  869.11   44.80
  -3   4  -6  700.93   45.40
   3  -4   6  801.82   45.60
   3  -4   6  859.41   44.90
  -4   4  -6   46.00    4.00
   4  -4   6   48.00    4.00
  -5   4  -6    0.40    0.80
   5  -4   6    0.20    0.80
  -6   4  -6    1.10    1.20
   6  -4   6    0.00    0.90
  -7   4  -6    5.10    1.70
   7  -4   6    3.80    1.70
   9   3  -6    1.00    0.90
  -9  -3   6   -0.10    1.10
   8   3  -6  115.49    7.70
  -8  -3   6  119.79    9.40
  -8  -3   6  110.79    7.50
   7   3  -6    3.40    1.50
   7   3  -6    2.90    1.00
  -7  -3   6    2.70    1.00
  -7  -3   6    2.10    1.40
   6   3  -6   21.00    3.20
   6   3  -6   28.50    2.40
  -6  -3   6   25.50    2.40
  -6  -3   6   23.40    3.70
   5   3  -6    8.80    1.90
   5   3  -6   13.00    1.60
  -5  -3   6   12.20    2.50
  -5  -3   6   11.60    1.70
   4   3  -6  216.28   12.10
   4   3  -6  205.38   13.00
  -4  -3   6  205.48   12.40
   3   3  -6  528.05   29.20
   3   3  -6  487.95   28.10
  -3  -3   6  549.54   28.30
  -3  -3   6  468.55   28.60
   2   3  -6  110.49    7.00
  -2  -3   6  108.79    6.40
  -2  -3   6   97.59    6.50
   1   3  -6   79.59    4.10
   1   3  -6   63.69    4.90
  -1  -3   6   63.49    4.60
  -1  -3   6   69.89    4.70
   0   3  -6   34.30    2.90
   0   3  -6   35.50    2.00
   0  -3   6   33.50    2.70
   0  -3   6   35.00    2.60
  -1   3  -6    3.10    0.90
  -1   3  -6    2.40    0.40
   1  -3   6    2.60    0.70
   1  -3   6    3.90    0.50
   1  -3   6    2.80    0.90
  -2   3  -6  137.19    8.10
  -2   3  -6  128.29    7.50
   2  -3   6  122.09    8.00
   2  -3   6  121.49    7.40
   2  -3   6  117.79    7.20
  -3   3  -6   85.29    6.10
  -3   3  -6   94.39    5.60
   3  -3   6   85.99    5.40
   3  -3   6   79.69    6.00
  -4   3  -6    1.90    0.70
  -4   3  -6    0.30    0.70
   4  -3   6    0.70    0.80
   4  -3   6    1.10    0.60
  -5   3  -6   17.90    2.60
   5  -3   6   17.60    2.00
   5  -3   6   14.60    2.40
  -6   3  -6   37.10    3.80
   6  -3   6   39.30    3.70
   6  -3   6   31.60    3.00
  -7   3  -6    0.20    0.90
   7  -3   6   -0.10    1.10
   9   2  -6    0.60    0.90
  -9  -2   6    0.90    1.50
   8   2  -6    2.60    1.10
  -8  -2   6    3.60    1.10
  -8  -2   6    4.50    1.90
   7   2  -6  314.57   17.80
   7   2  -6  307.37   18.90
  -7  -2   6  298.37   19.30
  -7  -2   6  291.57   17.70
   6   2  -6  101.99    7.20
   6   2  -6   93.79    6.20
  -6  -2   6   93.89    6.30
  -6  -2   6   97.69    7.50
   5   2  -6   51.79    3.50
   5   2  -6   47.80    4.10
  -5  -2   6   49.70    4.50
  -5  -2   6   46.10    3.60
   4   2  -6   89.09    6.20
  -4  -2   6   90.89    5.80
   3   2  -6   50.49    3.70
   3   2  -6   40.60    3.00
  -3  -2   6   50.79    3.10
  -3  -2   6   51.89    3.50
   2   2  -6  157.08   10.00
   2   2  -6  176.58   10.80
  -2  -2   6  181.28   10.40
  -2  -2   6  209.98   10.70
   1   2  -6  265.97   15.80
   1   2  -6  295.07   15.00
  -1  -2   6  256.07   15.40
  -1  -2   6  257.07   15.50
   0   2  -6   75.89    4.10
   0   2  -6   67.59    4.80
   0  -2   6   68.89    4.70
   0  -2   6   69.39    4.50
  -1   2  -6  244.58   14.60
  -1   2  -6  244.58   14.20
   1  -2   6  264.77   14.00
   1  -2   6  245.98   14.20
   1  -2   6  241.98   14.60
  -2   2  -6 2252.37  130.89
   2  -2   6 2585.14  130.39
   2  -2   6 2156.98  130.29
   2  -2   6 2537.15  131.09
  -3   2  -6   59.19    4.30
  -3   2  -6   58.19    3.90
   3  -2   6   51.69    4.20
   3  -2   6   52.59    3.70
  -4   2  -6    6.60    1.20
  -4   2  -6    5.60    1.50
   4  -2   6    5.00    1.00
   4  -2   6    5.00    1.30
  -5   2  -6    0.40    0.60
  -5   2  -6    1.10    0.90
   5  -2   6   -0.40    0.70
   5  -2   6    0.20    0.60
  -6   2  -6   52.89    4.60
  -6   2  -6   46.30    4.50
   6  -2   6   48.50    3.90
   6  -2   6   49.20    4.40
  -7   2  -6   84.49    7.30
   7  -2   6  102.09    6.80
   7  -2   6  101.89    7.40
   9   1  -6   12.20    2.20
  -9  -1   6    9.30    1.70
  -9  -1   6   10.30    2.70
   8   1  -6    0.70    0.80
  -8  -1   6    0.20    1.20
  -8  -1   6    0.40    0.70
   7   1  -6    1.10    0.70
  -7  -1   6    2.30    0.80
  -7  -1   6    0.60    1.10
   6   1  -6  211.78   13.30
   6   1  -6  221.18   12.50
  -6  -1   6  199.48   12.40
  -6  -1   6  204.98   13.60
   5   1  -6   50.19    3.20
   5   1  -6   42.90    3.70
  -5  -1   6   38.10    3.90
  -5  -1   6   40.00    3.20
   4   1  -6   54.39    3.60
   4   1  -6   55.99    4.20
  -4  -1   6   53.99    3.40
  -4  -1   6   56.69    3.90
   3   1  -6  151.68    9.10
  -3  -1   6  140.09    8.80
  -3  -1   6  150.68    8.60
   2   1  -6  290.37   15.60
   2   1  -6  272.27   16.10
  -2  -1   6  282.17   15.90
  -2  -1   6  267.27   15.90
   1   1  -6  178.08    9.00
   1   1  -6  155.48    9.60
  -1  -1   6  150.98    9.50
  -1  -1   6  149.59    9.30
   0   1  -6  125.69    8.10
   0   1  -6  150.48    8.70
   0  -1   6  157.28    8.80
   0  -1   6  144.39    8.30
  -1   1  -6    2.80    0.50
  -1   1  -6    3.50    0.90
  -1   1  -6    3.10    0.70
   1  -1   6    3.60    0.60
   1  -1   6    4.70    1.00
   1  -1   6    2.90    0.60
  -2   1  -6   16.20    1.80
   2  -1   6   23.20    1.80
   2  -1   6   29.60    2.50
  -3   1  -6   25.70    2.60
  -3   1  -6   28.90    2.50
   3  -1   6   28.00    2.70
   3  -1   6   27.80    2.20
  -4   1  -6   27.40    2.80
  -4   1  -6   28.80    2.60
   4  -1   6   31.50    3.00
   4  -1   6   27.10    2.40
  -5   1  -6   22.40    2.40
  -5   1  -6   19.20    2.90
   5  -1   6   23.20    3.00
   5  -1   6   24.90    2.30
  -6   1  -6   80.19    6.40
  -6   1  -6   90.99    7.00
   6  -1   6  101.49    6.40
   6  -1   6   95.39    6.90
  -7   1  -6  210.68   14.30
   7  -1   6  223.38   14.20
   7  -1   6  220.98   13.50
 -10   0   6   -0.40    1.50
   9   0  -6   35.40    3.30
  -9   0   6   22.30    4.00
  -9   0   6   32.70    3.00
   8   0  -6   51.09    4.50
  -8   0   6   69.19    5.80
  -8   0   6   63.99    4.50
   7   0  -6  206.48   12.60
  -7   0   6  209.58   12.50
  -7   0   6  208.38   13.60
   6   0  -6    1.00    0.90
   6   0  -6    2.20    0.80
  -6   0   6    1.20    1.00
  -6   0   6    1.30    0.70
   5   0  -6   25.40    2.60
   5   0  -6   32.10    2.40
  -5   0   6   28.60    2.40
  -5   0   6   30.50    3.10
   4   0  -6   92.39    4.90
   4   0  -6   75.09    5.20
  -4   0   6   70.59    5.40
  -4   0   6   69.49    4.90
  -4   0   6   73.29    4.60
   3   0  -6  240.08   13.30
   3   0  -6  228.88   13.70
  -3   0   6  236.08   13.40
  -3   0   6  229.68   13.50
   2   0  -6  844.82   47.60
   2   0  -6  867.11   48.10
  -2   0   6  892.21   48.00
  -2   0   6  864.51   47.90
   1   0  -6    1.60    0.40
   1   0  -6    1.80    0.60
  -1   0   6    2.10    0.70
  -1   0   6    0.80    0.40
   0   0  -6    3.00    0.70
   0   0  -6    2.40    0.70
   0   0  -6    1.40    0.40
   0   0   6    3.20    0.80
   0   0   6    1.50    0.50
  -1   0  -6  499.05   27.10
   1   0   6  421.66   26.70
   1   0   6  519.95   26.60
  -2   0  -6   90.79    5.60
  -2   0  -6   92.39    6.00
  -2   0  -6   85.49    5.90
   2   0   6   96.49    5.70
   2   0   6   91.19    6.20
  -3   0  -6  106.39    7.00
  -3   0  -6  106.59    7.10
   3   0   6  110.39    7.30
   3   0   6  104.59    6.70
  -4   0  -6   63.19    5.00
  -4   0  -6   66.49    5.20
   4   0   6   73.89    5.40
   4   0   6   72.39    4.80
  -5   0  -6    0.50    0.70
  -5   0  -6    1.60    0.90
   5   0   6    0.40    0.80
   5   0   6    0.10    0.70
  -6   0  -6   10.00    2.10
  -6   0  -6   16.90    2.80
   6   0   6   13.70    2.10
   6   0   6   14.30    2.60
  -7   0  -6  103.09    7.90
   7   0   6   95.89    7.10
 -10   1   6   28.70    4.40
   9  -1  -6    7.80    1.70
  -9   1   6    9.40    2.40
  -9   1   6    5.80    1.40
   8  -1  -6    0.10    0.60
  -8   1   6    1.20    1.20
  -8   1   6    0.40    0.60
   7  -1  -6   57.39    4.20
  -7   1   6   53.39    4.10
  -7   1   6   58.79    5.00
   6  -1  -6   52.29    3.60
  -6   1   6   42.00    4.00
  -6   1   6   47.00    3.60
   5  -1  -6   33.30    2.90
   5  -1  -6   28.90    2.50
  -5   1   6   33.20    3.10
  -5   1   6   34.80    2.70
   4  -1  -6  126.89    8.00
   4  -1  -6  136.49    7.80
  -4   1   6  124.09    7.70
  -4   1   6  122.69    7.80
  -4   1   6  138.39    8.30
   3  -1  -6   10.20    1.30
   3  -1  -6   10.40    1.20
  -3   1   6   10.00    1.30
  -3   1   6   10.40    1.30
   2  -1  -6  594.94   32.60
  -2   1   6  599.34   32.90
  -2   1   6  565.84   32.60
   1  -1  -6   16.70    1.30
   1  -1  -6   15.90    1.40
  -1   1   6   16.10    2.00
  -1   1   6   16.30    1.40
   0  -1  -6  258.57   13.80
   0  -1  -6  197.48   13.20
   0  -1  -6  250.47   13.50
   0   1   6  234.98   13.90
   0   1   6  233.18   13.20
  -1  -1  -6   12.90    1.40
  -1  -1  -6   11.30    1.60
  -1  -1  -6   13.10    1.60
   1   1   6    9.00    1.60
   1   1   6    8.60    1.20
  -2  -1  -6    2.80    0.90
  -2  -1  -6    4.10    1.00
  -2  -1  -6    4.20    0.90
   2   1   6    2.60    1.00
   2   1   6    4.20    0.90
  -3  -1  -6   53.99    4.00
  -3  -1  -6   41.60    3.70
   3   1   6   46.30    4.00
   3   1   6   48.70    3.50
  -4  -1  -6    4.60    1.30
  -4  -1  -6    7.10    1.50
   4   1   6    4.30    1.10
   4   1   6    4.40    1.50
  -5  -1  -6   25.30    3.20
  -5  -1  -6   24.10    3.20
   5   1   6   25.90    3.40
   5   1   6   24.30    2.90
  -6  -1  -6    2.00    1.20
  -6  -1  -6    2.90    1.60
   6   1   6    3.10    1.50
   6   1   6    3.00    1.20
 -10   2   6    5.90    1.60
   9  -2  -6   24.40    3.10
  -9   2   6   20.40    2.70
   8  -2  -6   13.60    2.10
  -8   2   6   14.30    2.10
   7  -2  -6    3.30    1.00
  -7   2   6    1.40    0.80
   6  -2  -6    2.60    0.90
  -6   2   6    4.00    1.00
  -6   2   6    4.60    1.60
   5  -2  -6   40.70    3.10
  -5   2   6   41.40    3.20
   4  -2  -6    4.90    0.90
  -4   2   6    5.70    1.00
  -4   2   6    4.00    0.90
   3  -2  -6   59.09    3.70
  -3   2   6   54.89    3.80
  -3   2   6   53.39    3.90
   2  -2  -6  159.98    9.00
  -2   2   6  151.58    9.40
  -2   2   6  149.79    9.10
   1  -2  -6    8.40    1.00
  -1   2   6    5.20    1.10
  -1   2   6    8.40    1.10
   0  -2  -6   15.20    1.50
   0  -2  -6   17.50    1.50
   0  -2  -6   22.20    1.90
   0   2   6   19.50    2.30
   0   2   6   16.60    1.40
  -1  -2  -6   10.40    1.60
  -1  -2  -6   10.00    1.30
  -1  -2  -6    8.80    1.30
   1   2   6   10.20    1.70
   1   2   6   10.10    1.40
  -2  -2  -6   16.40    1.90
  -2  -2  -6   20.00    2.00
  -2  -2  -6   15.80    2.20
   2   2   6   16.10    2.30
   2   2   6   19.00    2.10
  -3  -2  -6  292.07   17.30
  -3  -2  -6  298.57   17.10
  -3  -2  -6  293.67   16.80
   3   2   6  285.87   16.80
   3   2   6  267.87   17.30
  -4  -2  -6   39.40    3.20
  -4  -2  -6   39.40    3.60
  -4  -2  -6   27.90    3.10
   4   2   6   38.80    3.20
   4   2   6   37.50    3.60
  -5  -2  -6   32.50    3.50
   5   2   6   37.70    4.20
   5   2   6   32.90    3.10
  -6  -2  -6    3.00    1.40
   6   2   6    5.30    1.80
   6   2   6    2.50    1.20
 -10   3   6   14.40    2.30
   9  -3  -6    0.40    0.90
  -9   3   6   -1.20    0.70
   8  -3  -6    1.70    1.00
  -8   3   6   -0.10    0.70
   7  -3  -6   18.10    2.30
  -7   3   6   17.40    2.30
   6  -3  -6   24.60    2.30
  -6   3   6   26.10    2.40
   5  -3  -6   23.00    2.00
  -5   3   6   22.60    2.20
  -5   3   6   24.60    2.20
   4  -3  -6    3.60    0.80
  -4   3   6    4.00    0.90
  -4   3   6    4.00    1.00
   3  -3  -6   49.60    3.20
  -3   3   6   46.20    3.60
  -3   3   6   44.60    3.30
   2  -3  -6    9.50    1.20
  -2   3   6    7.30    1.40
  -2   3   6   11.20    1.40
   1  -3  -6    1.20    0.50
   1  -3  -6    1.40    0.70
  -1   3   6    1.60    0.60
  -1   3   6    1.50    0.70
   0  -3  -6    0.50    0.40
   0  -3  -6    1.00    0.60
   0   3   6    0.80    0.60
   0   3   6    0.90    0.50
  -1  -3  -6   24.70    2.10
  -1  -3  -6   25.70    2.40
   1   3   6   23.20    2.90
   1   3   6   26.60    2.30
  -2  -3  -6    0.90    0.60
  -2  -3  -6    2.30    1.00
   2   3   6    0.90    0.60
   2   3   6    1.30    0.90
  -3  -3  -6   15.80    2.40
  -3  -3  -6   18.40    2.20
   3   3   6   19.30    2.80
   3   3   6   16.00    2.10
  -4  -3  -6   -0.30    0.70
  -4  -3  -6    0.10    0.70
   4   3   6    0.80    1.00
   4   3   6    2.30    1.00
  -5  -3  -6   -0.20    0.60
  -5  -3  -6    0.60    0.90
   5   3   6   -0.40    1.00
   5   3   6   -0.30    0.60
   9  -4  -6    6.30    1.60
  -9   4   6    5.10    1.50
   8  -4  -6    0.60    0.90
  -8   4   6    0.40    0.80
   7  -4  -6    3.80    1.10
  -7   4   6    4.30    1.20
   6  -4  -6    2.40    0.90
  -6   4   6    2.00    0.90
   5  -4  -6    6.20    1.20
  -5   4   6    5.50    1.30
  -5   4   6    7.40    1.30
   4  -4  -6   37.50    2.80
  -4   4   6   36.50    2.90
  -4   4   6   37.50    3.20
   3  -4  -6   24.10    2.00
  -3   4   6   24.40    2.10
  -3   4   6   21.90    2.70
   2  -4  -6   30.40    2.40
  -2   4   6   33.10    2.60
  -2   4   6   35.90    3.10
   1  -4  -6    7.90    1.40
   1  -4  -6    7.30    1.10
  -1   4   6    7.20    1.50
  -1   4   6    7.50    1.20
   0  -4  -6    2.80    0.70
   0  -4  -6    2.20    0.90
   0   4   6    1.60    0.90
  -1  -4  -6    4.40    1.00
  -1  -4  -6    4.00    1.20
   1   4   6    4.50    1.10
   1   4   6    2.10    1.10
  -2  -4  -6   90.39    5.70
  -2  -4  -6   82.59    6.10
   2   4   6   76.69    5.60
   2   4   6   84.69    6.30
  -3  -4  -6   17.90    2.30
  -3  -4  -6   18.30    2.70
   3   4   6   14.40    2.60
   3   4   6   16.40    2.30
  -4  -4  -6    0.40    0.80
  -4  -4  -6    0.70    0.80
   4   4   6    1.70    1.20
   4   4   6    0.60    0.90
   5   4   6   19.90    3.30
  -9   5   6   22.10    2.90
   8  -5  -6    3.30    1.20
  -8   5   6    3.00    1.20
   7  -5  -6   72.79    5.40
  -7   5   6   78.09    5.50
   6  -5  -6    6.40    1.30
  -6   5   6    3.60    1.20
   5  -5  -6   56.49    4.10
  -5   5   6   60.19    4.60
  -5   5   6   56.69    4.30
   4  -5  -6    1.10    0.70
  -4   5   6    1.30    0.80
  -4   5   6    0.90    0.80
   3  -5  -6   25.50    2.20
  -3   5   6   26.70    3.20
  -3   5   6   27.50    2.40
   2  -5  -6    7.60    1.20
  -2   5   6    9.60    1.40
  -2   5   6    8.50    1.80
   1  -5  -6    0.40    0.50
   1  -5  -6   -0.50    0.50
  -1   5   6    0.10    0.40
  -1   5   6   -0.50    0.70
   0  -5  -6   77.39    5.60
   0  -5  -6   78.39    5.20
   0   5   6   83.79    6.10
  -1  -5  -6    1.50    0.70
  -1  -5  -6    0.50    0.90
   1   5   6    0.80    1.00
  -2  -5  -6    1.50    0.70
  -2  -5  -6    1.40    1.00
   2   5   6   -0.50    0.90
   2   5   6    1.60    0.80
  -3  -5  -6   10.80    2.20
  -3  -5  -6    7.90    1.50
   3   5   6    9.10    1.70
   3   5   6    5.60    1.80
  -4  -5  -6   -0.10    1.00
  -4  -5  -6   -0.70    0.70
   4   5   6    0.20    0.90
   4   5   6    0.00    1.30
   8  -6  -6   17.20    2.60
  -8   6   6   15.60    2.50
   7  -6  -6    2.30    1.10
  -7   6   6    1.10    1.00
   6  -6  -6    9.20    1.60
  -6   6   6   11.80    1.90
   5  -6  -6   27.50    3.40
   5  -6  -6   26.20    2.50
  -5   6   6   27.10    3.40
  -5   6   6   28.60    2.70
   4  -6  -6   -0.10    0.50
  -4   6   6    0.00    0.60
  -4   6   6    0.30    0.90
   3  -6  -6    9.60    1.50
  -3   6   6   14.00    1.80
  -3   6   6   10.90    2.10
   2  -6  -6   18.30    2.10
  -2   6   6   19.30    2.20
  -2   6   6   19.10    2.80
   1  -6  -6   20.40    2.20
   1  -6  -6   21.40    2.30
  -1   6   6   17.60    2.90
   0  -6  -6   60.29    4.20
   0  -6  -6   58.29    4.60
   0   6   6   57.79    5.10
  -1  -6  -6   14.20    1.90
  -1  -6  -6   11.00    2.10
   1   6   6   10.10    2.30
  -2  -6  -6   -0.50    0.80
  -2  -6  -6   -0.70    0.70
   2   6   6    0.50    0.80
   2   6   6    1.10    1.20
  -3  -6  -6    5.40    1.70
  -3  -6  -6    5.20    1.40
   3   6   6    2.30    1.60
   3   6   6    5.60    1.50
   7  -7  -6   43.80    3.80
  -7   7   6   39.90    3.80
   6  -7  -6   18.00    2.40
  -6   7   6   16.60    2.50
   5  -7  -6   -0.40    0.60
   5  -7  -6    0.20    0.90
  -5   7   6   -0.20    0.60
  -5   7   6   -0.10    0.90
   4  -7  -6   76.99    5.10
  -4   7   6   68.99    5.90
  -4   7   6   68.09    5.20
   3  -7  -6   -0.60    0.50
  -3   7   6    0.30    0.90
  -3   7   6    0.10    0.70
   2  -7  -6    0.80    0.70
  -2   7   6    2.10    0.90
  -2   7   6   -0.10    1.00
   1  -7  -6    0.10    0.60
   1  -7  -6   -0.50    0.70
  -1   7   6   -0.80    0.80
   0  -7  -6   13.70    2.20
   0  -7  -6    7.60    1.50
   0   7   6    7.90    2.10
  -1  -7  -6    4.90    1.30
  -1  -7  -6    5.80    1.60
   1   7   6    5.90    2.00
  -2  -7  -6   36.60    3.80
   2   7   6   29.20    4.30
   6  -8  -6   -0.60    0.70
  -6   8   6    0.50    1.50
  -6   8   6   -0.80    0.80
   5  -8  -6   32.60    4.20
   5  -8  -6   41.20    3.40
  -5   8   6   37.90    4.70
  -5   8   6   37.00    4.00
   4  -8  -6   -1.40    0.90
   4  -8  -6    0.20    0.60
  -4   8   6    0.90    0.90
  -4   8   6   -0.80    1.00
   3  -8  -6   10.50    1.70
  -3   8   6    9.10    2.40
  -3   8   6   15.20    2.20
   2  -8  -6  123.29    7.90
  -2   8   6  123.19    9.20
   1  -8  -6    1.00    0.80
  -1   8   6    3.10    1.60
   0  -8  -6    7.00    1.80
   0  -8  -6    3.80    1.20
   0   8   6    7.00    2.20
  -1  -8  -6   -0.40    1.10
   5  -9  -6    2.80    1.80
  -5   9   6    1.00    1.40
   4  -9  -6  101.89    9.00
  -4   9   6  105.79    7.60
  -4   9   6  115.69    9.30
  -3   9   6    6.20    1.50
   2  11  -7   21.20    3.50
   2  11  -7   33.90    4.80
  -2 -11   7   49.50    5.50
   1  11  -7   20.80    3.70
   1  11  -7   21.20    3.00
  -1 -11   7   18.80    3.00
  -1 -11   7   24.30    3.40
   0  11  -7    0.40    0.80
   0  11  -7    1.00    1.30
   0 -11   7    0.40    1.00
   0 -11   7   -0.40    1.00
  -1  11  -7    2.30    1.60
  -1  11  -7    1.20    1.10
   1 -11   7    1.80    1.30
   1 -11   7    3.90    1.50
  -2  11  -7   35.10    4.00
  -2  11  -7   41.30    5.20
   2 -11   7   37.30    4.30
   2 -11   7   43.80    4.80
  -3  11  -7   55.69    5.70
  -3  11  -7   66.89    5.20
   3 -11   7   58.19    5.20
   4  10  -7    3.90    1.90
  -4 -10   7    3.00    1.40
   3  10  -7    2.20    1.50
  -3 -10   7    1.90    1.10
   2  10  -7   28.30    4.20
   2  10  -7   20.60    2.90
  -2 -10   7   26.30    3.40
   1  10  -7   57.39    5.60
   1  10  -7   75.19    5.20
  -1 -10   7   62.69    5.20
  -1 -10   7   53.89    4.90
   0  10  -7    0.70    1.20
   0  10  -7    0.30    0.90
   0 -10   7    1.80    1.20
   0 -10   7   -0.20    0.80
  -1  10  -7    6.60    2.00
  -1  10  -7    4.30    1.40
   1 -10   7    6.80    1.80
   1 -10   7    8.70    1.90
  -2  10  -7   37.20    3.50
  -2  10  -7   41.70    5.00
   2 -10   7   32.00    4.00
   2 -10   7   35.60    4.10
  -3  10  -7   12.00    2.10
  -3  10  -7   14.80    2.90
   3 -10   7    9.90    2.20
   3 -10   7    9.90    2.10
  -4  10  -7    2.00    1.50
  -4  10  -7    3.40    1.30
   4 -10   7    1.40    1.40
   4 -10   7    1.10    1.30
  -6  -9   7    0.10    1.20
   5   9  -7   20.50    4.00
  -5  -9   7   25.00    3.20
  -5  -9   7   18.20    4.00
   4   9  -7   48.60    6.10
  -4  -9   7   55.69    4.70
   3   9  -7    0.60    1.20
  -3  -9   7    0.90    1.00
   2   9  -7    8.10    2.20
   2   9  -7    5.90    1.50
  -2  -9   7    6.80    2.20
  -2  -9   7    3.50    1.30
   1   9  -7   68.29    6.00
   1   9  -7   73.79    5.20
  -1  -9   7   61.39    5.20
  -1  -9   7   66.69    5.20
   0   9  -7   23.20    2.70
   0   9  -7   16.30    3.00
   0  -9   7   21.20    2.80
   0  -9   7   14.90    2.50
  -1   9  -7    0.10    0.70
  -1   9  -7    0.60    1.00
   1  -9   7    0.70    0.90
   1  -9   7    2.20    1.10
  -2   9  -7   82.59    6.70
  -2   9  -7   79.59    5.90
   2  -9   7   84.89    6.20
   2  -9   7   87.69    6.40
  -3   9  -7    5.40    1.70
  -3   9  -7    6.10    1.40
   3  -9   7    3.70    1.40
   3  -9   7    6.10    1.80
  -4   9  -7   43.30    5.10
  -4   9  -7   43.50    3.70
   4  -9   7   46.00    5.00
   4  -9   7   41.90    3.80
  -5   9  -7    2.40    1.50
   5  -9   7    1.50    1.40
   6   8  -7    0.30    1.00
  -6  -8   7    0.40    1.00
  -6  -8   7   -0.70    1.50
   5   8  -7   21.50    3.70
  -5  -8   7   10.30    2.80
  -5  -8   7   21.20    2.90
   4   8  -7   12.10    2.70
  -4  -8   7   18.20    2.50
   3   8  -7   33.70    4.30
  -3  -8   7   28.70    3.40
   2   8  -7   65.09    4.70
   2   8  -7   59.89    5.40
  -2  -8   7   58.49    4.60
  -2  -8   7   66.29    5.00
   1   8  -7   20.80    2.50
   1   8  -7   18.30    3.10
  -1  -8   7   22.10    2.70
  -1  -8   7   20.60    2.70
   0   8  -7   11.90    2.30
   0   8  -7   10.00    1.70
   0  -8   7    9.70    1.80
   0  -8   7   11.00    1.90
  -1   8  -7   82.49    6.80
  -1   8  -7  100.89    6.40
   1  -8   7   92.89    6.50
   1  -8   7   91.19    6.60
  -2   8  -7    1.40    0.80
  -2   8  -7    1.10    1.10
   2  -8   7    1.70    1.10
   2  -8   7    4.30    1.20
  -3   8  -7    4.20    1.50
  -3   8  -7    6.10    1.30
   3  -8   7    4.90    1.30
   3  -8   7    1.60    1.10
  -4   8  -7    4.40    1.40
  -4   8  -7    6.60    1.90
   4  -8   7    2.10    1.30
  -5   8  -7    2.10    1.50
   5  -8   7    2.40    1.40
   7   7  -7    7.60    2.60
  -7  -7   7    7.60    3.10
  -7  -7   7   13.70    2.30
   6   7  -7    3.30    1.90
  -6  -7   7    5.50    1.60
  -6  -7   7    3.70    1.80
   5   7  -7  135.59   10.30
  -5  -7   7  147.29    9.40
   4   7  -7    1.20    1.20
  -4  -7   7    1.50    1.00
   3   7  -7   36.60    3.80
  -3  -7   7   37.80    3.40
   2   7  -7    1.70    1.20
  -2  -7   7    1.90    0.90
  -2  -7   7    2.40    0.90
   1   7  -7   20.80    2.40
   1   7  -7   21.60    3.10
  -1  -7   7   18.10    2.30
  -1  -7   7   18.60    2.40
   0   7  -7   46.10    3.40
   0   7  -7   40.80    3.90
   0  -7   7   35.30    3.40
   0  -7   7   41.40    3.50
  -1   7  -7    1.20    0.70
  -1   7  -7   -0.50    0.70
   1  -7   7    0.40    0.70
   1  -7   7    1.00    0.80
  -2   7  -7    0.80    0.70
  -2   7  -7    0.20    0.80
   2  -7   7   -0.10    0.60
   2  -7   7    0.00    0.60
  -3   7  -7   27.90    3.60
  -3   7  -7   24.70    2.40
   3  -7   7   26.20    2.50
   3  -7   7   21.70    3.00
  -4   7  -7   38.90    4.00
   4  -7   7   41.40    4.00
  -5   7  -7   21.00    3.30
   5  -7   7   18.90    3.10
  -6   7  -7  105.69    8.40
   6  -7   7  115.99    8.40
   7   6  -7   20.80    3.80
  -7  -6   7   22.30    2.80
  -7  -6   7   25.80    4.50
   6   6  -7    2.40    1.60
  -6  -6   7    4.90    2.20
  -6  -6   7    7.90    1.70
   5   6  -7   75.79    6.20
  -5  -6   7   66.49    5.20
   4   6  -7   61.59    5.40
  -4  -6   7   64.09    4.80
   3   6  -7   12.50    2.30
  -3  -6   7    7.40    1.50
   2   6  -7   92.39    7.10
  -2  -6   7   98.19    6.60
  -2  -6   7  100.19    6.40
   1   6  -7   14.70    1.90
   1   6  -7   11.60    2.20
  -1  -6   7   14.10    2.00
  -1  -6   7   20.00    2.20
   0   6  -7  216.28   13.20
   0   6  -7  236.18   14.00
   0  -6   7  221.88   13.40
   0  -6   7  219.48   13.40
  -1   6  -7    0.70    0.90
  -1   6  -7   -0.10    0.50
   1  -6   7   -0.10    0.60
   1  -6   7    0.10    0.60
  -2   6  -7   72.39    4.60
  -2   6  -7   56.49    5.00
   2  -6   7   66.59    4.60
   2  -6   7   60.79    4.90
  -3   6  -7    8.90    1.40
  -3   6  -7    5.70    1.70
   3  -6   7    6.60    1.30
   3  -6   7    6.00    1.50
  -4   6  -7    0.20    0.90
   4  -6   7   -1.20    0.70
  -5   6  -7    6.20    1.90
   5  -6   7    9.90    2.10
  -6   6  -7    0.30    1.00
   6  -6   7   -0.20    1.20
   8   5  -7    9.70    2.70
  -8  -5   7   12.40    2.00
  -8  -5   7    8.40    3.00
   7   5  -7    3.50    1.70
  -7  -5   7    2.30    1.80
  -7  -5   7    4.60    1.30
   6   5  -7   -0.10    0.70
  -6  -5   7   -0.10    0.60
  -6  -5   7    0.20    1.00
   5   5  -7    7.40    1.80
  -5  -5   7    5.30    1.30
   4   5  -7  171.78   11.50
  -4  -5   7  174.98   10.70
   3   5  -7  563.04   33.60
  -3  -5   7  579.14   32.90
  -3  -5   7  597.64   32.50
   2   5  -7    3.40    1.20
  -2  -5   7    3.40    1.00
  -2  -5   7    3.80    0.90
   1   5  -7   19.60    2.80
  -1  -5   7   19.70    2.30
  -1  -5   7   22.20    2.10
   0   5  -7  132.09    8.00
   0   5  -7  128.39    8.60
   0  -5   7  127.59    8.20
   0  -5   7  130.69    8.10
  -1   5  -7   39.50    2.80
  -1   5  -7   35.80    3.40
   1  -5   7   38.60    3.00
   1  -5   7   31.30    3.00
  -2   5  -7   22.60    3.00
  -2   5  -7   25.70    2.10
   2  -5   7   25.30    3.00
   2  -5   7   22.50    2.20
  -3   5  -7  171.18   11.20
   3  -5   7  173.98   11.10
  -4   5  -7    5.90    1.60
   4  -5   7    7.20    1.70
  -5   5  -7  366.56   22.50
   5  -5   7  378.46   22.40
  -6   5  -7  232.08   14.70
   6  -5   7  216.98   14.40
   7  -5   7   14.70    3.20
   8   4  -7   28.60    4.40
  -8  -4   7   28.50    3.20
  -8  -4   7   26.70    4.50
   7   4  -7   42.60    5.10
  -7  -4   7   42.60    3.50
  -7  -4   7   36.90    5.20
   6   4  -7   36.80    4.50
  -6  -4   7   33.60    3.00
  -6  -4   7   33.60    4.70
   5   4  -7    6.50    1.80
  -5  -4   7    6.20    1.30
   4   4  -7    1.60    0.90
  -4  -4   7    1.30    0.80
   3   4  -7   20.70    2.90
  -3  -4   7   27.50    2.40
  -3  -4   7   25.20    2.00
   2   4  -7    8.00    1.70
  -2  -4   7   10.80    1.60
  -2  -4   7    9.50    1.40
   1   4  -7   18.00    2.50
  -1  -4   7   19.30    2.20
  -1  -4   7   18.70    2.10
   0   4  -7   23.50    2.80
   0  -4   7   24.20    2.10
   0  -4   7   23.40    2.30
  -1   4  -7   87.69    6.20
   1  -4   7   87.09    6.00
   1  -4   7   88.99    5.70
  -2   4  -7  119.49    7.70
   2  -4   7  106.59    7.40
   2  -4   7  108.49    6.90
  -3   4  -7   17.00    2.50
   3  -4   7   19.70    2.60
  -4   4  -7    8.50    1.90
   4  -4   7    5.50    1.50
  -5   4  -7    1.90    1.20
   5  -4   7    0.50    1.00
  -6   4  -7   -0.50    0.90
   6  -4   7    0.30    1.00
   7  -4   7    5.50    1.80
   9   3  -7    1.30    1.10
  -9  -3   7   -2.30    1.40
   8   3  -7   14.30    2.20
  -8  -3   7   15.60    3.40
  -8  -3   7   16.50    2.40
   7   3  -7   67.19    5.70
   7   3  -7   62.39    4.50
  -7  -3   7   47.90    6.20
  -7  -3   7   63.39    4.60
   6   3  -7   33.40    4.00
   6   3  -7   33.50    2.60
  -6  -3   7   25.50    2.90
  -6  -3   7   27.50    4.10
   5   3  -7    5.10    0.90
   5   3  -7    2.70    1.10
  -5  -3   7    4.90    1.20
   4   3  -7 2145.39  112.19
   4   3  -7 1963.70  110.89
  -4  -3   7 1969.50  111.39
   3   3  -7  208.68   12.70
   3   3  -7  189.98   11.60
  -3  -3   7  207.38   11.80
  -3  -3   7  217.28   12.20
   2   3  -7   69.59    5.00
  -2  -3   7   62.59    4.50
  -2  -3   7   65.19    4.40
   1   3  -7   33.40    3.00
  -1  -3   7   33.00    2.60
  -1  -3   7   32.50    2.60
   0   3  -7    4.60    1.20
   0  -3   7    4.00    1.00
   0  -3   7    5.80    1.00
  -1   3  -7   20.90    2.50
   1  -3   7   16.00    1.80
   1  -3   7   13.50    1.90
  -2   3  -7   22.30    1.90
  -2   3  -7   19.90    2.60
   2  -3   7   19.70    2.60
   2  -3   7   19.30    2.60
  -3   3  -7    1.50    0.70
  -3   3  -7    3.50    1.10
   3  -3   7    1.30    0.90
  -4   3  -7   46.10    4.00
   4  -3   7   42.20    3.90
  -5   3  -7  465.05   29.20
   5  -3   7  536.55   29.40
  -6   3  -7   19.30    3.10
   6  -3   7   13.70    2.60
   7  -3   7   65.39    5.80
   9   2  -7    1.50    1.00
  -9  -2   7    0.50    0.80
  -9  -2   7    0.20    1.50
   8   2  -7    2.80    1.10
  -8  -2   7    4.10    2.10
  -8  -2   7    1.40    0.90
   7   2  -7    0.60    1.10
   7   2  -7    0.60    0.70
  -7  -2   7    0.40    1.10
  -7  -2   7   -0.50    0.50
   6   2  -7   29.40    2.50
   6   2  -7   21.80    3.20
  -6  -2   7   26.70    3.80
  -6  -2   7   31.20    2.70
   5   2  -7   -0.20    0.40
   5   2  -7   -0.30    0.50
  -5  -2   7    0.70    0.60
  -5  -2   7    0.00    0.60
   4   2  -7   58.29    3.90
   4   2  -7   62.59    4.70
  -4  -2   7   63.19    4.30
   3   2  -7  409.16   24.40
   3   2  -7  458.55   25.40
  -3  -2   7  457.25   25.00
  -3  -2   7  438.66   24.60
   2   2  -7    4.00    1.10
   2   2  -7    3.90    0.60
  -2  -2   7    3.30    0.90
  -2  -2   7    5.70    1.00
   1   2  -7   58.99    4.50
   1   2  -7   68.69    3.70
  -1  -2   7   61.59    4.20
  -1  -2   7   54.49    4.20
   0   2  -7  135.29    8.80
   0   2  -7  146.19    8.00
   0  -2   7  141.79    8.80
   0  -2   7  139.09    8.40
  -1   2  -7  626.14   33.10
  -1   2  -7  592.64   33.50
  -1   2  -7  576.74   33.90
   1  -2   7  586.74   33.90
   1  -2   7  590.94   33.30
   1  -2   7  616.94   33.10
  -2   2  -7  117.59    6.90
  -2   2  -7  122.79    7.40
  -2   2  -7   93.09    6.40
   2  -2   7  113.29    6.60
   2  -2   7  103.29    7.30
  -3   2  -7  292.17   17.10
  -3   2  -7  271.27   16.60
   3  -2   7  284.27   17.10
   3  -2   7  295.97   16.40
  -4   2  -7    5.80    1.50
  -4   2  -7    4.60    1.10
   4  -2   7    4.40    1.00
   4  -2   7    4.20    1.30
  -5   2  -7    3.80    1.20
  -5   2  -7    4.40    1.50
   5  -2   7    3.90    1.10
   5  -2   7    3.30    1.40
  -6   2  -7   54.89    4.90
   6  -2   7   47.30    4.60
   7  -2   7   23.20    3.50
   9   1  -7    2.70    1.20
  -9  -1   7    1.20    1.40
  -9  -1   7    3.10    1.30
   8   1  -7   75.39    5.70
  -8  -1   7   86.59    5.80
  -8  -1   7   79.69    7.00
   7   1  -7    1.50    0.80
   7   1  -7    2.30    1.20
  -7  -1   7    2.00    0.80
  -7  -1   7    2.10    1.40
   6   1  -7   27.10    3.40
   6   1  -7   27.50    2.50
  -6  -1   7   29.60    2.60
  -6  -1   7   28.90    3.80
   5   1  -7  445.06   23.70
   5   1  -7  431.46   24.50
  -5  -1   7  437.96   24.00
  -5  -1   7  352.16   24.50
   4   1  -7  908.21   50.59
   4   1  -7  923.61   49.80
  -4  -1   7  872.91   50.09
   3   1  -7   34.50    2.90
   3   1  -7   33.50    2.40
  -3  -1   7   34.70    2.60
  -3  -1   7   36.60    2.70
   2   1  -7   69.69    4.90
  -2  -1   7   71.99    4.70
  -2  -1   7   71.99    4.70
   1   1  -7    0.40    0.30
   1   1  -7   -0.30    0.40
  -1  -1   7    0.20    0.40
  -1  -1   7    0.00    0.40
   0   1  -7   79.29    5.60
   0   1  -7   81.19    5.00
   0  -1   7   74.99    5.60
   0  -1   7  102.29    5.40
  -1   1  -7   34.10    2.60
  -1   1  -7   27.40    2.20
  -1   1  -7   33.50    2.80
   1  -1   7   35.50    2.30
   1  -1   7   32.60    2.30
   1  -1   7   33.80    3.00
  -2   1  -7   39.70    3.10
  -2   1  -7   37.40    2.60
  -2   1  -7   28.80    2.70
   2  -1   7   35.00    2.60
   2  -1   7   34.30    3.20
  -3   1  -7    0.90    0.80
  -3   1  -7    1.40    0.70
   3  -1   7    0.40    0.40
   3  -1   7    0.90    0.80
  -4   1  -7   17.10    2.20
  -4   1  -7   10.80    2.10
   4  -1   7   14.40    2.40
   4  -1   7   17.10    2.00
  -5   1  -7   36.10    4.20
  -5   1  -7   35.30    3.30
   5  -1   7   40.00    3.80
   5  -1   7   35.20    3.10
  -6   1  -7  256.77   16.40
  -6   1  -7  273.07   16.00
   6  -1   7  245.58   16.20
   6  -1   7  253.57   15.50
   7  -1   7  317.17   20.20
 -10   0   7   -1.60    1.30
   9   0  -7    3.30    1.30
  -9   0   7    4.60    2.00
  -9   0   7    7.60    1.60
   8   0  -7  208.08   12.10
  -8   0   7  183.28   13.10
  -8   0   7  189.38   11.90
   7   0  -7    1.30    0.80
  -7   0   7    2.30    1.40
  -7   0   7    3.10    1.00
   6   0  -7  134.29    7.90
   6   0  -7  126.19    8.50
  -6   0   7  111.29    7.80
  -6   0   7  130.19    8.80
   5   0  -7   49.30    3.60
   5   0  -7   54.39    4.10
  -5   0   7   49.90    3.70
  -5   0   7   48.50    4.30
   4   0  -7   55.29    4.10
   4   0  -7   53.49    3.60
  -4   0   7   52.39    3.60
  -4   0   7   59.39    4.00
   3   0  -7   10.80    1.30
   3   0  -7   12.40    1.70
  -3   0   7   11.40    1.50
  -3   0   7   11.60    1.50
   2   0  -7    1.40    0.40
   2   0  -7    0.30    0.50
  -2   0   7    0.70    0.50
  -2   0   7    1.10    0.50
   1   0  -7   59.29    3.70
   1   0  -7   49.70    3.20
  -1   0   7   43.60    3.40
  -1   0   7   54.09    3.80
   0   0  -7   24.00    2.20
   0   0  -7   25.20    1.90
   0   0  -7   24.90    2.20
   0   0   7   24.40    2.40
   0   0   7   26.30    1.90
  -1   0  -7  800.02   45.20
   1   0   7  858.71   44.90
   1   0   7  769.52   45.50
  -2   0  -7  119.79    8.00
  -2   0  -7  134.29    8.20
  -2   0  -7  131.59    7.70
   2   0   7  130.69    7.80
   2   0   7  117.49    8.30
  -3   0  -7   89.99    5.50
  -3   0  -7   75.09    5.70
  -3   0  -7   88.59    6.00
   3   0   7   79.29    5.40
   3   0   7   82.49    6.10
  -4   0  -7    9.40    2.00
  -4   0  -7   11.00    1.90
   4   0   7   11.50    2.20
   4   0   7   11.10    1.70
  -5   0  -7  111.79    7.50
  -5   0  -7   91.19    6.90
   5   0   7   84.89    7.10
   5   0   7  106.49    6.80
  -6   0  -7   69.39    5.80
  -6   0  -7   75.49    5.60
   6   0   7   56.49    5.50
   6   0   7   55.69    4.80
 -10   1   7    1.90    1.20
   9  -1  -7   61.19    5.00
  -9   1   7   64.49    4.90
   8  -1  -7   50.09    4.00
  -8   1   7   45.50    3.80
   7  -1  -7    8.10    1.50
  -7   1   7    9.00    2.10
  -7   1   7    6.70    1.40
   6  -1  -7    2.10    0.80
  -6   1   7    2.80    1.20
  -6   1   7    2.00    0.80
   5  -1  -7  115.19    7.10
   5  -1  -7  114.39    7.40
  -5   1   7  120.19    7.80
  -5   1   7  105.89    7.20
   4  -1  -7    6.20    1.20
   4  -1  -7    8.10    1.10
  -4   1   7    6.60    1.20
  -4   1   7    5.80    1.40
  -4   1   7    8.20    1.20
   3  -1  -7  698.23   43.20
   3  -1  -7  810.82   43.50
  -3   1   7  862.21   43.60
  -3   1   7  762.02   43.50
   2  -1  -7  239.38   13.90
   2  -1  -7  256.87   14.10
  -2   1   7  238.28   14.10
  -2   1   7  243.28   14.40
   1  -1  -7    6.80    1.10
   1  -1  -7    6.80    0.90
  -1   1   7    7.60    1.10
  -1   1   7    6.90    1.40
   0  -1  -7    3.70    0.90
   0  -1  -7    3.70    0.70
   0  -1  -7    3.90    1.00
   0   1   7    3.70    1.10
   0   1   7    3.00    0.70
  -1  -1  -7   34.50    2.70
  -1  -1  -7   32.30    2.40
  -1  -1  -7   32.20    2.80
   1   1   7   30.90    2.50
   1   1   7   31.30    3.00
  -2  -1  -7    1.10    0.70
  -2  -1  -7    0.20    0.50
  -2  -1  -7    0.10    0.40
   2   1   7    0.20    0.40
   2   1   7   -0.40    0.60
  -3  -1  -7   15.60    2.00
  -3  -1  -7   15.70    2.30
  -3  -1  -7   13.80    2.20
   3   1   7   15.00    1.90
   3   1   7   16.40    2.50
  -4  -1  -7    2.90    1.10
  -4  -1  -7    2.10    0.90
  -4  -1  -7    2.10    1.20
   4   1   7    4.60    1.50
   4   1   7    2.80    1.00
  -5  -1  -7   14.00    2.40
  -5  -1  -7   12.90    2.80
   5   1   7   13.20    2.50
   5   1   7   14.30    2.10
  -6  -1  -7  847.32   46.80
   6   1   7  749.42   45.00
   9  -2  -7   55.19    4.60
  -9   2   7   50.29    4.30
   8  -2  -7   72.19    5.60
  -8   2   7   81.69    5.70
   7  -2  -7    6.80    1.40
  -7   2   7    3.40    1.10
   6  -2  -7   69.39    4.80
  -6   2   7   70.09    5.00
   5  -2  -7    1.20    0.60
  -5   2   7   -0.20    0.60
   4  -2  -7    0.60    0.50
  -4   2   7    0.50    0.50
  -4   2   7    0.40    0.40
   3  -2  -7   10.40    1.30
  -3   2   7   11.10    1.50
  -3   2   7   11.40    1.70
   2  -2  -7   89.89    5.20
  -2   2   7   82.09    5.60
  -2   2   7   75.39    5.20
   1  -2  -7   -0.40    0.30
  -1   2   7   -0.20    0.50
  -1   2   7    0.30    0.40
   0  -2  -7  130.09    8.20
   0  -2  -7  131.49    7.80
   0   2   7  124.29    8.40
  -1  -2  -7    8.70    1.60
  -1  -2  -7    8.80    1.30
   1   2   7    7.30    1.60
   1   2   7   10.70    1.50
  -2  -2  -7   -0.40    0.50
  -2  -2  -7   -0.30    0.60
   2   2   7   -0.30    0.40
   2   2   7   -0.30    0.70
  -3  -2  -7    0.10    0.60
  -3  -2  -7    0.00    0.60
   3   2   7    0.00    0.60
   3   2   7   -0.80    0.80
  -4  -2  -7    3.80    1.20
  -4  -2  -7    2.80    1.30
   4   2   7    2.70    1.20
   4   2   7    5.60    1.70
  -5  -2  -7   19.10    2.50
  -5  -2  -7   14.80    2.60
   5   2   7   17.20    2.40
   5   2   7   15.70    2.90
   9  -3  -7   23.30    3.10
  -9   3   7   21.20    2.80
   8  -3  -7    4.20    1.30
  -8   3   7    4.80    1.30
   7  -3  -7    3.90    1.20
  -7   3   7    3.70    1.20
   6  -3  -7    6.00    1.20
  -6   3   7    3.90    1.10
   5  -3  -7    7.60    1.30
  -5   3   7    7.00    1.40
  -5   3   7    7.70    1.60
   4  -3  -7  142.39    8.60
  -4   3   7  152.98    8.90
  -4   3   7  134.19    9.00
   3  -3  -7  570.04   30.30
  -3   3   7  524.55   30.40
  -3   3   7  524.95   30.70
   2  -3  -7   44.40    3.10
  -2   3   7   43.00    3.10
  -2   3   7   41.80    3.50
   1  -3  -7   83.09    5.30
  -1   3   7   84.19    5.20
  -1   3   7   79.69    5.80
   0  -3  -7    6.30    1.30
   0  -3  -7    6.10    1.00
   0   3   7    7.70    1.70
  -1  -3  -7   43.50    3.70
   1   3   7   42.00    3.30
   1   3   7   41.10    3.80
  -2  -3  -7   63.39    4.90
  -2  -3  -7   61.09    4.40
   2   3   7   57.59    4.40
   2   3   7   62.99    5.10
  -3  -3  -7    2.00    1.10
  -3  -3  -7    1.40    0.90
   3   3   7    2.10    0.90
   3   3   7    1.30    1.10
  -4  -3  -7    0.60    0.90
  -4  -3  -7    0.90    1.00
   4   3   7    1.50    0.90
   4   3   7    1.40    1.40
   5   3   7   99.79    8.30
  -9   4   7    2.00    1.10
   8  -4  -7    0.70    0.90
  -8   4   7   -0.20    0.60
   7  -4  -7    1.80    0.90
  -7   4   7    2.30    1.00
   6  -4  -7   19.80    2.40
  -6   4   7   20.40    2.50
   5  -4  -7    0.20    0.60
  -5   4   7   -0.50    0.60
  -5   4   7    0.10    0.70
   4  -4  -7   -0.60    0.40
  -4   4   7    0.30    0.70
  -4   4   7    0.60    0.60
   3  -4  -7    1.40    0.60
  -3   4   7    0.60    0.70
  -3   4   7    1.10    0.60
   2  -4  -7   21.80    1.90
  -2   4   7   19.70    1.90
  -2   4   7   21.30    2.80
   1  -4  -7   33.50    2.50
  -1   4   7   30.90    2.50
  -1   4   7   23.90    3.20
   0  -4  -7    1.10    0.70
   0  -4  -7    0.80    0.80
   0   4   7    0.60    0.80
  -1  -4  -7    8.00    1.40
  -1  -4  -7    9.90    1.80
   1   4   7    9.40    2.00
  -2  -4  -7   54.99    4.70
  -2  -4  -7   52.59    4.10
   2   4   7   56.79    4.90
   2   4   7   56.89    4.30
  -3  -4  -7    0.50    0.70
  -3  -4  -7   -0.50    0.80
   3   4   7    0.50    1.10
   3   4   7   -0.60    0.70
  -4  -4  -7   17.90    2.50
   4   4   7   17.50    3.10
   4   4   7   21.90    2.80
   8  -5  -7    1.30    1.10
  -8   5   7    0.40    0.90
   7  -5  -7    1.70    0.90
  -7   5   7   -0.40    0.70
   6  -5  -7    9.70    1.60
  -6   5   7    9.60    1.80
   5  -5  -7    7.10    1.40
  -5   5   7    8.40    1.80
  -5   5   7    6.30    1.40
   4  -5  -7   79.69    5.50
  -4   5   7   87.89    5.70
  -4   5   7   78.29    6.00
   3  -5  -7   49.30    3.60
  -3   5   7   50.49    3.80
  -3   5   7   51.49    4.40
   2  -5  -7    1.60    0.70
  -2   5   7    2.70    0.80
  -2   5   7    1.00    0.90
   1  -5  -7    2.00    0.70
  -1   5   7    0.10    0.90
   0  -5  -7   12.00    1.70
   0  -5  -7   14.00    2.20
   0   5   7    9.20    2.10
  -1  -5  -7    0.50    0.50
  -1  -5  -7   -0.60    0.70
   1   5   7   -1.20    0.70
  -2  -5  -7   38.10    3.20
  -2  -5  -7   34.90    3.60
   2   5   7   23.30    3.70
   2   5   7   38.80    3.40
  -3  -5  -7    2.60    1.00
  -3  -5  -7    3.30    1.60
   3   5   7    2.70    1.20
   3   5   7   -0.40    1.10
   7  -6  -7   -0.10    0.80
  -7   6   7   -0.40    0.80
   6  -6  -7   44.80    3.70
  -6   6   7   43.30    3.80
   5  -6  -7    1.00    0.80
  -5   6   7   -0.10    1.00
  -5   6   7    0.10    0.70
   4  -6  -7   11.70    1.70
  -4   6   7   10.50    1.80
  -4   6   7   12.80    2.40
   3  -6  -7    0.00    0.60
  -3   6   7    0.20    0.90
  -3   6   7   -0.20    0.60
   2  -6  -7    9.70    1.50
  -2   6   7   11.30    1.70
  -2   6   7   13.40    2.50
   1  -6  -7    7.30    1.30
  -1   6   7    8.90    2.10
   0  -6  -7    3.10    0.90
   0  -6  -7    2.60    1.20
   0   6   7    0.20    1.10
  -1  -6  -7    8.50    1.60
  -1  -6  -7   12.30    2.30
   1   6   7   10.80    2.50
  -2  -6  -7    0.90    1.00
  -2  -6  -7    0.50    1.10
   2   6   7   -0.60    1.30
   6  -7  -7   14.90    2.30
  -6   7   7   18.70    2.60
   5  -7  -7    8.70    1.70
   5  -7  -7    7.80    2.00
  -5   7   7    6.00    1.90
  -5   7   7   12.30    2.00
   4  -7  -7    1.20    0.90
  -4   7   7    1.70    1.30
  -4   7   7    1.60    1.00
   3  -7  -7   19.20    2.30
  -3   7   7   13.60    2.70
  -3   7   7   21.10    2.60
   2  -7  -7   13.30    1.90
  -2   7   7   14.40    2.70
   1  -7  -7    7.80    1.50
  -1   7   7   12.50    2.60
   0  -7  -7   12.70    2.00
   0  -7  -7   18.00    2.80
   0   7   7   16.90    3.10
   5  -8  -7   29.60    4.10
  -5   8   7   23.60    3.80
  -5   8   7   31.30    3.60
   4  -8  -7   22.40    3.10
  -4   8   7   27.90    3.20
   3  -8  -7   20.10    2.50
  -3   8   7   20.00    2.70
  -3   8   7   25.70    3.90
  -2   8   7    7.70    2.50
   1  11  -8  106.69    8.80
   0  11  -8    0.00    1.40
   0  11  -8    0.20    1.10
   0 -11   8    0.60    1.10
   0 -11   8    0.20    1.30
  -1  11  -8   49.80    6.00
   1 -11   8   55.99    4.80
   1 -11   8   37.20    5.10
   3  10  -8   23.80    4.20
  -3 -10   8   26.90    3.60
   2  10  -8   99.49    7.30
   2  10  -8  102.29    8.50
  -2 -10   8  111.49    7.80
   1  10  -8   12.60    2.20
   1  10  -8   10.10    2.70
  -1 -10   8   10.10    2.30
  -1 -10   8   13.60    2.40
   0  10  -8   14.20    2.30
   0  10  -8    8.40    2.50
   0 -10   8   13.10    2.40
   0 -10   8   15.40    2.60
  -1  10  -8    0.70    1.10
  -1  10  -8    0.20    0.90
   1 -10   8   -0.90    0.90
   1 -10   8    0.00    0.90
  -2  10  -8    0.90    1.50
  -2  10  -8    1.40    1.00
   2 -10   8   -0.40    0.80
   2 -10   8    0.40    1.10
  -3  10  -8   11.20    2.10
  -3  10  -8   15.00    3.00
   3 -10   8    8.40    2.00
   3 -10   8   10.00    2.40
   5   9  -8   13.80    3.80
  -5  -9   8   22.00    3.10
   4   9  -8   35.30    5.00
  -4  -9   8   35.00    4.00
   3   9  -8    4.20    1.90
  -3  -9   8    6.40    1.60
   2   9  -8   14.70    3.10
  -2  -9   8   11.50    2.20
   1   9  -8   15.10    2.30
   1   9  -8   18.20    3.30
  -1  -9   8   15.80    2.50
  -1  -9   8   14.70    2.30
   0   9  -8    9.70    2.40
   0   9  -8   10.60    1.90
   0  -9   8    5.40    1.60
   0  -9   8    8.70    1.90
  -1   9  -8    1.50    1.00
  -1   9  -8    1.60    1.30
   1  -9   8    1.60    1.10
   1  -9   8    3.00    1.30
  -2   9  -8    0.60    1.10
  -2   9  -8    1.20    1.00
   2  -9   8   -0.10    0.90
   2  -9   8   -1.20    0.90
  -3   9  -8    3.90    1.60
  -3   9  -8    3.20    1.20
   3  -9   8    0.90    1.00
   3  -9   8    2.60    1.40
  -4   9  -8    1.30    1.50
   4  -9   8   -0.70    1.00
  -6  -8   8   31.60    3.90
   5   8  -8   -0.50    1.30
  -5  -8   8    0.00    0.90
   4   8  -8   15.10    3.20
  -4  -8   8   12.60    2.20
   3   8  -8    4.10    1.60
  -3  -8   8    2.50    1.20
   2   8  -8  172.18   12.00
  -2  -8   8  172.58   11.20
  -2  -8   8  179.38   11.30
   1   8  -8    3.20    1.60
   1   8  -8    4.50    1.20
  -1  -8   8    4.40    1.30
  -1  -8   8    2.90    1.10
   0   8  -8   11.30    1.90
   0   8  -8    9.60    2.20
   0  -8   8    8.70    1.80
   0  -8   8   13.10    2.10
  -1   8  -8   74.59    5.20
  -1   8  -8   60.69    5.70
   1  -8   8   83.89    5.60
   1  -8   8   62.99    5.30
  -2   8  -8   45.70    4.40
  -2   8  -8   45.20    3.70
   2  -8   8   48.10    4.20
   2  -8   8   37.00    3.60
  -3   8  -8    9.90    2.30
  -3   8  -8    5.80    1.40
   3  -8   8    5.80    1.50
   3  -8   8    5.00    1.60
  -4   8  -8    7.70    2.10
   4  -8   8    7.20    2.00
  -5   8  -8   -0.40    1.40
   5  -8   8    0.30    1.20
  -7  -7   8    0.30    1.10
   6   7  -8   15.50    3.30
  -6  -7   8    9.60    2.90
  -6  -7   8   17.40    2.60
   5   7  -8   33.00    4.50
  -5  -7   8   25.90    3.20
   4   7  -8   11.60    2.50
  -4  -7   8   11.10    2.00
   3   7  -8    3.10    1.40
  -3  -7   8    4.60    1.40
   2   7  -8    2.10    1.30
  -2  -7   8    4.20    1.30
  -2  -7   8    3.20    1.10
   1   7  -8   -0.50    0.90
  -1  -7   8    0.00    0.60
  -1  -7   8   -0.60    0.60
   0   7  -8    3.00    0.90
   0   7  -8    1.60    1.10
   0  -7   8    2.30    1.00
   0  -7   8    3.20    1.10
  -1   7  -8   30.70    3.90
  -1   7  -8   27.10    2.50
   1  -7   8   26.20    3.10
   1  -7   8   22.30    2.80
  -2   7  -8   56.79    5.00
  -2   7  -8   63.79    4.30
   2  -7   8   48.10    4.20
   2  -7   8   55.39    4.70
  -3   7  -8    4.50    1.70
   3  -7   8    4.10    1.50
  -4   7  -8   -0.80    0.70
   4  -7   8    0.40    1.00
  -5   7  -8   -0.30    1.10
   5  -7   8   -1.00    0.90
  -8  -6   8   -0.40    0.90
   7   6  -8    9.60    2.70
  -7  -6   8    6.30    1.60
  -7  -6   8    4.60    2.20
   6   6  -8   90.49    7.00
  -6  -6   8   73.39    5.50
  -6  -6   8   51.39    7.00
   5   6  -8   19.30    3.30
  -5  -6   8   19.30    2.70
   4   6  -8   -1.10    0.70
  -4  -6   8    1.00    0.90
   3   6  -8  165.68   11.40
  -3  -6   8  170.58   10.60
   2   6  -8   85.59    6.40
  -2  -6   8   74.09    5.50
  -2  -6   8   76.99    5.40
   1   6  -8   17.70    2.80
  -1  -6   8   16.30    2.20
  -1  -6   8   14.60    2.00
   0   6  -8  208.58   13.20
   0  -6   8  214.08   12.70
   0  -6   8  194.78   12.40
  -1   6  -8    0.00    0.80
  -1   6  -8    1.20    0.70
   1  -6   8    0.50    0.70
   1  -6   8    0.30    0.70
  -2   6  -8    9.40    1.50
  -2   6  -8   10.70    2.10
   2  -6   8    8.00    1.60
   2  -6   8   14.50    2.30
  -3   6  -8   19.20    3.10
   3  -6   8   21.30    3.00
  -4   6  -8    7.50    2.10
   4  -6   8    5.00    1.60
  -5   6  -8    0.70    1.30
   5  -6   8    0.40    1.10
   8   5  -8    2.60    1.80
  -8  -5   8    0.70    1.70
  -8  -5   8    1.00    1.00
   7   5  -8    4.50    1.90
  -7  -5   8    1.90    1.50
  -7  -5   8    4.10    1.30
   6   5  -8   41.80    5.10
  -6  -5   8   44.30    3.70
  -6  -5   8   34.50    5.20
   5   5  -8   49.80    4.90
  -5  -5   8   55.89    4.30
   4   5  -8    1.70    1.00
  -4  -5   8    2.90    1.00
   3   5  -8    3.80    1.40
  -3  -5   8    3.80    1.10
   2   5  -8    1.80    1.00
  -2  -5   8    0.90    0.70
  -2  -5   8    0.50    0.60
   1   5  -8   22.10    2.90
  -1  -5   8   17.70    2.30
  -1  -5   8   19.40    2.40
   0   5  -8   -0.60    0.50
   0  -5   8    1.00    0.70
   0  -5   8    0.60    0.60
  -1   5  -8   -0.10    0.70
   1  -5   8   -0.10    0.60
   1  -5   8   -0.10    0.50
  -2   5  -8    2.90    1.20
   2  -5   8    4.00    1.00
   2  -5   8    2.90    1.10
  -3   5  -8   27.50    3.60
   3  -5   8   28.20    3.50
  -4   5  -8    8.40    1.90
   4  -5   8   11.90    2.30
  -5   5  -8   64.09    5.40
   5  -5   8   54.99    5.20
  -6   5  -8   -0.90    0.70
   6  -5   8    0.20    1.10
   8   4  -8   11.80    3.10
  -8  -4   8   12.20    3.10
  -8  -4   8   15.30    2.30
   7   4  -8    8.30    2.40
  -7  -4   8   11.00    3.00
  -7  -4   8   10.40    1.90
   6   4  -8   75.69    6.40
  -6  -4   8   72.69    6.80
  -6  -4   8   84.79    5.70
   5   4  -8   15.70    2.80
  -5  -4   8   15.60    2.20
   4   4  -8   17.50    2.70
  -4  -4   8   14.60    2.10
   3   4  -8  172.48   10.90
  -3  -4   8  162.08    9.90
  -3  -4   8  165.98   10.30
   2   4  -8    3.80    1.20
  -2  -4   8    3.30    0.90
  -2  -4   8    1.90    0.80
   1   4  -8  344.17   19.60
  -1  -4   8  319.67   18.90
  -1  -4   8  320.87   19.00
   0   4  -8   32.50    3.10
   0  -4   8   30.50    2.60
   0  -4   8   29.50    2.80
  -1   4  -8    0.00    0.50
   1  -4   8    0.10    0.50
   1  -4   8   -0.20    0.50
  -2   4  -8   56.89    4.60
   2  -4   8   49.40    4.30
  -3   4  -8   13.60    2.30
   3  -4   8   12.30    2.20
  -4   4  -8   25.40    3.50
   4  -4   8   31.50    3.70
  -5   4  -8   80.49    6.40
   5  -4   8   78.69    6.40
  -6   4  -8    3.90    1.70
   6  -4   8    0.50    1.30
  -9  -3   8   99.49    7.00
   8   3  -8    0.10    1.30
  -8  -3   8    0.90    0.90
  -8  -3   8    0.40    1.50
   7   3  -8   -0.10    0.90
  -7  -3   8   -0.60    1.10
  -7  -3   8   -0.40    0.70
   6   3  -8   22.10    3.30
  -6  -3   8   24.10    3.80
  -6  -3   8   28.30    2.60
   5   3  -8   17.50    2.80
  -5  -3   8   15.60    2.20
   4   3  -8  129.89    8.90
  -4  -3   8  134.39    8.40
   3   3  -8  131.09    8.70
  -3  -3   8  131.09    7.90
  -3  -3   8  124.29    8.10
   2   3  -8   25.40    2.60
  -2  -3   8   26.90    2.40
  -2  -3   8   25.60    2.30
   1   3  -8  134.49    8.70
  -1  -3   8  128.29    8.20
  -1  -3   8  131.09    8.20
   0   3  -8    0.50    0.50
   0  -3   8    0.20    0.50
   0  -3   8   -0.40    0.50
  -1   3  -8   20.80    2.70
   1  -3   8   19.50    1.90
   1  -3   8   21.10    2.60
  -2   3  -8  132.99    8.90
   2  -3   8  134.69    8.90
  -3   3  -8   -0.50    0.30
  -3   3  -8    0.90    0.80
   3  -3   8    0.90    0.80
  -4   3  -8  213.98   13.50
   4  -3   8  208.68   13.50
  -5   3  -8   33.60    4.10
   5  -3   8   24.90    3.60
  -6   3  -8   97.89    7.80
   6  -3   8  109.49    8.10
   9   2  -8    3.20    1.20
  -9  -2   8   -0.80    1.50
  -9  -2   8    1.50    1.00
   8   2  -8   -0.70    1.00
   8   2  -8    0.10    0.70
  -8  -2   8   -0.80    0.60
  -8  -2   8    0.70    1.40
   7   2  -8    8.90    1.60
   7   2  -8    7.20    2.00
  -7  -2   8    8.30    2.30
  -7  -2   8    8.50    1.70
   6   2  -8    5.90    1.70
   6   2  -8    5.70    1.20
  -6  -2   8    6.50    2.00
  -6  -2   8    5.20    1.30
   5   2  -8   11.60    1.50
   5   2  -8   14.30    2.40
  -5  -2   8   12.10    1.80
   4   2  -8   32.70    2.50
   4   2  -8   36.40    3.40
  -4  -2   8   38.80    3.00
   3   2  -8   11.80    1.90
   3   2  -8    9.70    1.10
  -3  -2   8    9.20    1.50
  -3  -2   8    9.70    1.30
   2   2  -8   16.00    2.30
  -2  -2   8   16.20    2.00
  -2  -2   8   19.00    1.80
   1   2  -8  110.79    7.50
  -1  -2   8  113.39    7.10
  -1  -2   8  115.49    7.30
   0   2  -8   58.79    4.40
   0  -2   8   59.09    3.90
   0  -2   8   51.09    4.20
  -1   2  -8  686.33   37.10
   1  -2   8  617.94   37.00
  -2   2  -8    0.20    0.50
  -2   2  -8    0.00    0.70
   2  -2   8    0.50    0.70
  -3   2  -8   -0.40    0.70
  -3   2  -8   -0.20    0.40
   3  -2   8    0.70    0.80
  -4   2  -8  179.88   11.20
  -4   2  -8  162.78   10.50
   4  -2   8  163.88   11.20
  -5   2  -8   43.70    4.30
   5  -2   8   49.00    4.60
  -6   2  -8    0.60    1.20
   6  -2   8    2.30    1.50
   9   1  -8   90.79    6.40
  -9  -1   8   83.89    6.20
  -9  -1   8   82.79    7.70
   8   1  -8    0.40    0.80
  -8  -1   8    0.70    0.80
  -8  -1   8   -0.50    1.20
   7   1  -8   15.40    2.70
   7   1  -8   15.60    2.10
  -7  -1   8   14.20    2.90
  -7  -1   8   15.50    2.10
   6   1  -8    1.90    1.10
   6   1  -8    2.30    0.90
  -6  -1   8    2.10    0.90
  -6  -1   8    1.70    1.30
   5   1  -8  743.33   41.60
   5   1  -8  737.33   40.70
  -5  -1   8  699.03   41.00
  -5  -1   8  746.13   42.00
   4   1  -8  100.59    6.30
   4   1  -8   81.19    5.40
  -4  -1   8   85.69    5.80
   3   1  -8  347.37   21.10
   3   1  -8  388.76   20.40
  -3  -1   8  358.86   20.80
  -3  -1   8  354.96   20.70
   2   1  -8  133.69    7.80
   2   1  -8  133.39    8.50
  -2  -1   8  129.09    8.20
  -2  -1   8  139.49    8.40
   1   1  -8    5.60    0.80
   1   1  -8    5.60    1.20
  -1  -1   8    5.20    1.20
  -1  -1   8    5.60    1.10
   0   1  -8   18.40    2.30
   0   1  -8   19.80    1.40
   0  -1   8   13.10    1.60
   0  -1   8   13.10    2.00
  -1   1  -8    0.80    0.80
  -1   1  -8    0.30    0.40
  -1   1  -8    0.50    0.50
   1  -1   8   -0.40    0.60
   1  -1   8    0.50    0.50
  -2   1  -8   29.50    2.30
  -2   1  -8   26.00    2.50
  -2   1  -8   30.80    2.80
   2  -1   8   27.00    2.30
   2  -1   8   27.90    3.30
  -3   1  -8    4.60    1.00
  -3   1  -8    4.00    1.30
  -3   1  -8    3.30    1.10
   3  -1   8    3.50    1.30
   3  -1   8    5.00    1.10
  -4   1  -8  109.29    8.50
  -4   1  -8  133.79    8.40
   4  -1   8  132.29    8.00
   4  -1   8  121.09    8.80
  -5   1  -8   31.20    3.10
  -5   1  -8   26.80    3.70
   5  -1   8   28.50    3.80
  -6   1  -8    5.10    1.90
   9   0  -8   47.30    4.20
  -9   0   8   45.20    4.00
   8   0  -8   41.00    3.60
  -8   0   8   39.00    3.50
  -8   0   8   43.80    5.20
   7   0  -8   -0.30    0.60
  -7   0   8    0.60    0.80
  -7   0   8    0.30    1.00
   6   0  -8    6.90    1.20
   6   0  -8    4.50    1.40
  -6   0   8    6.00    1.30
  -6   0   8    3.30    1.50
   5   0  -8   67.29    4.50
   5   0  -8   68.79    5.00
  -5   0   8   62.39    5.20
  -5   0   8   65.59    4.70
   4   0  -8   69.69    5.00
   4   0  -8   55.59    4.30
  -4   0   8   78.39    4.70
  -4   0   8   77.79    4.90
   3   0  -8   22.00    2.10
   3   0  -8   18.00    1.60
  -3   0   8   18.80    2.10
  -3   0   8   20.40    2.00
   2   0  -8   14.20    1.90
   2   0  -8   14.70    1.30
  -2   0   8   11.40    1.50
  -2   0   8   12.60    1.80
   1   0  -8   16.50    1.30
   1   0  -8   11.90    1.80
  -1   0   8   15.70    1.70
  -1   0   8   12.50    1.90
   0   0  -8 1558.34   83.89
   0   0   8 1476.45   83.39
   0   0   8 1521.25   84.19
  -1   0  -8  389.56   23.10
  -1   0  -8  405.46   23.20
   1   0   8  412.06   22.70
   1   0   8  400.66   23.60
  -2   0  -8   60.29    4.00
  -2   0  -8   58.69    4.50
  -2   0  -8   53.89    4.30
   2   0   8   56.59    4.00
   2   0   8   60.99    4.90
  -3   0  -8   17.20    2.00
  -3   0  -8   14.80    2.20
  -3   0  -8   15.10    2.40
   3   0   8   16.50    2.10
   3   0   8   16.60    2.70
  -4   0  -8   17.40    2.70
  -4   0  -8   16.90    2.20
  -4   0  -8   27.70    3.40
   4   0   8   15.70    2.90
   4   0   8   27.10    2.40
  -5   0  -8    0.90    1.30
  -5   0  -8    0.40    0.70
  -5   0  -8    0.40    0.90
   5   0   8   -0.50    1.00
   5   0   8   -0.50    0.70
   9  -1  -8   11.00    2.10
  -9   1   8   11.50    2.10
   8  -1  -8   76.09    5.70
  -8   1   8   81.79    5.80
   7  -1  -8    1.10    0.80
  -7   1   8   -0.50    0.60
   6  -1  -8  126.39    8.10
  -6   1   8  130.99    8.30
   5  -1  -8   50.09    3.70
  -5   1   8   51.19    3.80
   4  -1  -8  147.99    8.70
  -4   1   8  146.29    9.00
  -4   1   8  140.89    8.90
   3  -1  -8   43.30    2.90
  -3   1   8   38.60    3.20
  -3   1   8   39.60    3.10
   2  -1  -8   62.99    3.60
  -2   1   8   51.29    4.00
  -2   1   8   42.90    3.60
   1  -1  -8   34.60    2.60
  -1   1   8   34.30    3.10
  -1   1   8   38.60    2.70
   0  -1  -8   10.70    1.70
   0  -1  -8   10.70    1.30
   0   1   8    8.50    1.70
  -1  -1  -8   19.00    2.10
  -1  -1  -8   21.20    1.90
   1   1   8   15.20    2.50
   1   1   8   17.90    2.00
  -2  -1  -8   19.80    2.60
  -2  -1  -8   19.50    2.10
   2   1   8   19.80    2.90
  -3  -1  -8    2.50    0.90
  -3  -1  -8    2.00    1.00
   3   1   8    2.90    0.90
   3   1   8   -0.20    0.90
  -4  -1  -8    2.10    1.10
  -4  -1  -8    2.80    1.00
   4   1   8    1.80    1.10
   4   1   8    2.40    1.40
  -5  -1  -8   71.59    5.10
  -5  -1  -8   58.39    5.30
   5   1   8   61.99    5.90
   5   1   8   66.49    5.10
   9  -2  -8  305.37   18.50
  -9   2   8  304.37   18.40
   8  -2  -8   30.80    3.40
  -8   2   8   28.70    3.30
   7  -2  -8   22.50    2.70
  -7   2   8   22.10    2.70
   6  -2  -8   12.60    1.80
  -6   2   8   12.10    1.90
   5  -2  -8    0.00    0.50
  -5   2   8    0.30    0.50
   4  -2  -8    8.90    1.30
  -4   2   8    8.60    1.50
  -4   2   8    8.60    1.50
   3  -2  -8    0.20    0.40
  -3   2   8    0.70    0.60
  -3   2   8    0.20    0.50
   2  -2  -8    5.60    1.00
  -2   2   8    5.10    1.30
  -2   2   8    4.20    1.00
   1  -2  -8  197.18   11.70
  -1   2   8  204.88   12.60
  -1   2   8  202.68   11.80
   0  -2  -8 1150.78   63.59
   0  -2  -8 1147.49   62.99
   0   2   8 1121.29   63.89
  -1  -2  -8    9.60    1.80
  -1  -2  -8   10.20    1.50
   1   2   8    9.60    2.10
  -2  -2  -8    3.60    1.20
  -2  -2  -8    3.30    0.90
   2   2   8    4.90    1.20
   2   2   8    2.30    1.30
  -3  -2  -8    6.40    1.60
  -3  -2  -8   10.30    1.60
   3   2   8    8.80    2.20
   3   2   8    5.90    1.40
  -4  -2  -8   18.70    3.10
  -4  -2  -8   29.40    3.10
   4   2   8   33.10    4.20
   4   2   8   25.10    2.90
   8  -3  -8  109.69    7.80
  -8   3   8  118.79    7.90
   7  -3  -8   20.80    2.60
  -7   3   8   25.10    2.90
   6  -3  -8   21.90    2.40
  -6   3   8   16.00    2.30
   5  -3  -8   29.30    2.60
  -5   3   8   32.40    2.90
   4  -3  -8   81.19    5.40
  -4   3   8   81.49    5.80
  -4   3   8   87.09    5.70
   3  -3  -8    2.40    0.80
  -3   3   8    4.50    1.20
  -3   3   8    4.30    1.00
   2  -3  -8   65.79    4.30
  -2   3   8   68.09    4.50
  -2   3   8   59.49    4.90
   1  -3  -8   31.40    2.50
  -1   3   8   27.40    3.30
   0  -3  -8    4.20    1.00
   0  -3  -8    7.00    1.50
   0   3   8    7.50    1.80
  -1  -3  -8    4.20    1.00
  -1  -3  -8    2.50    1.10
   1   3   8    2.50    1.30
  -2  -3  -8    7.50    1.40
  -2  -3  -8    6.20    1.70
   2   3   8    4.60    1.70
   2   3   8    5.90    1.40
  -3  -3  -8    1.20    0.90
  -3  -3  -8    2.50    1.30
   3   3   8    2.20    1.10
   3   3   8    2.90    1.50
  -4  -3  -8    0.00    1.00
   4   3   8   -0.30    0.90
   8  -4  -8    1.70    1.20
  -8   4   8    2.70    1.30
   7  -4  -8   19.00    2.50
  -7   4   8   25.10    3.00
   6  -4  -8    4.20    1.10
  -6   4   8    4.50    1.40
   5  -4  -8   15.40    2.10
  -5   4   8   15.40    2.10
   4  -4  -8    8.30    1.40
  -4   4   8    8.20    1.50
  -4   4   8   10.30    1.90
   3  -4  -8   27.30    2.30
  -3   4   8   22.30    2.50
  -3   4   8   27.20    3.30
   2  -4  -8   -0.70    0.40
  -2   4   8    0.00    0.60
  -2   4   8   -0.80    0.80
   1  -4  -8  180.58   10.40
  -1   4   8  161.18   11.20
   0  -4  -8   75.89    5.60
   0  -4  -8   74.09    5.00
   0   4   8   67.89    5.70
  -1  -4  -8  122.79    9.50
  -1  -4  -8  169.18    9.30
   1   4   8  153.48   10.20
  -2  -4  -8   53.29    4.70
  -2  -4  -8   51.29    4.10
   2   4   8   49.99    4.80
  -3  -4  -8    0.40    0.80
   3   4   8    0.00    1.30
   3   4   8   -0.30    0.80
   7  -5  -8   32.20    3.20
  -7   5   8   34.90    3.30
   6  -5  -8    2.40    1.00
  -6   5   8    1.50    1.00
   5  -5  -8   24.00    2.60
  -5   5   8   19.20    2.60
  -5   5   8   19.90    2.90
   4  -5  -8   47.20    3.60
  -4   5   8   50.09    3.80
  -4   5   8   43.00    4.10
   3  -5  -8    9.10    1.50
  -3   5   8   13.10    2.30
  -3   5   8    9.00    1.60
   2  -5  -8  123.79    7.50
  -2   5   8  109.99    8.30
   1  -5  -8    0.50    0.60
  -1   5   8    0.00    0.90
   0  -5  -8   37.30    3.10
   0  -5  -8   36.60    3.60
   0   5   8   32.10    4.20
  -1  -5  -8   12.10    2.30
  -1  -5  -8    9.60    1.70
   1   5   8   18.30    3.10
  -2  -5  -8    5.80    1.60
   2   5   8    7.70    3.40
   6  -6  -8    0.00    0.80
  -6   6   8    0.00    0.90
   5  -6  -8   -0.90    0.60
  -5   6   8    0.10    1.10
  -5   6   8    1.60    1.00
   4  -6  -8    1.50    0.90
  -4   6   8    0.60    0.80
  -4   6   8    2.80    1.40
   3  -6  -8    0.10    0.70
  -3   6   8    0.40    1.00
  -3   6   8    0.10    0.80
   2  -6  -8    3.50    1.10
  -2   6   8    2.30    1.50
   1  -6  -8    6.20    1.40
  -1   6   8    6.20    1.90
   0  -6  -8   32.60    3.50
   0   6   8   28.20    4.10
  -5   7   8   13.80    2.20
  -5   7   8   12.90    2.70
   4  -7  -8    0.60    0.90
  -4   7   8    1.60    1.00
  -4   7   8   -1.70    1.20
   3  -7  -8   12.20    1.90
  -3   7   8    8.80    2.30
   2  -7  -8    4.30    1.30
  -2   7   8    3.70    1.70
   0 -11   9   17.60    3.00
   2  10  -9   16.20    3.40
  -2 -10   9   13.10    2.50
   1  10  -9   86.99    7.60
  -1 -10   9   90.49    6.90
   0  10  -9   22.10    3.00
   0  10  -9   23.50    3.90
   0 -10   9   26.30    3.50
   0 -10   9   25.10    3.30
  -1  10  -9   13.00    2.90
  -1  10  -9   12.20    2.20
   1 -10   9    9.10    2.20
   1 -10   9   10.90    2.40
  -2  10  -9    1.20    1.10
  -2  10  -9    3.60    2.20
   2 -10   9    2.50    1.50
   2 -10   9    2.90    1.60
  -3  10  -9   -0.40    0.90
   4   9  -9    7.20    2.30
  -4  -9   9    5.40    1.80
   3   9  -9    0.90    1.40
  -3  -9   9    0.00    1.10
   2   9  -9  125.89    9.90
  -2  -9   9  134.19    9.10
   1   9  -9   -0.50    1.10
  -1  -9   9    1.90    1.20
  -1  -9   9   -0.30    0.90
   0   9  -9   -0.40    0.70
   0   9  -9   -0.30    1.10
   0  -9   9   -0.60    0.90
   0  -9   9    0.50    0.90
  -1   9  -9  197.88   13.30
  -1   9  -9  190.08   12.10
   1  -9   9  195.18   12.40
   1  -9   9  190.58   12.50
  -2   9  -9   65.29    5.00
  -2   9  -9   62.29    6.00
   2  -9   9   62.89    5.50
   2  -9   9   63.29    5.20
  -3   9  -9   16.20    3.20
   3  -9   9   10.50    2.40
   5   8  -9    9.90    2.80
  -5  -8   9   16.60    2.60
   4   8  -9    7.50    2.30
  -4  -8   9    6.90    1.80
   3   8  -9   -0.10    1.20
  -3  -8   9   -0.30    0.80
   2   8  -9   37.30    4.90
  -2  -8   9   40.30    3.80
   1   8  -9   35.00    4.50
  -1  -8   9   30.10    3.40
  -1  -8   9   27.30    3.40
   0   8  -9   -0.30    1.00
   0  -8   9    0.40    0.90
   0  -8   9   -0.20    0.80
  -1   8  -9    0.50    1.10
  -1   8  -9    0.90    0.80
   1  -8   9    0.90    0.90
   1  -8   9    1.20    1.10
  -2   8  -9   21.40    2.60
  -2   8  -9   26.50    3.80
   2  -8   9   24.70    3.30
   2  -8   9   16.50    2.50
  -3   8  -9   89.19    7.40
   3  -8   9   89.49    7.10
  -4   8  -9    0.70    1.30
   4  -8   9    0.90    1.40
   6   7  -9   14.00    3.20
  -6  -7   9   19.40    4.10
  -6  -7   9   17.90    2.80
   5   7  -9   33.70    4.80
  -5  -7   9   33.90    3.90
   4   7  -9   17.90    3.30
  -4  -7   9   15.90    2.50
   3   7  -9    6.70    2.10
  -3  -7   9    7.10    1.60
   2   7  -9   -0.90    0.90
  -2  -7   9    0.10    0.60
  -2  -7   9   -0.30    0.70
   1   7  -9    1.10    1.00
  -1  -7   9    3.80    1.30
  -1  -7   9    3.40    1.20
   0   7  -9   49.50    4.70
   0  -7   9   51.29    4.20
   0  -7   9   45.40    4.00
  -1   7  -9  111.39    8.50
   1  -7   9  125.79    7.90
   1  -7   9  109.69    8.10
  -2   7  -9   54.99    5.10
   2  -7   9   54.49    4.40
   2  -7   9   55.79    4.80
  -3   7  -9   14.00    2.80
   3  -7   9   10.30    2.30
  -4   7  -9   14.10    2.90
   4  -7   9   13.40    2.60
   7   6  -9   -0.20    1.40
  -7  -6   9    0.10    1.70
  -7  -6   9   -1.30    0.80
   6   6  -9   -0.20    1.30
  -6  -6   9    3.10    1.30
  -6  -6   9    1.80    1.90
   5   6  -9    7.80    2.10
  -5  -6   9    4.80    1.40
   4   6  -9   16.00    3.00
  -4  -6   9   16.60    2.40
   3   6  -9   15.70    2.80
  -3  -6   9   19.20    2.50
   2   6  -9   12.70    2.60
  -2  -6   9   11.10    1.90
  -2  -6   9   11.90    1.80
   1   6  -9   29.00    3.80
  -1  -6   9   25.80    3.00
  -1  -6   9   26.00    3.00
   0   6  -9   63.19    5.60
   0  -6   9   70.39    5.30
   0  -6   9   74.79    5.20
  -1   6  -9   99.39    7.80
   1  -6   9  109.39    7.20
   1  -6   9  112.49    7.60
  -2   6  -9    1.30    1.00
   2  -6   9    1.60    1.00
  -3   6  -9   23.50    3.40
   3  -6   9   17.10    2.80
  -4   6  -9   -0.60    0.60
   4  -6   9    0.30    1.10
  -8  -5   9   18.90    2.80
   7   5  -9    7.10    2.40
  -7  -5   9    6.90    2.50
  -7  -5   9    9.40    1.90
   6   5  -9   38.60    4.90
  -6  -5   9   27.90    4.70
  -6  -5   9   36.50    3.40
   5   5  -9    2.60    1.40
  -5  -5   9    4.20    1.30
   4   5  -9   19.70    3.10
  -4  -5   9   19.30    2.60
   3   5  -9   12.00    2.40
  -3  -5   9    8.00    1.70
   2   5  -9   10.70    2.10
  -2  -5   9   11.30    1.70
  -2  -5   9   10.90    1.80
   1   5  -9    1.60    1.10
  -1  -5   9    0.20    0.70
  -1  -5   9    1.70    0.90
   0   5  -9   53.39    4.80
   0  -5   9   53.89    4.40
   0  -5   9   59.19    4.30
  -1   5  -9    2.30    1.10
   1  -5   9    0.60    0.80
   1  -5   9    0.80    0.70
  -2   5  -9   96.69    7.10
   2  -5   9   89.39    6.80
  -3   5  -9   24.00    3.50
   3  -5   9   23.40    3.30
  -4   5  -9    0.40    1.10
   4  -5   9   -0.30    1.00
  -5   5  -9   76.49    6.60
   5  -5   9   79.39    6.70
   8   4  -9    0.10    1.30
  -8  -4   9   -0.40    1.50
  -8  -4   9    0.80    1.00
   7   4  -9   44.90    5.40
  -7  -4   9   42.50    3.80
  -7  -4   9   36.30    5.30
   6   4  -9    1.10    1.00
  -6  -4   9    1.60    1.50
  -6  -4   9    1.30    1.00
   5   4  -9   -0.40    0.60
  -5  -4   9    0.20    0.70
   4   4  -9   64.89    5.50
  -4  -4   9   66.39    5.00
   3   4  -9   11.70    2.20
  -3  -4   9    7.40    1.60
   2   4  -9   61.19    5.10
  -2  -4   9   62.09    4.50
  -2  -4   9   65.29    4.70
   1   4  -9  140.39    9.50
  -1  -4   9  138.99    8.90
  -1  -4   9  141.69    9.00
   0   4  -9   36.60    3.40
   0  -4   9   29.10    2.70
   0  -4   9   31.60    3.00
  -1   4  -9   36.20    3.60
   1  -4   9   41.20    3.60
   1  -4   9   37.80    3.10
  -2   4  -9    6.20    1.70
   2  -4   9    5.70    1.50
  -3   4  -9    1.60    1.20
   3  -4   9    2.30    1.20
  -4   4  -9    3.90    1.60
   4  -4   9    3.60    1.50
  -5   4  -9   17.10    3.10
   5  -4   9   20.30    3.40
   8   3  -9    1.20    1.40
  -8  -3   9    0.00    0.80
  -8  -3   9    0.70    1.40
   7   3  -9   23.20    3.60
  -7  -3   9   27.60    3.20
  -7  -3   9   25.20    4.20
   6   3  -9    7.30    2.00
  -6  -3   9   10.70    1.90
  -6  -3   9    6.50    2.20
   5   3  -9   90.99    6.70
  -5  -3   9   83.09    6.00
   4   3  -9   54.69    4.60
  -4  -3   9   51.19    4.10
   3   3  -9    1.70    1.00
  -3  -3   9    3.60    0.90
  -3  -3   9    1.90    0.80
   2   3  -9  158.68   10.40
  -2  -3   9  157.68    9.90
  -2  -3   9  161.08    9.90
   1   3  -9   74.89    5.50
  -1  -3   9   68.49    5.00
  -1  -3   9   66.69    4.80
   0   3  -9    3.40    1.30
   0  -3   9    4.20    1.10
   0  -3   9    5.10    1.30
  -1   3  -9   21.90    2.90
   1  -3   9   16.10    2.50
  -2   3  -9   71.49    5.60
   2  -3   9   67.89    5.50
  -3   3  -9    9.70    2.10
   3  -3   9    4.50    1.60
  -4   3  -9   93.99    6.80
   4  -3   9   75.49    6.60
  -5   3  -9    4.60    1.90
   5  -3   9    8.80    2.20
  -8  -2   9   25.60    4.30
  -8  -2   9   28.30    3.20
   7   2  -9   54.29    5.00
  -7  -2   9   52.29    6.10
  -7  -2   9   49.50    4.20
   6   2  -9    0.70    1.00
  -6  -2   9    0.60    1.20
  -6  -2   9    0.40    0.70
   5   2  -9    0.70    0.90
  -5  -2   9    2.60    1.00
   4   2  -9  113.89    7.70
  -4  -2   9  105.69    7.20
   3   2  -9    8.50    1.90
  -3  -2   9   12.50    1.70
  -3  -2   9   14.40    1.90
   2   2  -9  182.08   12.00
  -2  -2   9  202.08   11.70
  -2  -2   9  194.68   11.70
   1   2  -9   19.10    2.60
  -1  -2   9   20.60    2.20
  -1  -2   9   17.40    2.40
   0   2  -9   60.59    4.80
   0  -2   9   62.09    4.80
   0  -2   9   63.49    4.30
  -1   2  -9    4.60    1.30
   1  -2   9    3.60    1.20
  -2   2  -9    1.70    1.00
  -2   2  -9    1.70    0.90
   2  -2   9    1.20    1.00
  -3   2  -9   -0.30    0.60
  -3   2  -9    1.50    1.00
   3  -2   9    0.10    0.90
  -4   2  -9   15.50    2.70
   4  -2   9   15.80    2.80
  -5   2  -9   56.59    5.30
   5  -2   9   58.99    5.50
  -9  -1   9   17.60    3.00
   8   1  -9   10.50    1.90
  -8  -1   9   12.50    2.10
  -8  -1   9   14.00    3.10
   7   1  -9    3.80    1.50
   7   1  -9    3.60    1.10
  -7  -1   9    1.80    0.90
  -7  -1   9    4.40    1.80
   6   1  -9  179.18   11.70
   6   1  -9  216.88   12.90
  -6  -1   9  193.98   12.10
  -6  -1   9  207.48   13.30
   5   1  -9  356.26   20.00
   5   1  -9  342.97   20.80
  -5  -1   9  347.17   20.40
   4   1  -9    7.70    1.20
   4   1  -9    8.30    1.70
  -4  -1   9    4.30    1.20
   3   1  -9   11.90    1.90
  -3  -1   9    9.80    1.60
  -3  -1   9   10.40    1.70
   2   1  -9  307.47   18.80
  -2  -1   9  330.97   18.50
  -2  -1   9  317.77   18.70
   1   1  -9   15.80    2.20
  -1  -1   9   16.10    1.90
  -1  -1   9   14.90    2.20
   0   1  -9   18.00    2.50
   0  -1   9   18.90    2.50
  -1   1  -9   54.39    4.40
   1  -1   9   52.19    4.50
  -2   1  -9    3.30    1.10
  -2   1  -9    3.60    1.30
   2  -1   9    3.60    1.30
  -3   1  -9  231.58   13.30
  -3   1  -9  179.98   12.50
   3  -1   9  217.38   13.50
  -4   1  -9   27.50    3.80
  -4   1  -9   32.30    3.10
   4  -1   9   27.80    3.90
  -5   1  -9   28.70    3.80
  -5   1  -9   30.90    6.10
   9   0  -9   59.19    4.90
  -9   0   9   59.89    5.40
   8   0  -9   64.59    5.00
  -8   0   9   65.29    5.10
   7   0  -9    4.70    1.30
  -7   0   9    5.60    1.40
   6   0  -9   56.19    4.20
  -6   0   9   58.79    4.50
   5   0  -9   47.00    3.30
  -5   0   9   37.80    3.40
   4   0  -9   30.70    2.50
  -4   0   9   35.60    2.90
   3   0  -9    1.30    0.50
  -3   0   9    1.50    0.80
  -3   0   9    0.90    0.70
   2   0  -9    0.10    0.40
  -2   0   9   -0.40    0.40
  -2   0   9    0.20    0.70
   1   0  -9    0.50    0.40
  -1   0   9    1.30    0.90
  -1   0   9    2.50    0.80
   0   0  -9  111.99    6.80
   0   0   9  110.69    7.70
  -1   0  -9   48.80    3.70
  -1   0  -9   62.29    4.50
   1   0   9   60.19    4.80
  -2   0  -9    4.40    1.00
  -2   0  -9    2.80    1.10
   2   0   9    3.30    1.00
   2   0   9    2.90    1.40
  -3   0  -9   81.29    6.20
   3   0   9   87.89    5.80
   3   0   9   86.79    6.80
  -4   0  -9   12.40    2.30
   4   0   9   17.40    3.00
   9  -1  -9   11.90    2.20
   8  -1  -9   35.70    3.30
  -8   1   9   34.60    3.30
   7  -1  -9   24.20    2.80
  -7   1   9   26.40    3.10
   6  -1  -9  873.51   49.90
  -6   1   9  916.91   50.19
   5  -1  -9    9.30    1.40
  -5   1   9    8.60    1.60
   4  -1  -9    4.60    1.00
  -4   1   9    7.80    1.40
  -4   1   9    5.10    1.30
   3  -1  -9   29.70    2.30
  -3   1   9   25.50    2.60
  -3   1   9   27.00    2.50
   2  -1  -9    0.20    0.50
  -2   1   9    0.90    0.60
  -2   1   9    0.70    0.80
   1  -1  -9   58.49    3.70
  -1   1   9   46.20    4.30
   0  -1  -9  137.79    8.20
   0   1   9  132.49    9.10
  -1  -1  -9    1.40    0.80
  -1  -1  -9    0.90    0.60
   1   1   9    0.70    0.90
  -2  -1  -9   18.00    2.20
  -2  -1  -9   25.20    2.70
   2   1   9   19.80    3.10
   2   1   9   18.20    2.30
  -3  -1  -9  111.89    7.90
   3   1   9  110.59    7.40
   3   1   9  108.89    8.30
  -4  -1  -9   -0.70    0.90
  -4  -1  -9    0.20    0.80
   4   1   9    0.50    0.90
   4   1   9   -0.10    1.70
   8  -2  -9   45.70    4.10
  -8   2   9   49.30    4.20
   7  -2  -9   16.80    2.40
  -7   2   9   20.30    2.70
   6  -2  -9  142.99    8.70
  -6   2   9  130.49    8.80
   5  -2  -9   17.70    2.10
  -5   2   9   17.20    2.20
   4  -2  -9   22.50    2.20
  -4   2   9   26.50    2.50
  -4   2   9   30.00    2.70
   3  -2  -9   37.40    3.10
  -3   2   9   46.40    3.70
  -3   2   9   46.20    3.40
   2  -2  -9    1.30    0.60
  -2   2   9    0.10    0.70
  -2   2   9    1.80    0.80
   1  -2  -9  411.36   23.50
  -1   2   9  422.26   24.50
   0  -2  -9    0.60    0.50
   0   2   9    0.60    0.80
  -1  -2  -9  225.48   13.90
  -1  -2  -9  232.48   13.30
   1   2   9  208.88   14.20
  -2  -2  -9   33.90    3.60
  -2  -2  -9   44.60    3.40
   2   2   9   41.00    4.70
  -3  -2  -9    1.40    0.80
  -3  -2  -9    0.00    1.00
   3   2   9    0.30    0.80
   3   2   9    0.40    1.20
   8  -3  -9    6.30    1.70
  -8   3   9    7.60    1.80
   7  -3  -9  128.19    8.30
  -7   3   9  119.09    8.30
   6  -3  -9  142.49    9.30
  -6   3   9  154.78    9.60
   5  -3  -9   18.30    2.30
  -5   3   9   24.30    2.80
   4  -3  -9   32.50    2.70
  -4   3   9   38.70    4.70
  -4   3   9   32.20    2.90
   3  -3  -9   -0.20    0.50
  -3   3   9   -0.40    0.80
  -3   3   9   -0.10    0.60
   2  -3  -9    2.10    0.80
  -2   3   9    2.50    0.80
  -2   3   9    3.50    1.20
   1  -3  -9  195.38   11.50
  -1   3   9  189.68   12.40
   0  -3  -9   96.39    6.10
   0   3   9   84.79    6.80
  -1  -3  -9    2.30    1.20
  -1  -3  -9    1.70    0.80
   1   3   9    1.80    1.30
  -2  -3  -9    2.00    1.30
  -2  -3  -9    3.30    1.20
   2   3   9    4.00    1.80
  -3  -3  -9   11.60    2.20
   3   3   9   10.80    2.00
   7  -4  -9   69.29    5.40
  -7   4   9   75.29    5.60
   6  -4  -9    0.10    0.80
  -6   4   9   -0.50    0.70
   5  -4  -9    0.40    0.70
  -5   4   9   -0.30    0.70
   4  -4  -9    0.80    0.70
  -4   4   9    1.10    1.00
  -4   4   9    0.70    0.70
   3  -4  -9    7.80    1.40
  -3   4   9   10.20    1.60
  -3   4   9    8.80    2.00
   2  -4  -9   45.00    3.40
  -2   4   9   44.50    4.20
   1  -4  -9  196.18   11.40
  -1   4   9  179.48   12.30
   0  -4  -9   58.19    4.40
   0   4   9   65.59    5.50
  -1  -4  -9   55.19    4.10
  -1  -4  -9   49.90    4.60
   1   4   9   49.50    5.50
   6  -5  -9   20.10    2.70
  -6   5   9   18.90    2.80
   5  -5  -9  305.77   16.90
  -5   5   9  260.67   16.90
   4  -5  -9   38.70    3.30
  -4   5   9   36.30    3.30
  -4   5   9   40.60    4.60
   3  -5  -9    0.70    0.80
  -3   5   9    3.20    1.00
  -3   5   9    2.70    1.50
   2  -5  -9   43.50    3.50
  -2   5   9   44.90    5.10
   1  -5  -9   12.80    1.90
  -1   5   9   11.00    2.50
   0  -5  -9   14.80    2.10
   0   5   9   14.90    2.90
   5  -6  -9   -0.60    0.90
  -5   6   9    3.50    1.30
   4  -6  -9   27.50    3.00
  -4   6   9   26.10    3.90
  -4   6   9   29.80    3.30
   3  -6  -9    0.30    0.80
  -3   6   9    0.70    1.30
   2  -6  -9   30.40    2.90
  -2   6   9   28.90    4.10
   0 -10  10   51.89    4.90
   1 -10  10  357.76   22.50
   3   9 -10   65.29    6.10
  -3  -9  10   41.80    4.90
   2   9 -10    5.00    2.00
  -2  -9  10    7.60    2.00
   1   9 -10    7.20    2.50
  -1  -9  10    6.30    1.80
   0   9 -10    3.40    1.90
   0  -9  10    6.40    1.80
   0  -9  10    5.20    1.70
  -1   9 -10   45.90    5.70
   1  -9  10   39.10    4.40
   1  -9  10   38.10    4.50
   2  -9  10   31.20    4.10
   4   8 -10   65.19    6.40
  -4  -8  10   68.29    5.60
   3   8 -10    1.40    1.60
  -3  -8  10    1.40    1.20
   2   8 -10   72.49    6.50
  -2  -8  10   65.99    5.50
   1   8 -10   10.70    2.70
  -1  -8  10   14.40    2.50
  -1  -8  10   11.00    2.10
   0   8 -10  134.69   10.00
   0  -8  10  122.19    9.10
   0  -8  10  143.99    9.20
  -1   8 -10   50.89    5.30
   1  -8  10   50.19    4.50
   1  -8  10   58.99    4.90
  -2   8 -10   58.29    5.60
   2  -8  10   59.59    5.40
   5   7 -10    8.50    2.50
  -5  -7  10    6.00    1.70
   4   7 -10    4.30    1.90
  -4  -7  10    2.80    1.40
   3   7 -10  103.19    8.00
  -3  -7  10   91.79    6.90
   2   7 -10   19.60    3.50
  -2  -7  10   25.10    3.10
   1   7 -10   24.30    3.80
  -1  -7  10   25.50    3.10
  -1  -7  10   24.00    3.10
   0   7 -10    8.90    2.30
   0  -7  10    8.60    2.00
   0  -7  10   10.90    2.00
  -1   7 -10    0.50    1.20
   1  -7  10    0.70    0.90
   1  -7  10    2.40    1.30
  -2   7 -10   34.00    4.40
   2  -7  10   29.70    3.80
  -3   7 -10   57.79    5.50
   3  -7  10   49.99    5.00
   6   6 -10   21.10    3.90
  -6  -6  10   28.30    3.40
   5   6 -10   35.60    4.70
  -5  -6  10   30.30    3.60
   4   6 -10   69.19    6.10
  -4  -6  10   66.99    5.30
   3   6 -10    0.30    1.10
  -3  -6  10   -0.10    0.80
   2   6 -10   -0.10    0.90
  -2  -6  10    2.00    1.10
  -2  -6  10    1.80    1.30
   1   6 -10   11.60    2.40
  -1  -6  10    9.80    1.90
  -1  -6  10   11.10    1.90
   0   6 -10   32.60    4.40
   0  -6  10   40.60    3.40
   0  -6  10   34.50    3.40
  -1   6 -10   14.00    2.70
   1  -6  10   13.60    2.30
   1  -6  10    9.50    2.10
  -2   6 -10  261.07   17.20
   2  -6  10  282.17   17.00
  -3   6 -10    5.30    1.90
   3  -6  10    5.40    1.80
  -4   6 -10    0.60    1.20
   7   5 -10   58.29    6.00
  -7  -5  10   60.39    5.00
  -7  -5  10   60.39    7.40
   6   5 -10   45.40    5.60
  -6  -5  10   44.70    4.00
   5   5 -10   19.90    3.50
  -5  -5  10   26.90    3.20
   4   5 -10   14.90    2.80
  -4  -5  10   10.20    2.00
   3   5 -10    0.30    1.00
  -3  -5  10    0.10    0.70
   2   5 -10   -0.60    0.50
  -2  -5  10    1.30    0.90
  -2  -5  10    0.40    0.80
   1   5 -10    6.20    1.80
  -1  -5  10    4.60    1.20
  -1  -5  10    3.30    1.20
   0   5 -10   16.50    2.80
   0  -5  10   14.50    2.10
   0  -5  10   15.50    2.40
  -1   5 -10    7.30    2.00
   1  -5  10    5.20    1.50
  -2   5 -10   33.20    4.30
   2  -5  10   39.10    4.30
  -3   5 -10   19.70    3.20
   3  -5  10   20.00    3.10
  -4   5 -10   25.50    4.00
   4  -5  10   28.10    4.10
   7   4 -10    6.20    2.20
  -7  -4  10    6.80    2.50
  -7  -4  10    5.70    1.70
   6   4 -10    7.00    2.10
  -6  -4  10    8.10    1.70
   5   4 -10    1.50    1.20
  -5  -4  10    1.10    1.00
   4   4 -10  127.29    9.10
  -4  -4  10  126.79    8.40
   3   4 -10   28.00    3.70
  -3  -4  10   26.40    3.10
   2   4 -10    9.70    2.10
  -2  -4  10    7.60    1.50
  -2  -4  10    8.40    1.60
   1   4 -10  131.79    8.90
  -1  -4  10  127.39    8.10
  -1  -4  10  114.09    8.10
   0   4 -10   10.80    2.20
   0  -4  10   14.50    2.30
   0  -4  10   13.50    2.00
  -1   4 -10   28.00    3.70
   1  -4  10   32.00    3.70
  -2   4 -10   36.30    4.50
   2  -4  10   43.90    4.10
  -3   4 -10    2.90    1.50
   3  -4  10    4.30    1.60
  -4   4 -10    2.00    1.50
   4  -4  10    3.40    1.50
   8   3 -10   29.80    4.40
  -8  -3  10   27.00    3.30
  -8  -3  10   27.50    4.60
   7   3 -10   19.30    3.40
  -7  -3  10   26.40    3.20
   6   3 -10    4.70    1.80
  -6  -3  10    9.40    1.80
  -6  -3  10    4.90    2.00
   5   3 -10    5.60    1.80
  -5  -3  10    4.90    1.40
   4   3 -10    9.00    2.00
  -4  -3  10    8.10    1.60
   3   3 -10    0.00    0.70
  -3  -3  10    0.30    0.70
   2   3 -10    0.40    0.80
  -2  -3  10   -0.90    0.50
  -2  -3  10    0.10    0.60
   1   3 -10   63.29    5.30
  -1  -3  10   64.79    5.00
  -1  -3  10   67.19    4.80
   0   3 -10    1.40    1.00
   0  -3  10    1.30    0.90
  -1   3 -10    1.00    1.00
   1  -3  10    3.50    1.30
  -2   3 -10    3.40    1.40
   2  -3  10    3.50    1.50
  -3   3 -10    8.10    2.10
   3  -3  10    9.10    2.20
  -4   3 -10   34.40    4.40
   4  -3  10   30.00    4.20
   8   2 -10   96.59    7.80
  -8  -2  10   88.29    9.00
  -8  -2  10   92.79    6.70
   7   2 -10    6.60    2.20
  -7  -2  10    7.10    2.50
  -7  -2  10   13.20    2.10
   6   2 -10    0.50    1.00
  -6  -2  10    0.20    0.70
  -6  -2  10    1.00    1.30
   5   2 -10   50.79    5.00
  -5  -2  10   52.19    4.20
   4   2 -10   55.89    4.90
  -4  -2  10   64.29    4.70
   3   2 -10    9.70    1.90
  -3  -2  10    5.50    1.30
  -3  -2  10    8.20    1.60
   2   2 -10   58.19    4.80
  -2  -2  10   64.59    4.40
  -2  -2  10   53.99    4.40
   1   2 -10    2.10    1.10
  -1  -2  10    3.30    1.10
  -1  -2  10    5.90    1.40
   0   2 -10    0.20    0.80
   0  -2  10    0.90    0.90
  -1   2 -10    4.30    1.40
   1  -2  10    3.10    1.30
  -2   2 -10    1.20    1.00
   2  -2  10   -0.40    0.80
  -3   2 -10   11.40    2.00
  -3   2 -10   13.70    2.60
   3  -2  10   11.40    2.40
  -4   2 -10   -0.90    1.20
  -8  -1  10    4.30    1.50
  -7  -1  10   19.30    2.70
  -6  -1  10    8.20    1.70
  -5  -1  10    0.20    0.70
  -4  -1  10    5.70    1.40
  -3  -1  10  106.29    6.80
  -3  -1  10   98.29    6.80
  -2  -1  10    0.50    0.80
  -2  -1  10    1.00    0.70
  -1  -1  10   96.69    6.80
  -1  -1  10   94.59    6.20
   0  -1  10   24.00    3.30
   1  -1  10   39.50    3.90
  -2   1 -10   47.40    4.00
   2  -1  10   44.60    4.50
  -3   1 -10   83.19    6.30
   3  -1  10   90.89    7.10
  -4   1 -10   -0.70    0.90
  -8   0  10   22.70    2.90
   7   0 -10    7.40    1.80
  -7   0  10    6.50    1.60
   6   0 -10   46.50    3.80
  -6   0  10   49.80    4.10
   5   0 -10   44.10    3.40
  -5   0  10   41.00    3.60
   4   0 -10    6.10    1.30
  -4   0  10    7.80    1.50
  -3   0  10   58.99    4.60
  -3   0  10   63.39    4.50
  -2   0  10    4.30    1.30
  -2   0  10    5.70    1.20
  -1   0  10   -0.60    0.60
   0   0  10   45.40    4.20
   1   0  10    0.80    1.00
  -2   0 -10   53.69    4.40
   2   0  10   48.40    4.80
  -3   0 -10  125.99    8.90
   3   0  10  141.59    9.80
   8  -1 -10    9.10    1.90
  -8   1  10   11.30    2.40
   7  -1 -10   49.80    4.00
  -7   1  10   50.69    4.30
   6  -1 -10    6.10    1.30
  -6   1  10    7.60    1.70
   5  -1 -10  129.89    7.60
  -5   1  10  104.99    7.70
   4  -1 -10   43.70    3.50
  -4   1  10   56.69    4.00
   3  -1 -10  120.09    7.60
  -3   1  10  126.89    7.90
  -3   1  10  126.09    8.30
   2  -1 -10   41.30    3.00
  -2   1  10   38.80    3.20
  -2   1  10   44.40    3.80
   1  -1 -10    8.80    1.30
  -1   1  10    8.40    1.90
   0  -1 -10  164.98    9.60
   0   1  10  147.79   10.60
  -1  -1 -10   -0.50    0.50
   1   1  10    1.90    1.20
  -2  -1 -10  106.29    7.80
   2   1  10  114.79    8.40
  -3  -1 -10    6.60    2.10
   8  -2 -10   11.30    2.10
   7  -2 -10  158.48   10.30
  -7   2  10  164.68   10.60
   6  -2 -10  115.69    7.30
  -6   2  10  100.79    7.40
   5  -2 -10    3.90    1.20
  -5   2  10    6.00    1.50
   4  -2 -10   -0.50    0.60
  -4   2  10    0.00    0.80
   3  -2 -10    3.50    1.00
  -3   2  10    2.70    1.00
  -3   2  10    1.30    0.90
   2  -2 -10   34.30    2.80
  -2   2  10   40.40    3.70
   1  -2 -10  134.49    8.20
  -1   2  10  130.49    9.20
   0  -2 -10    5.90    1.20
   0   2  10    4.20    1.60
  -1  -2 -10    2.40    1.30
  -1  -2 -10    2.80    1.00
   1   2  10    3.60    1.50
  -2  -2 -10  176.88   12.00
  -2  -2 -10  223.08   13.20
   7  -3 -10  121.49    8.80
  -7   3  10  152.88    9.30
   6  -3 -10   91.89    6.60
  -6   3  10  104.19    7.00
   5  -3 -10  105.39    7.60
  -5   3  10  135.99    8.10
   4  -3 -10   74.99    5.40
  -4   3  10   83.99    5.70
  -4   3  10   79.99    6.10
   3  -3 -10    8.90    1.50
  -3   3  10   10.80    2.20
  -3   3  10    8.40    1.60
   2  -3 -10    3.00    0.90
  -2   3  10    3.00    1.40
   1  -3 -10    5.40    1.20
  -1   3  10    4.90    1.70
   0  -3 -10  107.29    6.80
   0   3  10   93.89    7.60
  -1  -3 -10   -1.20    0.80
  -1  -3 -10    0.70    0.80
   1   3  10    2.10    1.70
   6  -4 -10   25.40    3.10
  -6   4  10   29.60    3.40
   5  -4 -10   -0.10    0.80
  -5   4  10   -0.30    0.90
   4  -4 -10    3.00    1.10
  -4   4  10    3.40    1.60
  -4   4  10    5.10    1.40
   3  -4 -10   19.70    2.40
  -3   4  10   24.40    3.50
   2  -4 -10  352.06   20.60
  -2   4  10  359.96   21.70
   1  -4 -10    9.90    1.70
  -1   4  10    7.50    2.10
   0  -4 -10   41.60    3.50
   5  -5 -10   34.70    4.10
  -5   5  10   43.10    3.70
   4  -5 -10   31.00    3.40
  -4   5  10   34.60    3.70
  -4   5  10   39.70    4.50
   3  -5 -10    0.40    0.80
  -3   5  10   -0.20    1.10
   2  -5 -10   74.49    5.30
  -2   5  10   72.79    6.40
  -1  -9  11    7.70    2.10
   0  -9  11  125.09    9.00
   0  -9  11  123.69    8.80
   1  -9  11   38.00    4.30
   3   8 -11   37.30    5.30
  -3  -8  11   40.80    4.40
   2   8 -11    6.00    2.40
  -2  -8  11    5.00    1.80
   1   8 -11    1.40    1.20
  -1  -8  11    1.30    1.10
   0   8 -11   68.69    6.20
   0  -8  11   66.09    5.40
   0  -8  11   60.59    5.40
  -1   8 -11  115.39    9.20
   1  -8  11  107.19    8.20
   5   7 -11    5.70    2.70
   4   7 -11  203.08   14.20
  -4  -7  11  199.48   13.00
   3   7 -11   17.20    3.40
  -3  -7  11   16.00    2.70
   2   7 -11    1.30    1.30
  -2  -7  11    1.00    1.10
   1   7 -11    0.10    1.10
  -1  -7  11    0.40    0.90
  -1  -7  11   -0.10    1.00
   0   7 -11   10.10    2.50
   0  -7  11    7.60    1.80
   0  -7  11    7.50    1.90
  -1   7 -11    1.90    1.50
   1  -7  11    3.60    1.50
  -2   7 -11   -0.30    0.90
   2  -7  11   -0.40    1.00
   6   6 -11    2.60    1.70
   5   6 -11    3.60    1.80
  -5  -6  11    4.20    1.50
   4   6 -11  173.08   12.00
  -4  -6  11  161.28   10.90
   3   6 -11  165.58   11.50
  -3  -6  11  152.18   10.40
   2   6 -11   44.00    5.30
  -2  -6  11   45.30    4.00
   1   6 -11    8.60    2.20
  -1  -6  11    9.50    1.90
  -1  -6  11    9.70    2.00
   0   6 -11    8.70    2.30
   0  -6  11   16.20    2.60
   0  -6  11   11.40    2.00
  -1   6 -11   -0.20    1.10
   1  -6  11   -1.20    0.90
  -2   6 -11    3.20    1.60
   2  -6  11    2.50    1.50
   6   5 -11    1.10    1.60
  -6  -5  11    0.00    0.90
   5   5 -11   73.89    6.70
  -5  -5  11   80.09    6.00
   4   5 -11  166.38   11.80
  -4  -5  11  170.88   11.00
   3   5 -11    5.40    1.90
  -3  -5  11    4.30    1.40
   2   5 -11    0.90    1.20
  -2  -5  11   -0.30    0.70
   1   5 -11   39.00    4.70
  -1  -5  11   31.30    3.50
  -1  -5  11   35.10    3.90
   0   5 -11   33.40    4.40
   0  -5  11   34.20    3.90
  -1   5 -11   15.50    3.00
   1  -5  11   17.40    2.90
  -2   5 -11   69.39    6.00
   2  -5  11   62.89    5.70
  -3   5 -11    8.80    2.50
   7   4 -11   -1.60    1.10
  -7  -4  11    0.80    1.70
   6   4 -11    0.30    1.20
  -6  -4  11   -1.00    0.70
   5   4 -11   15.30    3.00
  -5  -4  11   18.70    2.60
   4   4 -11  107.29    8.20
  -4  -4  11  106.99    7.40
   3   4 -11   37.20    4.50
  -3  -4  11   34.10    3.30
   2   4 -11    7.20    2.00
  -2  -4  11    5.70    1.50
  -2  -4  11    6.40    1.50
   1   4 -11    1.90    1.30
  -1  -4  11    2.70    1.20
  -1  -4  11    1.80    1.00
   0   4 -11   22.10    3.40
   0  -4  11   20.90    3.00
  -1   4 -11   58.39    5.30
   1  -4  11   54.69    5.00
  -2   4 -11   10.40    2.40
   2  -4  11    8.30    2.20
  -3   4 -11   -0.40    1.30
   8   3 -11    5.60    2.80
   7   3 -11   15.00    3.10
  -7  -3  11   23.60    3.00
  -7  -3  11   23.50    4.10
   6   3 -11   -0.30    1.10
  -6  -3  11   -0.10    0.90
  -6  -3  11    0.60    1.40
   5   3 -11   69.79    5.90
  -5  -3  11   64.49    5.20
   4   3 -11   11.70    2.50
  -4  -3  11   16.20    2.40
   3   3 -11    5.40    1.70
  -3  -3  11    1.60    1.00
   2   3 -11   -0.10    1.00
  -2  -3  11    0.50    0.80
  -2  -3  11    0.60    0.90
   1   3 -11   46.10    4.40
  -1  -3  11   47.40    3.80
  -1  -3  11   44.00    4.10
   0   3 -11    1.70    1.20
   0  -3  11   -0.10    0.90
  -1   3 -11    2.70    1.30
   1  -3  11    5.20    1.70
  -2   3 -11    5.20    1.80
   2  -3  11    1.50    1.20
  -3   3 -11    1.60    1.60
  -7  -2  11   20.30    2.90
  -6  -2  11    0.80    1.00
  -5  -2  11    8.20    1.80
  -4  -2  11   14.00    2.20
  -3  -2  11   66.79    5.00
  -2  -2  11   80.99    6.10
  -2  -2  11   85.09    5.80
  -1  -2  11   64.19    5.20
   0  -2  11    1.60    1.10
   1  -2  11    1.70    1.20
   2  -2  11    0.80    1.20
  -7  -1  11    0.30    1.00
  -6  -1  11   35.70    3.40
  -5  -1  11   11.00    2.00
  -4  -1  11    0.20    0.60
  -3  -1  11   25.30    2.90
  -2  -1  11   20.50    2.80
  -2  -1  11   20.20    2.40
  -1  -1  11    0.50    0.90
   0  -1  11   13.00    2.50
   1  -1  11    4.20    1.60
   2  -1  11   -0.80    1.00
  -7   0  11   10.50    2.00
  -6   0  11   47.00    4.10
  -5   0  11   14.70    2.20
  -4   0  11   51.49    4.10
  -3   0  11   42.60    3.60
  -3   0  11   41.90    3.70
  -2   0  11    0.20    0.80
  -1   0  11    2.10    1.20
   0   0  11    0.30    1.00
   1   0  11   -0.70    1.00
  -7   1  11   20.60    3.30
  -6   1  11   17.80    2.60
  -5   1  11    3.90    1.30
  -4   1  11  107.99    7.30
  -3   1  11   19.30    2.70
  -3   1  11   23.20    2.60
  -2   1  11    8.60    2.10
  -1   1  11    1.00    1.10
   0   1  11   14.00    2.60
   1   1  11   11.10    2.60
   7  -2 -11    1.20    1.00
   6  -2 -11  133.99    8.60
  -6   2  11  128.99    8.90
   5  -2 -11    0.60    0.80
  -5   2  11    0.30    0.80
   4  -2 -11    6.80    1.30
  -4   2  11    7.60    1.60
   3  -2 -11    0.80    0.70
  -3   2  11    0.40    0.90
   2  -2 -11    0.60    0.70
  -2   2  11    1.40    1.20
   1  -2 -11   10.50    1.90
  -1   2  11   12.50    2.60
   0   2  11    1.50    1.40
   6  -3 -11    4.90    1.40
   5  -3 -11    2.20    1.00
  -5   3  11    4.40    1.30
   4  -3 -11   70.19    5.10
  -4   3  11   70.39    5.30
   3  -3 -11   -0.80    0.60
  -3   3  11   -0.10    0.90
   2  -3 -11   61.29    4.40
  -2   3  11   54.99    5.30
   1  -3 -11    7.80    1.50
  -1   3  11    5.10    1.90
   0  -3 -11    8.40    1.60
  -5   4  11   34.00    4.30
   4  -4 -11    0.20    0.80
   3  -4 -11   21.50    2.70
  -3   4  11   24.10    3.60
  -1  -8  12  207.78   13.50
   0  -8  12   18.40    3.10
   0  -8  12   14.20    2.70
   3   7 -12    2.50    1.90
  -3  -7  12    2.00    1.30
   2   7 -12    1.00    1.50
  -2  -7  12    2.20    1.30
   1   7 -12  284.17   19.10
  -1  -7  12  301.57   18.00
   0   7 -12   29.00    4.40
   0  -7  12   25.80    3.60
   5   6 -12    0.00    1.50
   4   6 -12   36.20    5.10
  -4  -6  12   37.10    4.20
   3   6 -12    0.20    1.40
  -3  -6  12    0.20    1.10
   2   6 -12   90.99    7.60
  -2  -6  12   86.49    6.60
   1   6 -12  226.48   15.50
  -1  -6  12  226.58   14.60
  -1  -6  12  240.78   14.50
   0   6 -12    0.80    1.50
   0  -6  12    0.50    1.10
  -1   6 -12   40.60    5.40
   1  -6  12   50.39    4.80
   6   5 -12   31.50    4.80
   5   5 -12   15.30    3.20
  -5  -5  12   14.20    2.50
   4   5 -12   51.99    5.90
  -4  -5  12   45.60    4.30
   3   5 -12   12.50    2.80
  -3  -5  12    9.80    2.10
   2   5 -12   24.60    3.90
  -2  -5  12   26.30    3.30
   1   5 -12   35.10    4.60
  -1  -5  12   28.80    3.70
  -1  -5  12   33.50    3.60
   0   5 -12    7.90    2.20
   0  -5  12    4.20    1.60
  -1   5 -12    5.50    2.10
   1  -5  12    4.20    1.60
  -2   5 -12    7.60    2.60
   6   4 -12    4.70    2.10
   5   4 -12   84.99    7.20
  -5  -4  12   84.29    6.40
   4   4 -12   49.90    4.90
  -4  -4  12   43.70    4.10
   3   4 -12   23.70    3.80
  -3  -4  12   22.90    3.10
   2   4 -12   99.59    7.90
  -2  -4  12  103.79    7.10
   1   4 -12   70.59    6.10
  -1  -4  12   67.09    5.60
   0   4 -12  153.28   10.70
   0  -4  12  143.59   10.20
  -1   4 -12   27.50    4.20
   1  -4  12   28.50    3.90
  -2   4 -12    1.50    1.40
  -6  -3  12    0.50    1.10
  -5  -3  12   -0.10    0.90
  -4  -3  12   68.89    5.40
  -3  -3  12   28.40    3.30
  -2  -3  12   -0.10    1.10
  -2  -3  12    2.50    1.20
  -1  -3  12   10.90    2.20
   0  -3  12   84.49    6.70
  -6  -2  12   -0.30    0.80
  -5  -2  12   11.60    2.20
  -4  -2  12    2.10    1.20
  -3  -2  12   11.00    1.90
  -2  -2  12   32.40    3.80
  -1  -2  12   47.70    4.50
   0  -2  12  220.58   14.40
   1  -2  12    4.50    1.90
  -6  -1  12   -0.20    1.00
  -5  -1  12   13.60    2.30
  -4  -1  12    8.80    1.80
  -3  -1  12    3.80    1.30
  -2  -1  12   25.10    3.30
  -1  -1  12    1.70    1.30
   0  -1  12   29.60    4.00
  -5   0  12    0.10    1.00
  -4   0  12    1.70    1.10
  -3   0  12   36.20    4.10
  -2   0  12    0.70    1.20
  -1   0  12   28.70    3.90
   0   0  12   49.50    5.50
  -5   1  12   15.60    2.50
  -4   1  12   30.90    3.40
  -2   1  12    3.90    1.60
  -1   1  12    8.30    2.30
  -5   2  12    8.50    1.90
  -4   2  12    0.10    0.90
  -3   2  12    1.70    2.10
  -2   2  12    0.10    1.10
   2   6 -13   10.20    3.00
  -2  -6  13    9.80    2.20
   4   5 -13   10.80    2.80
   3   5 -13   10.10    2.70
  -3  -5  13    5.20    1.70
   2   5 -13  516.85   31.50
  -2  -5  13  523.05   30.20
   1   5 -13   32.40    4.60
  -1  -5  13   28.70    4.50
   0   5 -13   12.70    3.00
  -4  -4  13   11.20    2.30
  -3  -4  13    0.40    1.00
  -1  -4  13  138.29    9.80
  -4  -3  13    0.60    1.10
  -3  -3  13   46.70    4.20
  -1  -3  13   32.20    4.10
  -4  -2  13   28.80    3.40
  -3  -2  13    1.20    1.00
  -1  -2  13    0.80    1.50
  -4  -1  13    0.60    1.00
  -2  -1  13    0.40    1.30
  -4   0  13    1.20    1.10
  -2   0  13    1.00    1.30
   0   0   0    0.00    0.00

_computing_structure_solution     'SHELXT 2014/5 (Sheldrick, 2014)'
;
_shelx_hkl_checksum              95633
loop_
_space_group_symop_operation_xyz
'x, y, z'
'-x, -y, -z'
loop_
_atom_site_label
_atom_site_type_symbol
_atom_site_fract_x
_atom_site_fract_y
_atom_site_fract_z
_atom_site_U_iso_or_equiv
_atom_site_adp_type
_atom_site_occupancy
_atom_site_site_symmetry_order
_atom_site_calc_flag
_atom_site_refinement_flags_posn
_atom_site_refinement_flags_adp
O1 O 0.79811(9) 0.86713(8) 0.54272(7) 0.01546(15) Uani 1 1 d . .
C1 C 0.46106(12) 0.73510(10) 0.43728(9) 0.01157(17) Uani 1 1 d . .
O2 O 0.66609(10) 0.73616(8) 0.68580(7) 0.01643(16) Uani 1 1 d . .
C2 C 0.29909(13) 0.64192(11) 0.44920(10) 0.01301(18) Uani 1 1 d . .
C3 C 0.10099(13) 0.58892(12) 0.32699(11) 0.01655(19) Uani 1 1 d . .
H3A H -0.0006 0.6162 0.3774 0.020 Uiso 1 1 calc R U
H3B H 0.0700 0.4668 0.2788 0.020 Uiso 1 1 calc R U
H3 H 0.425(3) 0.626(2) 0.636(2) 0.048(5) Uiso 1 1 d . .
C10 C 0.45359(12) 0.79256(10) 0.29537(10) 0.01108(17) Uani 1 1 d . .
H10 H 0.5128 0.9147 0.3334 0.013 Uiso 1 1 calc R U
C11 C 0.64599(13) 0.77686(10) 0.56557(10) 0.01214(17) Uani 1 1 d . .
C4 C 0.08967(13) 0.66978(11) 0.20119(11) 0.01485(18) Uani 1 1 d . .
H4 H -0.0359 0.6528 0.1261 0.018 Uiso 1 1 calc R U
C9 C 0.57236(13) 0.70677(11) 0.19417(10) 0.01285(17) Uani 1 1 d . .
H9A H 0.7111 0.7244 0.2600 0.015 Uiso 1 1 calc R U
H9B H 0.5145 0.5857 0.1527 0.015 Uiso 1 1 calc R U
C5 C 0.24519(13) 0.76417(11) 0.18816(10) 0.01236(17) Uani 1 1 d . .
C8 C 0.56895(13) 0.77634(11) 0.05810(10) 0.01466(18) Uani 1 1 d . .
H8A H 0.6372 0.8954 0.1000 0.018 Uiso 1 1 calc R U
H8B H 0.6421 0.7171 -0.0065 0.018 Uiso 1 1 calc R U
C6 C 0.23215(13) 0.83376(11) 0.05359(10) 0.01508(18) Uani 1 1 d . .
H6A H 0.2805 0.9561 0.0943 0.018 Uiso 1 1 calc R U
H6B H 0.0924 0.8082 -0.0129 0.018 Uiso 1 1 calc R U
C7 C 0.35760(13) 0.75790(11) -0.04451(10) 0.01488(18) Uani 1 1 d . .
H7A H 0.2958 0.6386 -0.0991 0.018 Uiso 1 1 calc R U
H7B H 0.3610 0.8139 -0.1249 0.018 Uiso 1 1 calc R U
C12 C 0.98787(13) 0.90382(12) 0.66217(11) 0.01768(19) Uani 1 1 d . .
H12A H 1.0265 0.7998 0.6682 0.027 Uiso 1 1 calc R U
H12B H 0.9778 0.9648 0.7635 0.027 Uiso 1 1 calc R U
H12C H 1.0878 0.9718 0.6357 0.027 Uiso 1 1 calc R U
O3 O 0.29892(10) 0.58597(9) 0.57176(8) 0.01740(16) Uani 1 1 d . .
loop_
_atom_site_aniso_label
_atom_site_aniso_U_11
_atom_site_aniso_U_22
_atom_site_aniso_U_33
_atom_site_aniso_U_23
_atom_site_aniso_U_13
_atom_site_aniso_U_12
O1 0.0115(3) 0.0189(3) 0.0127(3) 0.0067(2) -0.0010(2) -0.0011(2)
C1 0.0112(4) 0.0135(4) 0.0096(4) 0.0035(3) 0.0024(3) 0.0030(3)
O2 0.0174(3) 0.0210(3) 0.0104(3) 0.0060(2) 0.0030(2) 0.0033(2)
C2 0.0136(4) 0.0148(4) 0.0118(4) 0.0046(3) 0.0048(3) 0.0043(3)
C3 0.0106(4) 0.0217(4) 0.0174(4) 0.0083(3) 0.0035(3) 0.0016(3)
C10 0.0105(4) 0.0119(4) 0.0100(4) 0.0032(3) 0.0022(3) 0.0021(3)
C11 0.0125(4) 0.0124(4) 0.0105(4) 0.0025(3) 0.0029(3) 0.0028(3)
C4 0.0109(4) 0.0195(4) 0.0137(4) 0.0051(3) 0.0026(3) 0.0044(3)
C9 0.0114(4) 0.0161(4) 0.0118(4) 0.0050(3) 0.0035(3) 0.0044(3)
C5 0.0127(4) 0.0143(4) 0.0104(4) 0.0036(3) 0.0030(3) 0.0058(3)
C8 0.0131(4) 0.0194(4) 0.0117(4) 0.0053(3) 0.0041(3) 0.0031(3)
C6 0.0146(4) 0.0190(4) 0.0127(4) 0.0069(3) 0.0028(3) 0.0064(3)
C7 0.0152(4) 0.0185(4) 0.0102(4) 0.0044(3) 0.0027(3) 0.0039(3)
C12 0.0115(4) 0.0218(4) 0.0148(4) 0.0059(3) -0.0021(3) -0.0002(3)
O3 0.0161(3) 0.0242(3) 0.0141(3) 0.0097(3) 0.0058(3) 0.0024(3)
loop_
_atom_type_symbol
_atom_type_description
_atom_type_scat_dispersion_real
_atom_type_scat_dispersion_imag
_atom_type_scat_source
C C 0.0033 0.0016 'International Tables Vol C Tables 4.2.6.8 and 6.1.1.4'
H H 0.0000 0.0000 'International Tables Vol C Tables 4.2.6.8 and 6.1.1.4'
O O 0.0106 0.0060 'International Tables Vol C Tables 4.2.6.8 and 6.1.1.4'
loop_
_geom_angle_atom_site_label_1
_geom_angle_atom_site_label_2
_geom_angle_atom_site_label_3
_geom_angle
C11 O1 C12 115.90(7)
C2 C1 C11 117.79(8)
C2 C1 C10 121.86(8)
C11 C1 C10 120.35(7)
O3 C2 C1 124.08(8)
O3 C2 C3 112.20(8)
C1 C2 C3 123.72(8)
C2 C3 C4 113.08(8)
C2 C3 H3A 109.0
C4 C3 H3A 109.0
C2 C3 H3B 109.0
C4 C3 H3B 109.0
H3A C3 H3B 107.8
C5 C10 C1 112.99(7)
C5 C10 C9 106.93(7)
C1 C10 C9 113.21(7)
C5 C10 H10 107.8
C1 C10 H10 107.8
C9 C10 H10 107.8
O2 C11 O1 121.47(8)
O2 C11 C1 124.93(8)
O1 C11 C1 113.59(8)
C5 C4 C3 123.93(8)
C5 C4 H4 118.0
C3 C4 H4 118.0
C8 C9 C10 110.87(7)
C8 C9 H9A 109.5
C10 C9 H9A 109.5
C8 C9 H9B 109.5
C10 C9 H9B 109.5
H9A C9 H9B 108.1
C4 C5 C6 122.74(8)
C4 C5 C10 122.77(8)
C6 C5 C10 114.07(7)
C7 C8 C9 111.78(7)
C7 C8 H8A 109.3
C9 C8 H8A 109.3
C7 C8 H8B 109.3
C9 C8 H8B 109.3
H8A C8 H8B 107.9
C5 C6 C7 110.00(7)
C5 C6 H6A 109.7
C7 C6 H6A 109.7
C5 C6 H6B 109.7
C7 C6 H6B 109.7
H6A C6 H6B 108.2
C8 C7 C6 111.21(7)
C8 C7 H7A 109.4
C6 C7 H7A 109.4
C8 C7 H7B 109.4
C6 C7 H7B 109.4
H7A C7 H7B 108.0
O1 C12 H12A 109.5
O1 C12 H12B 109.5
H12A C12 H12B 109.5
O1 C12 H12C 109.5
H12A C12 H12C 109.5
H12B C12 H12C 109.5
C2 O3 H3 103.2(11)
loop_
_geom_bond_atom_site_label_1
_geom_bond_atom_site_label_2
_geom_bond_distance
O1 C11 1.3413(11)
O1 C12 1.4471(11)
C1 C2 1.3593(13)
C1 C11 1.4592(12)
C1 C10 1.5146(12)
O2 C11 1.2347(11)
C2 O3 1.3460(11)
C2 C3 1.4911(12)
C3 C4 1.4964(13)
C3 H3A 0.9900
C3 H3B 0.9900
C10 C5 1.5107(12)
C10 C9 1.5489(12)
C10 H10 1.0000
C4 C5 1.3328(13)
C4 H4 0.9500
C9 C8 1.5280(13)
C9 H9A 0.9900
C9 H9B 0.9900
C5 C6 1.5067(13)
C8 C7 1.5278(13)
C8 H8A 0.9900
C8 H8B 0.9900
C6 C7 1.5367(13)
C6 H6A 0.9900
C6 H6B 0.9900
C7 H7A 0.9900
C7 H7B 0.9900
C12 H12A 0.9800
C12 H12B 0.9800
C12 H12C 0.9800
O3 H3 0.905(18)
loop_
_geom_torsion_atom_site_label_1
_geom_torsion_atom_site_label_2
_geom_torsion_atom_site_label_3
_geom_torsion_atom_site_label_4
_geom_torsion
C11 C1 C2 O3 0.00(13)
C10 C1 C2 O3 179.04(7)
C11 C1 C2 C3 -179.58(8)
C10 C1 C2 C3 -0.54(13)
O3 C2 C3 C4 171.57(7)
C1 C2 C3 C4 -8.81(13)
C2 C1 C10 C5 10.91(11)
C11 C1 C10 C5 -170.08(7)
C2 C1 C10 C9 -110.84(9)
C11 C1 C10 C9 68.18(10)
C12 O1 C11 O2 3.87(12)
C12 O1 C11 C1 -176.53(7)
C2 C1 C11 O2 -1.23(13)
C10 C1 C11 O2 179.72(8)
C2 C1 C11 O1 179.19(7)
C10 C1 C11 O1 0.13(11)
C2 C3 C4 C5 7.47(13)
C5 C10 C9 C8 58.03(9)
C1 C10 C9 C8 -176.88(7)
C3 C4 C5 C6 175.41(8)
C3 C4 C5 C10 3.30(14)
C1 C10 C5 C4 -12.36(12)
C9 C10 C5 C4 112.86(9)
C1 C10 C5 C6 174.90(7)
C9 C10 C5 C6 -59.88(9)
C10 C9 C8 C7 -57.15(9)
C4 C5 C6 C7 -114.86(10)
C10 C5 C6 C7 57.88(9)
C9 C8 C7 C6 53.58(10)
C5 C6 C7 C8 -52.41(10)
