#------------------------------------------------------------------------------
#$Date: 2019-11-04 08:56:20 +0200 (Mon, 04 Nov 2019) $
#$Revision: 222288 $
#$URL: file:///home/coder/svn-repositories/cod/cif/4/03/37/4033713.cif $
#------------------------------------------------------------------------------
#
# This file is available in the Crystallography Open Database (COD),
# http://www.crystallography.net/
#
# All data on this site have been placed in the public domain by the
# contributors.
#
data_4033713
loop_
_publ_author_name
'Li, Hongjie'
'Jia, Peijing'
'Qian, Naixin'
'Li, Shasha'
'Jiao, Peng'
_publ_section_title
;
 Simultaneous Construction of Planar and Central Chiralities as Well as
 Unprecedented Axial Chirality on and around a Ferrocene Backbone.
;
_journal_issue                   5
_journal_name_full               'The Journal of organic chemistry'
_journal_page_first              2817
_journal_page_last               2828
_journal_paper_doi               10.1021/acs.joc.8b03221
_journal_volume                  84
_journal_year                    2019
_chemical_formula_moiety         'C16 H18 Fe O3'
_chemical_formula_sum            'C16 H18 Fe O3'
_chemical_formula_weight         314.15
_space_group_crystal_system      triclinic
_space_group_IT_number           2
_space_group_name_Hall           '-P 1'
_space_group_name_H-M_alt        'P -1'
_atom_sites_solution_hydrogens   geom
_audit_creation_date             2018-04-28
_audit_creation_method
;
Olex2 1.2
(compiled 2018.04.26 svn.r3504 for OlexSys, GUI svn.r5492)
;
_cell_angle_alpha                87.783(6)
_cell_angle_beta                 86.443(6)
_cell_angle_gamma                86.723(6)
_cell_formula_units_Z            2
_cell_length_a                   7.4230(5)
_cell_length_b                   7.6677(6)
_cell_length_c                   12.3124(8)
_cell_measurement_reflns_used    5138
_cell_measurement_temperature    100.1(5)
_cell_measurement_theta_max      29.4260
_cell_measurement_theta_min      3.7010
_cell_volume                     697.86(9)
_computing_cell_refinement       'CrysAlisPro 1.171.39.32a (Rigaku OD, 2017)'
_computing_data_collection       'CrysAlisPro 1.171.39.32a (Rigaku OD, 2017)'
_computing_data_reduction        'CrysAlisPro 1.171.39.32a (Rigaku OD, 2017)'
_computing_molecular_graphics    'Olex2 (Dolomanov et al., 2009)'
_computing_publication_material  'Olex2 (Dolomanov et al., 2009)'
_computing_structure_refinement  'ShelXL (Sheldrick, 2015)'
_diffrn_ambient_environment      N~2~
_diffrn_ambient_temperature      100.1(5)
_diffrn_detector                 'CCD plate'
_diffrn_detector_area_resol_mean 5.3127
_diffrn_detector_type            AtlasS2
_diffrn_measured_fraction_theta_full 0.997
_diffrn_measured_fraction_theta_max 0.841
_diffrn_measurement_details
;
List of Runs (angles in degrees, time in seconds):

  # Type    Start    End  Width  t~exp~   \w     \q     \k     \f   Frames
--------------------------------------------------------------------------
  1  \w    -42.00   3.00   1.00   21.03    --  -11.20 -37.00   0.00   45
  2  \w    -13.00  18.00   1.00   21.03    --  -11.20-100.00 153.00   31
  3  \w    -29.00  90.00   1.00   21.03    --   12.45  19.00-150.00  119
  4  \w    -12.00  87.00   1.00   21.03    --   12.45  37.00 -60.00   99
  5  \w      2.00  53.00   1.00   21.03    --   12.45 -99.00   0.00   51
  6  \w    -15.00  79.00   1.00   21.03    --   12.45  57.00  30.00   94
  7  \w    -29.00  52.00   1.00   21.03    --   14.00 -91.00-140.78   81
  8  \w    -17.00  52.00   1.00   21.03    --   14.00 -91.00 102.72   69
;
_diffrn_measurement_device       'four-circle diffractometer'
_diffrn_measurement_device_type  'SuperNova, Dual, Cu at home/near, AtlasS2'
_diffrn_measurement_method       '\w scans'
_diffrn_orient_matrix_type
'CrysAlisPro convention (1999,Acta A55,543-557)'
_diffrn_orient_matrix_UB_11      -0.0355397000
_diffrn_orient_matrix_UB_12      -0.0227017000
_diffrn_orient_matrix_UB_13      -0.0493997000
_diffrn_orient_matrix_UB_21      0.0222091000
_diffrn_orient_matrix_UB_22      0.0822823000
_diffrn_orient_matrix_UB_23      -0.0238700000
_diffrn_orient_matrix_UB_31      0.0862425000
_diffrn_orient_matrix_UB_32      -0.0362050000
_diffrn_orient_matrix_UB_33      -0.0180642000
_diffrn_radiation_monochromator  mirror
_diffrn_radiation_probe          x-ray
_diffrn_radiation_type           MoK\a
_diffrn_radiation_wavelength     0.71073
_diffrn_reflns_av_R_equivalents  0.0708
_diffrn_reflns_av_unetI/netI     0.0718
_diffrn_reflns_Laue_measured_fraction_full 0.997
_diffrn_reflns_Laue_measured_fraction_max 0.841
_diffrn_reflns_limit_h_max       10
_diffrn_reflns_limit_h_min       -10
_diffrn_reflns_limit_k_max       10
_diffrn_reflns_limit_k_min       -10
_diffrn_reflns_limit_l_max       16
_diffrn_reflns_limit_l_min       -16
_diffrn_reflns_number            10699
_diffrn_reflns_point_group_measured_fraction_full 0.997
_diffrn_reflns_point_group_measured_fraction_max 0.841
_diffrn_reflns_theta_full        26.000
_diffrn_reflns_theta_max         30.357
_diffrn_reflns_theta_min         3.725
_diffrn_source                   'micro-focus sealed X-ray tube'
_diffrn_source_type              'SuperNova (Mo) X-ray Source'
_exptl_absorpt_coefficient_mu    1.084
_exptl_absorpt_correction_T_max  1.00000
_exptl_absorpt_correction_T_min  0.92404
_exptl_absorpt_correction_type   multi-scan
_exptl_absorpt_process_details
;
CrysAlisPro 1.171.39.32a (Rigaku Oxford Diffraction, 2017)
Empirical absorption correction using spherical harmonics,
 implemented in SCALE3 ABSPACK scaling algorithm.
;
_exptl_crystal_colour            'clear light yellow'
_exptl_crystal_density_diffrn    1.495
_exptl_crystal_description       plate
_exptl_crystal_F_000             328
_exptl_crystal_size_max          0.2
_exptl_crystal_size_mid          0.2
_exptl_crystal_size_min          0.1
_refine_diff_density_max         0.527
_refine_diff_density_min         -0.499
_refine_diff_density_rms         0.092
_refine_ls_extinction_method     none
_refine_ls_goodness_of_fit_ref   1.085
_refine_ls_hydrogen_treatment    constr
_refine_ls_matrix_type           full
_refine_ls_number_parameters     182
_refine_ls_number_reflns         3534
_refine_ls_number_restraints     0
_refine_ls_restrained_S_all      1.085
_refine_ls_R_factor_all          0.0569
_refine_ls_R_factor_gt           0.0476
_refine_ls_shift/su_max          0.000
_refine_ls_shift/su_mean         0.000
_refine_ls_structure_factor_coef Fsqd
_refine_ls_weighting_details
'w=1/[\s^2^(Fo^2^)+(0.0429P)^2^+0.2328P] where P=(Fo^2^+2Fc^2^)/3'
_refine_ls_weighting_scheme      calc
_refine_ls_wR_factor_gt          0.1073
_refine_ls_wR_factor_ref         0.1142
_reflns_Friedel_coverage         0.000
_reflns_number_gt                3061
_reflns_number_total             3534
_reflns_threshold_expression     'I > 2\s(I)'
_cod_data_source_file            jo8b03221_si_002.cif
_cod_data_source_block           20180428a
_cod_database_code               4033713
_shelx_shelxl_version_number     2014/7
_chemical_oxdiff_formula         C1H1O1Fe1
_shelx_space_group_comment
;
The symmetry employed for this shelxl refinement is uniquely defined
by the following loop, which should always be used as a source of
symmetry information in preference to the above space-group names.
They are only intended as comments.
;
_reflns_odcompleteness_completeness 99.72
_reflns_odcompleteness_iscentric 1
_reflns_odcompleteness_theta     26.32
_olex2_refinement_description
;
1. Fixed Uiso
 At 1.2 times of:
  All C(H) groups, All C(H,H) groups
 At 1.5 times of:
  All O(H) groups
2.a Secondary CH2 refined with riding coordinates:
 C7(H7A,H7B), C10(H10A,H10B), C11(H11A,H11B), C8(H8A,H8B)
2.b Aromatic/amide H refined with riding coordinates:
 C3(H3), C6(H6), C17(H17), C20(H20), C18(H18), C4(H4), C19(H19), C16(H16),
 C5(H5)
2.c Idealised tetrahedral OH refined as rotating group:
 O13(H13)
;
_shelx_res_file
;
    20180428a.res created by SHELXL-2014/7

TITL 20180428a_a.res in P-1
REM Old TITL 20180428a in P1 #1
REM SHELXT solution in P-1
REM R1 0.085, Rweak 0.013, Alpha 0.052, Orientation as input
REM Formula found by SHELXT: C16 O3 Fe
CELL 0.71073 7.423 7.6677 12.3124 87.783 86.443 86.723
ZERR 2 0.0005 0.0006 0.0008 0.006 0.006 0.006
LATT 1
SFAC C H Fe O
UNIT 32 36 2 6

L.S. 4
PLAN  5
BOND $H
LIST 6
MORE -1
CONF
fmap 2
acta 52
REM <olex2.extras>
REM <HklSrc "%.\\20180428a.hkl">
REM </olex2.extras>

WGHT    0.042900    0.232800
FVAR       0.97513
FE1   3    0.696770    0.531714    0.782584    11.00000    0.01591    0.01611 =
         0.01546   -0.00240   -0.00152   -0.00050
O14   4    0.979158    0.908371    0.119273    11.00000    0.02968    0.02349 =
         0.02131    0.00358    0.00689    0.00773
O13   4    0.791592    1.118388    0.052019    11.00000    0.03058    0.03425 =
         0.01390    0.00624    0.00338    0.01369
AFIX 147
H13   2    0.861515    1.110246   -0.002004    11.00000   -1.50000
AFIX   0
O15   4    0.708458    1.100066    0.457338    11.00000    0.07278    0.02272 =
         0.01989   -0.00018    0.00427    0.01396
C2    1    0.819216    0.753254    0.727299    11.00000    0.01688    0.02164 =
         0.01595   -0.00032   -0.00076   -0.00386
C3    1    0.760219    0.764568    0.839494    11.00000    0.02600    0.01485 =
         0.01835   -0.00593   -0.00220   -0.00513
AFIX  43
H3    2    0.679188    0.849831    0.868700    11.00000   -1.20000
AFIX   0
C6    1    0.943130    0.604438    0.719129    11.00000    0.01574    0.02542 =
         0.02280   -0.00072    0.00153    0.00054
AFIX  43
H6    2    1.003989    0.566046    0.655412    11.00000   -1.20000
AFIX   0
C17   1    0.425253    0.507972    0.811934    11.00000    0.01769    0.01981 =
         0.02872   -0.00237    0.00142   -0.00226
AFIX  43
H17   2    0.344368    0.586011    0.848259    11.00000   -1.20000
AFIX   0
C20   1    0.630105    0.278537    0.777706    11.00000    0.02416    0.01552 =
         0.03066   -0.00301   -0.00424   -0.00149
AFIX  43
H20   2    0.707801    0.180326    0.787075    11.00000   -1.20000
AFIX   0
C18   1    0.471231    0.511834    0.698384    11.00000    0.01973    0.02010 =
         0.02431    0.00093   -0.00863   -0.00558
AFIX  43
H18   2    0.427062    0.593058    0.647172    11.00000   -1.20000
AFIX   0
C4    1    0.845463    0.624390    0.899196    11.00000    0.02670    0.02859 =
         0.01533    0.00132   -0.00801   -0.00635
AFIX  43
H4    2    0.830238    0.601926    0.973873    11.00000   -1.20000
AFIX   0
C12   1    0.850123    1.012757    0.130303    11.00000    0.01921    0.01817 =
         0.01773   -0.00079    0.00095    0.00052
C19   1    0.597150    0.368858    0.677210    11.00000    0.02262    0.02545 =
         0.02416   -0.00924   -0.00406   -0.00501
AFIX  43
H19   2    0.649142    0.339368    0.609246    11.00000   -1.20000
AFIX   0
C7    1    0.769314    0.882895    0.638180    11.00000    0.02416    0.01703 =
         0.01611   -0.00246    0.00131   -0.00238
AFIX  23
H7A   2    0.845268    0.981425    0.640080    11.00000   -1.20000
H7B   2    0.645196    0.926112    0.653010    11.00000   -1.20000
AFIX   0
C16   1    0.523894    0.364479    0.860728    11.00000    0.02405    0.02365 =
         0.02361    0.00505   -0.00099   -0.00616
AFIX  43
H16   2    0.519298    0.332717    0.934473    11.00000   -1.20000
AFIX   0
C9    1    0.754098    0.949787    0.437006    11.00000    0.02146    0.02290 =
         0.01777   -0.00099    0.00191   -0.00220
C10   1    0.785149    0.892614    0.320987    11.00000    0.02299    0.01968 =
         0.01515   -0.00131   -0.00016   -0.00452
AFIX  23
H10A  2    0.707847    0.797805    0.310015    11.00000   -1.20000
H10B  2    0.909564    0.848145    0.309417    11.00000   -1.20000
AFIX   0
C5    1    0.958118    0.524609    0.824539    11.00000    0.01854    0.02712 =
         0.02524    0.00275   -0.00685   -0.00169
AFIX  43
H5    2    1.029182    0.424649    0.841595    11.00000   -1.20000
AFIX   0
C11   1    0.747578    1.038406    0.237521    11.00000    0.02314    0.02712 =
         0.01625   -0.00012    0.00164    0.00423
AFIX  23
H11A  2    0.619205    1.046884    0.226098    11.00000   -1.20000
H11B  2    0.778663    1.148120    0.266198    11.00000   -1.20000
AFIX   0
C8    1    0.787319    0.812522    0.524442    11.00000    0.03146    0.02157 =
         0.01893   -0.00077    0.00089    0.00054
AFIX  23
H8A   2    0.908018    0.759064    0.511701    11.00000   -1.20000
H8B   2    0.702091    0.722183    0.519830    11.00000   -1.20000
AFIX   0
HKLF 4

REM  20180428a_a.res in P-1
REM R1 =  0.0476 for    3061 Fo > 4sig(Fo)  and  0.0569 for all    3534 data
REM    182 parameters refined using      0 restraints

END

WGHT      0.0429      0.2328

REM Highest difference peak  0.527,  deepest hole -0.499,  1-sigma level  0.092
Q1    1   0.7895  0.6383  0.7654  11.00000  0.05    0.53
Q2    1   0.6656  0.6386  0.7574  11.00000  0.05    0.50
Q3    1   0.6096  0.4152  0.8003  11.00000  0.05    0.50
Q4    1   0.4531  0.4981  0.7584  11.00000  0.05    0.47
Q5    1   0.7095  0.5275  0.7057  11.00000  0.05    0.47
;
_shelx_res_checksum              92762
_shelx_hkl_file
;
 -10  -3  -2   22.42   10.55
 -10  -2  -4   12.04   10.16
 -10  -2  -3   51.05   17.24
 -10   0  -4  113.17   23.64
 -10   1  -4  105.26   23.31
  -9  -4  -3    0.96    5.64
  -9  -4  -2   32.40   14.62
  -9  -4  -1   56.05   18.67
  -9  -4   0  108.88   26.61
  -9  -4   1   33.24   13.73
  -9  -4   2   12.51    8.24
  -9  -4   3    8.09    7.69
  -9  -4   4   20.23   12.49
  -9  -3  -6   87.67   24.57
  -9  -3  -5   16.74    8.61
  -9  -3  -4   52.51   18.33
  -9  -3  -3   -6.76    6.32
  -9  -3  -2  100.41   23.85
  -9  -3  -1    0.83    4.91
  -9  -3   0    3.46    4.99
  -9  -3   1   26.33   11.52
  -9  -3   2   50.17   17.23
  -9  -3   3  137.62   28.31
  -9  -3   4   17.36    8.27
  -9  -3   4   -0.29    8.54
  -9  -3   5  159.42   37.27
  -9  -2  -7   -4.62    6.64
  -9  -2  -6   43.48   15.36
  -9  -2  -5   18.72   11.65
  -9  -2  -4   89.86   21.58
  -9  -2  -3   -7.57    7.87
  -9  -2  -2   31.17   13.43
  -9  -2  -1   90.71   21.85
  -9  -2   0   69.72   18.50
  -9  -2   1  263.44   36.34
  -9  -2   2    4.41    5.75
  -9  -2   4   54.51   19.05
  -9  -2   5   45.69   19.82
  -9  -2   6   18.27   12.58
  -9  -1  -8  160.65   32.19
  -9  -1  -7   47.60   17.49
  -9  -1  -6  295.58   40.25
  -9  -1  -5   24.91   12.47
  -9  -1  -4   72.28   18.97
  -9  -1  -3   93.37   20.63
  -9  -1  -2   21.67   10.37
  -9  -1  -1   51.16   15.70
  -9  -1   0  114.90   22.42
  -9  -1   3   76.50   21.37
  -9  -1   4   13.94   11.91
  -9  -1   5   26.75   14.36
  -9   0  -8  154.81   31.15
  -9   0  -7   45.66   14.59
  -9   0  -6   74.90   19.49
  -9   0  -5  136.15   25.34
  -9   0  -4   65.35   16.56
  -9   0  -4   43.54   21.80
  -9   0  -3  101.73   20.37
  -9   0  -3   75.44   26.82
  -9   0  -2   20.34   17.39
  -9   0  -1   84.02   29.26
  -9   0   0   17.30   11.14
  -9   0   1  161.07   40.33
  -9   0   2   40.22   21.14
  -9   1  -8   26.56   11.39
  -9   1  -7   14.78    8.64
  -9   1  -6   18.06    8.19
  -9   1  -5  134.74   26.50
  -9   1  -5  123.89   35.55
  -9   1  -4   57.52   26.22
  -9   1  -4   44.36   14.43
  -9   1  -3  304.14   37.08
  -9   1  -3  294.64   55.95
  -9   1  -2   29.58   14.53
  -9   1  -2   25.07    9.38
  -9   1  -1   73.70   15.32
  -9   1  -1   60.76   24.75
  -9   1   0    9.65    9.56
  -9   1   1   98.21   33.40
  -9   1   2   21.78   18.36
  -9   1   3   80.08   27.67
  -9   1   4    8.96    8.45
  -9   1   5    5.82    8.26
  -9   2  -6   31.04   14.37
  -9   2  -5  132.78   25.55
  -9   2  -4   17.77    7.88
  -9   2  -3   59.95   15.55
  -9   2  -2   18.77   10.13
  -9   2  -1  191.19   45.84
  -9   2   0   25.82   16.80
  -9   3  -5   38.30   14.15
  -9   3  -4   19.80   10.90
  -9   3  -3  139.11   27.11
  -9   3  -2   14.14   10.74
  -9   4  -4   -2.86    5.23
  -9   4  -3   64.53   24.01
  -8  -5  -5  149.19   32.12
  -8  -5  -4  224.23   39.47
  -8  -5  -3  376.29   51.87
  -8  -5  -2   46.38   17.55
  -8  -5  -1  466.62   57.01
  -8  -5   0   15.00   11.45
  -8  -5   1   64.72   20.88
  -8  -5   2    0.31    4.00
  -8  -5   3    9.30   11.79
  -8  -5   4   19.78   11.96
  -8  -5   5    7.16    5.39
  -8  -4  -7   75.13   22.98
  -8  -4  -6  153.57   31.94
  -8  -4  -5   83.43   21.89
  -8  -4  -4  114.65   26.91
  -8  -4  -3  347.13   46.76
  -8  -4  -2    2.32    2.39
  -8  -4  -1  197.47   34.02
  -8  -4   0   26.93   12.76
  -8  -4   1  116.99   26.86
  -8  -4   2   13.30    8.78
  -8  -4   3   88.69   23.45
  -8  -4   4   90.08   23.55
  -8  -4   5    4.96    6.27
  -8  -4   5    2.29    4.60
  -8  -4   6   92.62   24.48
  -8  -4   7   10.84    4.81
  -8  -4   8  133.48   31.70
  -8  -3  -8   37.65   15.66
  -8  -3  -7   35.43   14.88
  -8  -3  -6   33.59   14.82
  -8  -3  -5  144.21   29.02
  -8  -3  -4   23.53   10.85
  -8  -3  -3   82.02   22.07
  -8  -3  -2   -1.28    0.03
  -8  -3  -1  162.87   29.20
  -8  -3   0   90.57   22.15
  -8  -3   1  341.63   43.36
  -8  -3   2  400.19   46.28
  -8  -3   3   13.35    9.97
  -8  -3   4  269.67   38.50
  -8  -3   5   29.63   13.28
  -8  -3   5   40.14   15.39
  -8  -3   6   27.48   16.41
  -8  -3   6   22.20   11.05
  -8  -3   7   77.37   24.58
  -8  -3   7  111.56   26.56
  -8  -2  -9   -1.13    4.89
  -8  -2  -8  190.39   33.10
  -8  -2  -7  102.51   24.06
  -8  -2  -6  123.14   25.76
  -8  -2  -5  270.18   37.33
  -8  -2  -4   -2.04    1.60
  -8  -2  -3  579.77   54.09
  -8  -2  -2   77.80   18.70
  -8  -2  -1  626.37   54.94
  -8  -2   0   10.92    5.95
  -8  -2   1  105.32   21.83
  -8  -2   2   95.94   21.08
  -8  -2   3   62.69   16.72
  -8  -2   4  174.70   28.14
  -8  -2   4   52.28   19.44
  -8  -2   5   88.15   19.90
  -8  -2   5   71.19   22.07
  -8  -2   6   84.00   19.75
  -8  -2   6   67.36   22.08
  -8  -2   7  143.22   30.65
  -8  -2   8    4.14    4.72
  -8  -1  -9   85.66   23.00
  -8  -1  -8  139.09   28.09
  -8  -1  -7  212.12   33.54
  -8  -1  -6    1.46    6.30
  -8  -1  -5  399.80   43.35
  -8  -1  -4   22.27   10.23
  -8  -1  -3  304.30   36.17
  -8  -1  -2  137.21   24.29
  -8  -1  -1  207.42   28.55
  -8  -1   0  374.09   38.21
  -8  -1   1  556.38   47.52
  -8  -1   2  347.63   36.49
  -8  -1   3    2.63    2.89
  -8  -1   4  152.81   24.13
  -8  -1   4  123.51   26.71
  -8  -1   5   19.55   10.40
  -8  -1   6   16.35   13.34
  -8  -1   7   25.42   12.73
  -8  -1   8   32.92   17.26
  -8  -1   9   75.39   23.81
  -8   0 -10  166.38   32.60
  -8   0  -9  117.81   26.27
  -8   0  -8   71.91   20.23
  -8   0  -7   38.27   14.25
  -8   0  -6   28.02   12.67
  -8   0  -6   11.50    8.62
  -8   0  -5  252.51   33.05
  -8   0  -5  195.36   42.04
  -8   0  -4  341.58   54.68
  -8   0  -4  361.52   37.94
  -8   0  -3  172.14   39.76
  -8   0  -3  208.87   27.47
  -8   0  -2  271.03   30.75
  -8   0  -2  217.94   45.02
  -8   0  -1  138.88   21.38
  -8   0  -1  105.60   30.32
  -8   0   0  114.53   32.48
  -8   0   0  127.34   20.40
  -8   0   1   37.95   17.66
  -8   0   1   24.64    8.66
  -8   0   2   90.58   15.83
  -8   0   2   83.01   13.65
  -8   0   2   52.97   23.98
  -8   0   3   17.29   12.29
  -8   0   3   24.91   12.90
  -8   0   4   62.57   21.72
  -8   0   4   57.32   16.64
  -8   0   5    3.99   11.99
  -8   0   5    0.34    2.26
  -8   0   6   61.01   18.77
  -8   0   7  153.76   29.57
  -8   0   8    3.46    9.63
  -8   1 -10   78.59   23.05
  -8   1  -9   58.74   25.44
  -8   1  -9   93.28   23.41
  -8   1  -8   19.99   11.02
  -8   1  -8   -0.35    2.82
  -8   1  -8   14.42   11.62
  -8   1  -7   88.43   28.77
  -8   1  -7  101.01   22.48
  -8   1  -7  111.88   24.42
  -8   1  -6  123.87   31.98
  -8   1  -6  110.40   23.04
  -8   1  -6  118.14   22.97
  -8   1  -5    9.66   10.69
  -8   1  -5   41.80   14.33
  -8   1  -5   54.40   15.13
  -8   1  -4   39.73   19.77
  -8   1  -4   33.22   10.45
  -8   1  -4   33.02   12.35
  -8   1  -3  144.02   36.37
  -8   1  -3  150.79   24.18
  -8   1  -3  231.53   27.76
  -8   1  -2  235.80   45.49
  -8   1  -2  193.23   24.00
  -8   1  -2  200.86   27.42
  -8   1  -1  162.40   36.51
  -8   1  -1  238.91   28.28
  -8   1  -1  231.48   25.03
  -8   1   0  436.82   61.78
  -8   1   0  514.12   39.40
  -8   1   1   13.56    4.74
  -8   1   1   41.34   19.75
  -8   1   2  309.60   51.81
  -8   1   2  339.29   35.98
  -8   1   3  139.52   22.29
  -8   1   3  121.95   32.02
  -8   1   4  134.46   34.84
  -8   1   5  265.81   49.70
  -8   1   6   88.46   28.54
  -8   1   7  -12.66   17.12
  -8   1   8   52.51   20.38
  -8   2 -10   49.82   20.06
  -8   2  -9   58.02   24.41
  -8   2  -8    1.31    1.64
  -8   2  -8    2.26    6.02
  -8   2  -8    5.80    5.44
  -8   2  -7   74.42   19.41
  -8   2  -7   71.58   19.85
  -8   2  -7   65.05   25.69
  -8   2  -6   30.06   17.32
  -8   2  -6    6.90    5.94
  -8   2  -6   12.48    6.80
  -8   2  -5  307.17   34.97
  -8   2  -5  289.26   50.58
  -8   2  -5  270.15   35.18
  -8   2  -4   32.15   33.19
  -8   2  -4   15.35    7.72
  -8   2  -4   19.18    8.44
  -8   2  -3  115.63   20.96
  -8   2  -3   84.58   29.53
  -8   2  -2  236.04   45.79
  -8   2  -2  263.96   30.22
  -8   2  -1    5.61    6.27
  -8   2  -1    8.12   11.77
  -8   2   0  375.83   58.25
  -8   2   0  419.77   37.47
  -8   2   1   30.73   10.25
  -8   2   1   14.16    6.86
  -8   2   2  199.04   41.66
  -8   2   3  252.44   48.26
  -8   2   4   38.07   19.68
  -8   2   5  113.50   30.63
  -8   2   6    9.89    4.67
  -8   2   7  297.73   52.91
  -8   2   8   10.22    9.50
  -8   3  -9  107.01   30.20
  -8   3  -8    7.45    4.69
  -8   3  -7  212.25   35.45
  -8   3  -7  154.15   39.46
  -8   3  -6   24.44   11.20
  -8   3  -6   57.08   22.58
  -8   3  -5  161.59   28.81
  -8   3  -5  124.84   34.80
  -8   3  -4  115.70   34.33
  -8   3  -4  173.45   29.03
  -8   3  -3  286.90   52.58
  -8   3  -3  454.94   46.46
  -8   3  -2   76.29   28.74
  -8   3  -2  111.78   21.65
  -8   3  -1  158.86   26.51
  -8   3  -1   81.67   27.33
  -8   3   0  333.40   56.06
  -8   3   0  357.50   44.94
  -8   3   1  101.15   31.26
  -8   3   2  120.16   33.07
  -8   3   3  160.72   39.99
  -8   3   4   19.69   12.09
  -8   3   5  150.32   38.20
  -8   3   6   56.20   22.92
  -8   3   7   44.23   20.20
  -8   3   8   13.04   15.56
  -8   4  -6   55.87   18.88
  -8   4  -5   57.25   26.01
  -8   4  -5   60.78   20.27
  -8   4  -4    7.15    5.09
  -8   4  -4    7.82    7.72
  -8   4  -3   14.52    9.52
  -8   4  -3   -1.23    8.75
  -8   4  -2  229.08   40.74
  -8   4  -2  291.32   55.29
  -8   4  -1   17.17   11.68
  -8   4  -1   12.67    9.93
  -8   4   0  113.13   32.83
  -8   4   0  114.29   24.49
  -8   4   1   67.15   25.96
  -8   4   2  109.13   32.85
  -8   4   3  110.19   35.67
  -8   4   4   60.85   26.12
  -8   4   5  159.54   40.01
  -8   5  -4  140.75   33.81
  -8   5  -3   -5.57    7.02
  -8   5  -2   77.40   23.79
  -8   5  -1   37.09   15.25
  -8   6  -2  236.58   39.38
  -7  -6  -5  584.43   65.38
  -7  -6  -4   18.49   10.99
  -7  -6  -3  760.41   74.07
  -7  -6  -2  478.19   58.23
  -7  -6  -1  208.56   38.00
  -7  -6   0  215.99   38.59
  -7  -6   1    7.64    7.22
  -7  -6   2   34.95   15.26
  -7  -6   3   -4.79    5.61
  -7  -6   4   24.07   14.89
  -7  -5  -7  208.77   37.21
  -7  -5  -6    5.38    8.80
  -7  -5  -5  540.96   59.19
  -7  -5  -4  308.28   44.06
  -7  -5  -3  467.28   54.27
  -7  -5  -2  380.09   48.69
  -7  -5  -1  154.52   30.54
  -7  -5   0  189.49   34.09
  -7  -5   1   12.19    8.07
  -7  -5   2  160.57   31.87
  -7  -5   3  117.39   27.30
  -7  -5   4  151.05   31.84
  -7  -5   5   38.61   16.49
  -7  -5   6   90.14   26.06
  -7  -5   6  105.65   27.81
  -7  -5   7   46.10   17.74
  -7  -4  -9   34.15   14.02
  -7  -4  -8    1.78    2.71
  -7  -4  -7  171.34   32.81
  -7  -4  -6    5.78    5.92
  -7  -4  -5  139.35   27.56
  -7  -4  -4  102.99   24.21
  -7  -4  -3   29.00   11.76
  -7  -4  -2   49.31   16.15
  -7  -4  -1   11.14    9.51
  -7  -4   0  449.21   49.34
  -7  -4   1   30.33   13.58
  -7  -4   2  362.57   45.14
  -7  -4   3   59.79   19.40
  -7  -4   4   33.79   14.14
  -7  -4   5  299.98   42.86
  -7  -4   6    3.57    2.71
  -7  -4   6   35.03   12.86
  -7  -4   7   49.57   18.27
  -7  -4   7   39.17   18.52
  -7  -4   8   54.66   22.52
  -7  -4   8   62.14   20.12
  -7  -4   9   68.98   21.23
  -7  -3 -10   74.67   21.36
  -7  -3  -9  161.82   31.33
  -7  -3  -8    0.38    5.48
  -7  -3  -7  243.02   36.51
  -7  -3  -6  161.37   29.80
  -7  -3  -5  355.61   43.01
  -7  -3  -4  190.71   31.06
  -7  -3  -3   73.62   19.38
  -7  -3  -2  540.89   51.71
  -7  -3  -1   50.66   15.05
  -7  -3   0  165.67   28.06
  -7  -3   1   94.94   21.07
  -7  -3   2  342.87   40.94
  -7  -3   3  461.60   48.29
  -7  -3   4   97.66   22.96
  -7  -3   5  300.53   39.91
  -7  -3   5  129.89   30.15
  -7  -3   6   35.79   14.21
  -7  -3   6   29.23   11.35
  -7  -3   7  119.42   24.72
  -7  -3   7  127.04   30.24
  -7  -3   8    4.09    4.12
  -7  -3   8   12.37   12.20
  -7  -3   9  101.04   24.39
  -7  -3   9   89.76   25.96
  -7  -3  10   52.30   17.92
  -7  -2 -10   17.03   10.35
  -7  -2  -9  410.73   48.61
  -7  -2  -8    0.50    3.33
  -7  -2  -7  576.14   54.72
  -7  -2  -6  113.93   23.45
  -7  -2  -5  176.14   28.27
  -7  -2  -4  612.79   53.57
  -7  -2  -3    4.89    6.45
  -7  -2  -2  277.44   34.56
  -7  -2  -1   32.69   10.59
  -7  -2   0  854.70   61.30
  -7  -2   1   91.46   19.79
  -7  -2   1  109.93   22.21
  -7  -2   2  392.99   36.71
  -7  -2   2  356.12   38.01
  -7  -2   3  577.91   49.86
  -7  -2   4    9.42    7.60
  -7  -2   5  282.84   35.78
  -7  -2   5  283.40   40.86
  -7  -2   6   17.79   10.27
  -7  -2   6   14.87    9.52
  -7  -2   7   61.60   17.81
  -7  -2   7   98.82   21.65
  -7  -2   8   49.85   17.46
  -7  -2   8   83.67   20.29
  -7  -2   9   31.34   15.95
  -7  -2   9   25.95   10.65
  -7  -2  10   76.28   24.34
  -7  -1 -11  116.62   27.28
  -7  -1 -10  205.28   35.56
  -7  -1  -9   99.63   23.62
  -7  -1  -8    0.74    4.26
  -7  -1  -7  503.33   49.16
  -7  -1  -6  273.67   34.73
  -7  -1  -5  149.33   25.03
  -7  -1  -4  551.77   47.72
  -7  -1  -3    4.14    5.89
  -7  -1  -2  894.92   59.32
  -7  -1  -1   78.15   16.74
  -7  -1   0  434.91   39.21
  -7  -1   0  422.84   36.41
  -7  -1   1  169.50   23.90
  -7  -1   1  148.96   24.44
  -7  -1   1  168.26   22.21
  -7  -1   2   30.56    9.77
  -7  -1   2   32.73   10.45
  -7  -1   2   22.34    8.93
  -7  -1   3   15.02    7.16
  -7  -1   4  110.94   19.54
  -7  -1   4   83.08   20.81
  -7  -1   5   82.66   16.74
  -7  -1   5   96.03   22.71
  -7  -1   6   13.78   10.27
  -7  -1   6    6.07    6.39
  -7  -1   7  372.43   46.27
  -7  -1   7  383.40   40.07
  -7  -1   8   83.88   19.16
  -7  -1   8   74.19   21.47
  -7  -1   9  153.56   31.54
  -7  -1  10   23.64   11.55
  -7  -1  11   -3.89    2.35
  -7   0 -11   42.99   16.63
  -7   0 -10   12.38    9.42
  -7   0  -9  371.02   45.47
  -7   0  -8   86.43   20.57
  -7   0  -7   17.72    9.11
  -7   0  -7   22.42   12.33
  -7   0  -6  228.01   41.46
  -7   0  -6  233.12   31.20
  -7   0  -5    1.79    3.97
  -7   0  -5    9.34    5.07
  -7   0  -4  186.25   37.74
  -7   0  -4  314.64   33.26
  -7   0  -3    3.55    2.14
  -7   0  -3   -1.72    2.43
  -7   0  -2  304.33   30.78
  -7   0  -2  220.57   39.51
  -7   0  -1   37.86   16.13
  -7   0  -1   57.22   13.37
  -7   0   0   91.24   15.94
  -7   0   0   34.90   16.18
  -7   0   1  380.53   32.62
  -7   0   1  450.14   57.09
  -7   0   2   19.87    6.23
  -7   0   2   11.00   10.58
  -7   0   2   21.99    3.84
  -7   0   3  680.61   73.09
  -7   0   3  767.55   37.86
  -7   0   3  747.47   46.89
  -7   0   3  690.88   55.23
  -7   0   4  125.94   13.72
  -7   0   4  135.69   18.85
  -7   0   4  142.80   33.78
  -7   0   4  125.36   23.33
  -7   0   5  539.71   49.51
  -7   0   5  533.83   65.57
  -7   0   5  620.78   35.27
  -7   0   5  534.04   39.38
  -7   0   6    8.51    5.58
  -7   0   6    5.57    6.27
  -7   0   6    7.32    8.14
  -7   0   6   11.31    5.08
  -7   0   7  103.80   25.20
  -7   0   7  154.20   19.83
  -7   0   8   12.14    6.33
  -7   0   8   34.56   15.71
  -7   0   9  136.96   29.97
  -7   0  10  118.72   28.80
  -7   0  11  -13.23   14.08
  -7   1 -11  189.51   35.30
  -7   1 -10   65.87   20.30
  -7   1 -10   62.29   18.96
  -7   1 -10   68.92   21.32
  -7   1  -9   74.26   19.45
  -7   1  -9   72.80   23.33
  -7   1  -8   29.85   13.92
  -7   1  -8   21.79   10.20
  -7   1  -7  100.59   26.44
  -7   1  -7  130.63   23.98
  -7   1  -6  104.21   27.56
  -7   1  -6   90.84   19.69
  -7   1  -5  199.52   27.13
  -7   1  -5  194.70   36.63
  -7   1  -4  317.18   32.72
  -7   1  -4  258.66   43.46
  -7   1  -3   15.90   11.02
  -7   1  -3   13.09    6.35
  -7   1  -2  328.29   30.20
  -7   1  -2  388.25   24.42
  -7   1  -2  292.75   46.63
  -7   1  -1  186.44   21.13
  -7   1  -1  116.90   12.21
  -7   1  -1  185.69   36.06
  -7   1  -1  187.77   23.65
  -7   1   0   58.91   20.89
  -7   1   0   56.15    8.71
  -7   1   0   86.43   13.64
  -7   1   0   90.91   15.50
  -7   1   1  208.79   40.00
  -7   1   1  189.86   16.97
  -7   1   1  263.02   24.34
  -7   1   1  240.78   21.81
  -7   1   2  118.23   14.98
  -7   1   2  139.38   21.30
  -7   1   2  131.40   15.74
  -7   1   2  160.41   33.50
  -7   1   2  169.88   17.12
  -7   1   3  134.42   14.95
  -7   1   3  124.69   30.29
  -7   1   3  126.02   20.50
  -7   1   3  132.61   17.09
  -7   1   3  169.94   16.45
  -7   1   4  107.87   20.44
  -7   1   4   84.11   25.15
  -7   1   4   75.35   12.73
  -7   1   5  235.42   23.62
  -7   1   5  174.93   26.68
  -7   1   5  186.91   38.27
  -7   1   6  191.22   29.17
  -7   1   6  194.91   38.29
  -7   1   6  239.07   25.36
  -7   1   7  419.07   35.43
  -7   1   7  394.16   56.21
  -7   1   7  368.30   43.07
  -7   1   8  358.29   44.47
  -7   1   8  438.16   38.48
  -7   1   8  366.47   54.14
  -7   1   9   -4.81    1.96
  -7   1   9   -5.89    5.15
  -7   1  10   68.65   18.95
  -7   2 -10   64.03   21.58
  -7   2 -10   46.91   17.63
  -7   2  -9   34.87   13.82
  -7   2  -9   49.95   20.17
  -7   2  -9   57.89   18.73
  -7   2  -8  562.43   55.27
  -7   2  -8  492.10   61.83
  -7   2  -8  524.42   51.94
  -7   2  -7   -0.80    4.97
  -7   2  -7   10.68    6.68
  -7   2  -7   16.87    9.40
  -7   2  -6  561.05   51.77
  -7   2  -6  700.98   54.16
  -7   2  -6  553.39   65.41
  -7   2  -5    4.53    4.70
  -7   2  -5    3.56    6.22
  -7   2  -4  530.08   41.21
  -7   2  -4  526.47   45.78
  -7   2  -4  494.86   61.88
  -7   2  -3   86.01   25.50
  -7   2  -3  110.03   17.58
  -7   2  -3  108.76   19.37
  -7   2  -2  483.27   35.13
  -7   2  -2  441.45   59.09
  -7   2  -2  553.28   42.59
  -7   2  -1  120.98   18.27
  -7   2  -1  116.46   15.34
  -7   2  -1   99.90   28.19
  -7   2  -1  142.47   17.57
  -7   2   0   80.05   12.11
  -7   2   0   79.86   11.76
  -7   2   0   76.21   25.13
  -7   2   0   49.38   10.85
  -7   2   0   97.97   16.52
  -7   2   1  572.39   27.78
  -7   2   1  652.66   70.07
  -7   2   1  554.20   35.33
  -7   2   1  527.98   37.37
  -7   2   2   60.68   12.95
  -7   2   2   42.45   12.62
  -7   2   2   77.69   27.80
  -7   2   2   54.46   10.95
  -7   2   3  333.32   28.85
  -7   2   3  421.72   58.24
  -7   2   3  400.51   32.94
  -7   2   3  332.38   29.87
  -7   2   4  317.29   49.08
  -7   2   4  227.33   25.94
  -7   2   4  239.70   27.25
  -7   2   5  151.95   22.76
  -7   2   5  184.92   25.06
  -7   2   5  200.35   39.60
  -7   2   6  370.01   38.48
  -7   2   6  428.74   57.86
  -7   2   6  365.24   37.14
  -7   2   7   20.66    8.13
  -7   2   7   65.45   22.50
  -7   2   8   77.75   23.83
  -7   2   8   60.18   15.56
  -7   2   9   80.86   23.73
  -7   2   9   69.85   16.76
  -7   2  10  118.56   23.02
  -7   3 -10   68.44   23.79
  -7   3  -9   59.06   18.96
  -7   3  -9   60.95   19.92
  -7   3  -8  141.72   34.00
  -7   3  -8  170.94   30.33
  -7   3  -7   33.71   13.74
  -7   3  -7   38.94   17.34
  -7   3  -6  274.99   36.76
  -7   3  -6  210.04   40.88
  -7   3  -5   55.88   17.07
  -7   3  -5   50.08   20.87
  -7   3  -4  545.58   66.82
  -7   3  -4  570.16   50.14
  -7   3  -3  150.78   34.89
  -7   3  -3  144.18   24.42
  -7   3  -2  119.33   21.39
  -7   3  -2   91.42   27.73
  -7   3  -1  234.40   43.29
  -7   3  -1  273.75   32.12
  -7   3   0    6.65    4.59
  -7   3   0   13.25    8.52
  -7   3   0   -1.51    2.89
  -7   3   1   57.79   22.22
  -7   3   1   48.31   14.43
  -7   3   1   38.85   11.92
  -7   3   2    8.95    6.82
  -7   3   2    5.61    9.56
  -7   3   2    7.40    6.24
  -7   3   3  184.11   38.89
  -7   3   3  153.75   24.07
  -7   3   4  113.63   31.08
  -7   3   4   57.83   15.05
  -7   3   5  148.00   34.17
  -7   3   5   76.99   17.05
  -7   3   6   27.30   11.67
  -7   3   6   37.32   17.87
  -7   3   7    2.57    5.16
  -7   3   7    0.58    4.54
  -7   3   8  270.94   36.54
  -7   3   8  346.76   53.29
  -7   3   9   34.45   15.00
  -7   3   9   17.53    8.61
  -7   3  10  116.64   25.36
  -7   4 -10   87.72   28.88
  -7   4  -9    7.44    5.31
  -7   4  -8  296.73   44.20
  -7   4  -8  244.40   47.48
  -7   4  -7    4.80    6.09
  -7   4  -7    5.20    8.13
  -7   4  -6  324.95   43.76
  -7   4  -5   49.65   15.49
  -7   4  -4   82.65   20.67
  -7   4  -3  130.42   26.87
  -7   4  -2   52.52   19.56
  -7   4  -1   77.23   22.02
  -7   4   0   12.84    8.01
  -7   4   0   15.41    8.52
  -7   4   1  218.16   31.75
  -7   4   1  348.45   38.35
  -7   4   2    2.89    2.94
  -7   4   2    8.60    7.89
  -7   4   3   40.15   13.90
  -7   4   4   66.39   17.91
  -7   4   5   19.73    7.40
  -7   4   6  470.07   63.92
  -7   4   6  291.94   38.34
  -7   4   7   40.12   15.49
  -7   4   7   41.11   19.69
  -7   4   8  115.00   31.67
  -7   4   8  107.10   23.35
  -7   4   9   29.38   12.40
  -7   4   9   30.28   20.62
  -7   5  -9   -3.12    8.44
  -7   5  -6  123.44   34.77
  -7   5  -5   51.38   20.51
  -7   5  -4  113.61   28.90
  -7   5  -3   58.66   22.49
  -7   5  -2    5.10    6.77
  -7   5  -1  218.75   35.57
  -7   5   0   36.67   13.41
  -7   5   0   40.20   13.31
  -7   5   1   20.17    8.21
  -7   5   1   20.74   10.60
  -7   5   2   71.25   20.00
  -7   5   3  145.17   27.62
  -7   5   4  140.36   27.59
  -7   5   5   10.14    6.67
  -7   5   6  310.29   42.70
  -7   5   7   50.49   16.53
  -7   5   8  274.58   51.14
  -7   5   8  169.54   32.10
  -7   6  -4  132.58   33.01
  -7   6  -3  455.72   55.59
  -7   6  -2   84.09   22.35
  -7   6  -1  181.69   31.62
  -7   6   0   18.27   12.78
  -7   6   0    8.58    8.29
  -7   6   1  111.44   24.69
  -7   6   2    6.77    5.30
  -7   6   3   -2.67    2.41
  -7   6   4  162.82   32.10
  -7   6   5    6.56    9.39
  -7   6   6   93.74   25.26
  -7   7  -2    9.03    5.82
  -7   7  -1  166.94   32.10
  -7   7   0   -3.38    6.01
  -7   7   1  128.31   28.15
  -6  -7  -5  106.13   26.73
  -6  -7  -4  300.46   46.31
  -6  -7  -3   18.62   11.30
  -6  -7  -2  446.96   55.95
  -6  -7  -1   63.41   20.39
  -6  -7   0  190.89   37.03
  -6  -7   1   44.84   17.10
  -6  -7   2   49.57   19.52
  -6  -7   3   16.77   12.14
  -6  -7   4   11.92   18.29
  -6  -6  -8   55.01   18.48
  -6  -6  -7   50.13   18.26
  -6  -6  -6  434.88   53.85
  -6  -6  -5    8.23    8.84
  -6  -6  -4  720.89   68.49
  -6  -6  -3   32.91   14.89
  -6  -6  -2  233.75   38.93
  -6  -6  -1   12.94    9.88
  -6  -6   0  125.27   27.87
  -6  -6   1  173.40   32.87
  -6  -6   2   18.12   12.40
  -6  -6   3  591.09   64.66
  -6  -6   4   22.19   12.50
  -6  -6   5  300.22   47.02
  -6  -6   6    9.72    7.12
  -6  -6   6    6.05    1.84
  -6  -6   7  171.82   36.36
  -6  -5  -9   86.12   24.33
  -6  -5  -8  144.22   30.15
  -6  -5  -7  109.30   25.50
  -6  -5  -6   57.64   18.69
  -6  -5  -5    2.82    1.22
  -6  -5  -4   77.97   21.18
  -6  -5  -3    0.35    2.14
  -6  -5  -2   61.48   18.80
  -6  -5  -1  131.98   26.51
  -6  -5   0   67.72   18.97
  -6  -5   1  212.59   35.01
  -6  -5   2   36.53   14.03
  -6  -5   3  213.78   36.01
  -6  -5   4    2.29    3.37
  -6  -5   5  369.67   49.14
  -6  -5   6   12.04   10.36
  -6  -5   6   -5.79    5.23
  -6  -5   7  164.99   32.83
  -6  -5   7  185.05   37.33
  -6  -5   8   16.46   10.14
  -6  -5   8   -5.52    8.21
  -6  -5   9   81.25   24.76
  -6  -4 -11  127.58   28.18
  -6  -4 -10   75.41   21.39
  -6  -4  -9   76.85   21.67
  -6  -4  -8  388.88   47.17
  -6  -4  -7   18.86   11.84
  -6  -4  -6  589.42   56.81
  -6  -4  -5   -0.03    4.39
  -6  -4  -4   40.45   13.80
  -6  -4  -3    9.72    6.16
  -6  -4  -2    4.49    3.56
  -6  -4  -1    4.30    3.58
  -6  -4   0   12.01    6.95
  -6  -4   1  245.88   34.36
  -6  -4   2    7.89    8.26
  -6  -4   3 1008.83   63.77
  -6  -4   3 1108.47   78.60
  -6  -4   4  210.64   33.38
  -6  -4   5  317.99   42.43
  -6  -4   6  173.56   31.78
  -6  -4   6  144.58   30.32
  -6  -4   7   87.34   24.14
  -6  -4   7  130.95   27.89
  -6  -4   8  256.85   40.40
  -6  -4   8  262.73   43.14
  -6  -4   9   78.07   22.35
  -6  -4   9   96.01   27.29
  -6  -4  10   56.67   20.25
  -6  -4  11   11.85   11.96
  -6  -3 -11    4.71    4.46
  -6  -3 -10  429.34   50.18
  -6  -3  -9   28.69   12.96
  -6  -3  -8  463.09   49.67
  -6  -3  -7   50.74   15.44
  -6  -3  -6  426.55   45.83
  -6  -3  -5   31.59   11.67
  -6  -3  -4  100.32   21.51
  -6  -3  -3   50.19   15.74
  -6  -3  -2   21.50    9.11
  -6  -3  -1   25.01    9.89
  -6  -3   0   58.24   16.30
  -6  -3   0   14.80    9.06
  -6  -3   1  687.11   51.61
  -6  -3   1  577.82   50.34
  -6  -3   2  119.91   19.94
  -6  -3   2  130.70   23.72
  -6  -3   3  379.30   34.32
  -6  -3   3  332.12   39.28
  -6  -3   4  180.86   29.20
  -6  -3   4  181.69   22.23
  -6  -3   5  242.98   34.20
  -6  -3   6  294.46   42.23
  -6  -3   6  355.44   42.26
  -6  -3   7   24.73   14.57
  -6  -3   7   36.83   13.44
  -6  -3   8  191.34   35.99
  -6  -3   8  190.98   32.44
  -6  -3   9  162.67   35.53
  -6  -3   9  180.85   32.39
  -6  -3  10  298.39   47.93
  -6  -3  10  361.33   47.38
  -6  -3  11    8.52    5.55
  -6  -3  12  103.15   27.75
  -6  -2 -12  116.38   28.20
  -6  -2 -11   38.24   15.34
  -6  -2 -10  206.73   33.73
  -6  -2  -9  131.51   26.67
  -6  -2  -8  748.51   60.68
  -6  -2  -7    4.96    5.70
  -6  -2  -6  588.63   51.45
  -6  -2  -6  587.28   30.61
  -6  -2  -5  155.11   25.66
  -6  -2  -4  290.54   34.15
  -6  -2  -3  251.06   31.09
  -6  -2  -2  114.94   20.30
  -6  -2  -1 1285.81   72.79
  -6  -2   0   70.41   15.73
  -6  -2   0   33.28   12.35
  -6  -2   1  108.12   20.68
  -6  -2   1  110.46   19.67
  -6  -2   2   36.06    7.91
  -6  -2   2   40.72   11.54
  -6  -2   2   35.29   10.11
  -6  -2   3  204.51   22.35
  -6  -2   3  202.71   27.91
  -6  -2   3  207.55   18.99
  -6  -2   4   32.23   11.65
  -6  -2   4   26.53    7.29
  -6  -2   4   36.63    8.58
  -6  -2   5  140.36   27.10
  -6  -2   5  141.51   24.19
  -6  -2   6  272.57   34.25
  -6  -2   6  293.25   40.29
  -6  -2   7  137.75   28.03
  -6  -2   7  125.60   23.19
  -6  -2   8  597.53   53.33
  -6  -2   8  556.30   59.27
  -6  -2   9   86.94   20.95
  -6  -2   9   79.87   23.22
  -6  -2  10  187.22   36.69
  -6  -2  10  180.65   31.83
  -6  -2  11  154.53   35.06
  -6  -2  11  185.84   33.03
  -6  -2  12   33.08   14.16
  -6  -1 -12   33.76   14.80
  -6  -1 -11  140.05   29.42
  -6  -1 -10  152.03   28.19
  -6  -1  -9    7.58    5.21
  -6  -1  -8  478.78   47.37
  -6  -1  -7   85.82   19.01
  -6  -1  -7   77.07   13.27
  -6  -1  -6  105.84   13.37
  -6  -1  -6  168.62   25.74
  -6  -1  -5  152.75   13.21
  -6  -1  -5  190.50   26.50
  -6  -1  -4  167.46   24.25
  -6  -1  -4   25.74    3.45
  -6  -1  -3  248.29   28.83
  -6  -1  -3  259.99   40.34
  -6  -1  -2    6.95    8.00
  -6  -1  -2    4.12    3.89
  -6  -1  -1    1.55    5.51
  -6  -1  -1    0.01    2.81
  -6  -1   0  195.36   24.65
  -6  -1   0  197.57   35.24
  -6  -1   0  213.15   22.99
  -6  -1   1  386.12   34.45
  -6  -1   1  442.43   34.63
  -6  -1   1  353.95   48.70
  -6  -1   2   40.50   11.17
  -6  -1   2   44.86   12.02
  -6  -1   2   38.85   15.31
  -6  -1   2   41.85   10.76
  -6  -1   3   72.83   13.47
  -6  -1   3   95.20   14.05
  -6  -1   3   92.02   16.19
  -6  -1   4  362.88   24.42
  -6  -1   4  342.99   33.72
  -6  -1   4  372.67   22.96
  -6  -1   4  269.12   34.86
  -6  -1   4  328.42   29.75
  -6  -1   5  157.22   27.47
  -6  -1   5  169.63   13.53
  -6  -1   5  163.12   23.40
  -6  -1   5  148.01   20.33
  -6  -1   5  172.64   17.35
  -6  -1   6  205.83   30.95
  -6  -1   6  199.71   26.82
  -6  -1   6  216.89   21.38
  -6  -1   7   60.40   18.83
  -6  -1   7   67.98   15.68
  -6  -1   7   73.28   13.33
  -6  -1   8  484.16   44.62
  -6  -1   8  509.46   39.75
  -6  -1   8  529.12   54.71
  -6  -1   9   29.96   10.87
  -6  -1   9   18.68    9.01
  -6  -1   9   18.28   11.04
  -6  -1  10  221.40   38.96
  -6  -1  10  218.36   28.86
  -6  -1  10  227.55   33.02
  -6  -1  11   37.98   13.32
  -6  -1  11   14.39   10.44
  -6  -1  11   21.41    9.40
  -6  -1  12   43.46   17.25
  -6  -1  12   13.39    5.46
  -6  -1  13  161.93   29.65
  -6   0 -12  317.53   45.95
  -6   0 -11    2.10    4.51
  -6   0 -10  911.84   71.82
  -6   0  -9   99.32   22.25
  -6   0  -8   64.65   17.25
  -6   0  -8   47.06   15.93
  -6   0  -7  133.54   23.26
  -6   0  -7   75.48   12.95
  -6   0  -7   97.54   23.49
  -6   0  -6  106.20   14.31
  -6   0  -6  100.90   24.05
  -6   0  -5   33.51    7.22
  -6   0  -5   28.98    9.62
  -6   0  -4   20.26    4.97
  -6   0  -4   39.06   10.70
  -6   0  -4   40.51   16.10
  -6   0  -3  183.81   22.98
  -6   0  -3  124.46   27.17
  -6   0  -3  155.20   10.90
  -6   0  -2  112.04    6.98
  -6   0  -2  157.03   20.31
  -6   0  -2  136.44   28.33
  -6   0  -1  367.88   47.66
  -6   0  -1  517.14   36.88
  -6   0  -1  428.53   37.46
  -6   0   0   27.59    3.22
  -6   0   0   47.16   12.78
  -6   0   0   57.26   11.62
  -6   0   0   40.78   15.15
  -6   0   1    3.08    5.07
  -6   0   1   13.87   11.07
  -6   0   1    7.48    1.94
  -6   0   1    7.55    4.80
  -6   0   2  403.89   31.78
  -6   0   2  415.25   36.23
  -6   0   2  457.78   22.50
  -6   0   2  391.14   47.87
  -6   0   3    9.99    8.07
  -6   0   3    2.29    2.01
  -6   0   3    5.88    3.05
  -6   0   3    2.44    1.82
  -6   0   3    7.37    4.53
  -6   0   3    8.75    7.09
  -6   0   4   32.04    8.75
  -6   0   4   34.65   12.18
  -6   0   4   22.96    4.19
  -6   0   4   21.59    5.02
  -6   0   4   33.30    6.99
  -6   0   4   18.50   11.14
  -6   0   4   22.87    7.69
  -6   0   5   91.73   24.37
  -6   0   5  108.50   17.11
  -6   0   5   93.41   19.62
  -6   0   5  124.44   15.89
  -6   0   5  112.86   18.83
  -6   0   6  572.89   41.72
  -6   0   6  609.03   63.69
  -6   0   6  667.61   40.19
  -6   0   6  604.13   52.75
  -6   0   7   12.47    5.72
  -6   0   7   21.03   10.41
  -6   0   7   24.40    7.92
  -6   0   8  452.45   39.00
  -6   0   8  507.26   39.47
  -6   0   8  432.04   49.09
  -6   0   9  114.28   18.96
  -6   0   9  134.57   21.02
  -6   0   9  129.66   28.03
  -6   0  10  147.69   22.74
  -6   0  10  161.58   31.00
  -6   0  11   98.43   20.36
  -6   0  11  115.61   28.64
  -6   0  12   29.74   18.07
  -6   0  12   11.22    8.30
  -6   0  13   35.19   13.85
  -6   1 -12  144.10   29.99
  -6   1 -12  120.28   28.87
  -6   1 -11   20.39   12.49
  -6   1 -11   13.95    9.69
  -6   1 -10  187.71   32.09
  -6   1 -10  130.71   27.88
  -6   1  -9  544.52   51.80
  -6   1  -9  510.14   56.55
  -6   1  -8  376.34   41.19
  -6   1  -8  353.17   46.24
  -6   1  -7  752.52   56.40
  -6   1  -7  783.49   45.21
  -6   1  -7  626.39   62.72
  -6   1  -6    6.23    3.90
  -6   1  -6    5.25    8.78
  -6   1  -6    7.41    5.17
  -6   1  -5  409.60   27.43
  -6   1  -5  444.19   38.18
  -6   1  -4   87.46   24.70
  -6   1  -4  136.01   18.90
  -6   1  -4  129.10   14.48
  -6   1  -4  162.31   21.66
  -6   1  -3   84.96   15.24
  -6   1  -3   74.45   10.09
  -6   1  -3   70.31   20.57
  -6   1  -3   68.99   13.19
  -6   1  -2    6.39    4.02
  -6   1  -2    2.08    2.28
  -6   1  -2    6.27    9.60
  -6   1  -2    2.40    0.74
  -6   1  -1  121.98   27.04
  -6   1  -1  168.84   18.33
  -6   1  -1  146.60   15.00
  -6   1   0   51.49    9.63
  -6   1   0   39.22    8.29
  -6   1   0   63.47   11.87
  -6   1   0   49.16   17.89
  -6   1   1   51.36   19.29
  -6   1   1   36.88    7.99
  -6   1   1   45.38    9.27
  -6   1   1   34.90    8.14
  -6   1   2  354.42   31.36
  -6   1   2  339.94   23.29
  -6   1   2  252.65   21.59
  -6   1   2  348.15   46.29
  -6   1   2  324.08   22.74
  -6   1   3   36.97   17.29
  -6   1   3   45.26    7.80
  -6   1   3   38.04   10.55
  -6   1   3   40.79    7.65
  -6   1   3   33.16    8.46
  -6   1   4 1346.78   92.26
  -6   1   4 1458.65   44.14
  -6   1   4 1198.52   57.80
  -6   1   4  999.29   39.90
  -6   1   4 1212.70   49.41
  -6   1   4 1219.11   66.12
  -6   1   5  170.81   16.66
  -6   1   5  169.71   21.49
  -6   1   5  199.95   35.29
  -6   1   5  186.33   25.93
  -6   1   6  706.07   38.69
  -6   1   6  728.62   67.83
  -6   1   6  686.39   53.78
  -6   1   6  826.38   49.37
  -6   1   7   97.97   14.51
  -6   1   7  105.42   17.77
  -6   1   7  123.50   27.67
  -6   1   7   96.34   20.44
  -6   1   8  155.36   22.72
  -6   1   8  135.73   29.27
  -6   1   8  138.52   26.44
  -6   1   9    5.90    5.66
  -6   1   9    5.87    6.87
  -6   1   9   11.28    7.88
  -6   1  10   54.23   18.90
  -6   1  10   59.86   15.22
  -6   1  11  206.37   30.71
  -6   1  12   56.87   17.34
  -6   2 -11   41.38   15.74
  -6   2 -11   45.30   15.83
  -6   2 -10  249.91   39.35
  -6   2 -10  285.41   39.64
  -6   2  -9  439.51   47.19
  -6   2  -9  357.41   43.56
  -6   2  -9  374.50   48.89
  -6   2  -8   26.48   11.36
  -6   2  -8   13.38    6.43
  -6   2  -8   25.03    9.72
  -6   2  -7  202.15   29.95
  -6   2  -7  241.15   31.23
  -6   2  -7  179.91   25.13
  -6   2  -7  202.34   36.48
  -6   2  -6  313.50   28.00
  -6   2  -6  193.27   35.06
  -6   2  -6  231.72   30.85
  -6   2  -6  306.46   33.40
  -6   2  -6  272.56   25.49
  -6   2  -5  310.80   34.37
  -6   2  -5  329.63   27.67
  -6   2  -5  342.29   33.60
  -6   2  -5  285.44   42.19
  -6   2  -5  323.69   28.80
  -6   2  -4  201.00   26.45
  -6   2  -4  245.71   22.76
  -6   2  -4  256.16   39.89
  -6   2  -4  230.98   25.40
  -6   2  -3  549.87   38.00
  -6   2  -3  640.54   45.76
  -6   2  -3  534.20   40.49
  -6   2  -3  526.54   58.27
  -6   2  -2   49.67   12.01
  -6   2  -2   33.53    8.73
  -6   2  -2   45.91   16.04
  -6   2  -2   35.30   10.25
  -6   2  -1   72.25   11.03
  -6   2  -1   61.72   18.81
  -6   2  -1   57.27   11.95
  -6   2   0  307.60   26.85
  -6   2   0  295.50   43.64
  -6   2   0  252.06   24.45
  -6   2   0  267.77   19.58
  -6   2   1  116.25   13.93
  -6   2   1  138.27   17.42
  -6   2   1  134.97   28.45
  -6   2   1   99.99   15.53
  -6   2   1  112.79   10.62
  -6   2   2   90.90   14.85
  -6   2   2  144.31   30.91
  -6   2   2  120.11   15.27
  -6   2   2   87.45    6.97
  -6   2   2  108.74   17.41
  -6   2   3   10.55   12.69
  -6   2   3    6.36    4.32
  -6   2   3    0.51    2.53
  -6   2   3    2.21    1.04
  -6   2   4  108.12   17.78
  -6   2   4  124.59   11.52
  -6   2   4  144.34   30.39
  -6   2   4  112.46   17.44
  -6   2   5   96.49   17.50
  -6   2   5   87.43   16.81
  -6   2   5  100.66   25.12
  -6   2   6   31.51   11.31
  -6   2   6   29.78   15.07
  -6   2   6   20.43    8.23
  -6   2   7  103.71   20.45
  -6   2   7  129.93   29.59
  -6   2   7  101.97   19.99
  -6   2   8  120.01   28.16
  -6   2   8  113.15   21.67
  -6   2   9  468.83   44.86
  -6   2   9  535.78   59.23
  -6   2  10   -0.78    6.30
  -6   2  11  183.85   29.83
  -6   2  12   -6.37    6.65
  -6   3 -10  168.91   33.38
  -6   3 -10  139.57   27.68
  -6   3  -9  113.81   27.91
  -6   3  -9   93.59   22.14
  -6   3  -8  115.91   23.53
  -6   3  -8  122.17   29.41
  -6   3  -7  618.23   54.51
  -6   3  -7  687.27   69.72
  -6   3  -6   11.19    6.43
  -6   3  -5  438.65   42.48
  -6   3  -4  558.85   37.05
  -6   3  -4  460.65   42.08
  -6   3  -3  197.60   26.33
  -6   3  -3  194.19   22.01
  -6   3  -2   29.91   10.84
  -6   3  -2   50.90   11.74
  -6   3  -1  151.24   22.40
  -6   3   0   32.95   11.57
  -6   3   1   61.65   14.73
  -6   3   1   89.16   16.69
  -6   3   2  206.99   27.54
  -6   3   2  205.18   25.25
  -6   3   3  164.77   18.77
  -6   3   3  133.96   21.79
  -6   3   4  299.52   22.48
  -6   3   4  281.55   32.18
  -6   3   5   34.18   10.91
  -6   3   6  554.40   62.10
  -6   3   6  281.57   33.29
  -6   3   7   31.96   15.89
  -6   3   7   13.15    7.86
  -6   3   8   36.20   15.18
  -6   3   8    4.39    5.73
  -6   3   9   33.48   15.20
  -6   3   9   23.79   13.76
  -6   3  10   21.52   10.70
  -6   3  11  231.34   35.03
  -6   4 -10    6.20    7.09
  -6   4  -9  192.02   34.88
  -6   4  -8   29.20   12.51
  -6   4  -7   81.70   21.79
  -6   4  -6   -2.60    2.77
  -6   4  -5  168.60   29.20
  -6   4  -4    6.39    6.18
  -6   4  -3    5.87    7.00
  -6   4  -2  794.60   47.95
  -6   4  -2  546.68   56.55
  -6   4  -1   51.40   16.38
  -6   4   0  121.37   23.82
  -6   4   1    2.88    5.63
  -6   4   1    7.79    5.05
  -6   4   2   10.22    6.64
  -6   4   2   11.08    5.72
  -6   4   3   17.79    9.62
  -6   4   3   45.40   10.66
  -6   4   4  266.02   24.77
  -6   4   4  217.79   31.39
  -6   4   5    1.33    4.42
  -6   4   6   47.84   15.34
  -6   4   7  120.52   24.77
  -6   4   8   22.26   11.54
  -6   4   8   42.08   17.02
  -6   4   9  218.68   34.52
  -6   4   9  351.23   51.69
  -6   4  10   33.99   14.24
  -6   5  -8    7.71    5.77
  -6   5  -7  110.01   31.04
  -6   5  -6   10.01   10.66
  -6   5  -5  106.13   28.36
  -6   5  -4  337.53   48.35
  -6   5  -3   63.89   21.92
  -6   5  -2   66.43   19.57
  -6   5  -1   14.80   10.88
  -6   5   0  122.60   22.97
  -6   5   1   33.73   12.89
  -6   5   1   61.67   16.93
  -6   5   2  447.26   46.36
  -6   5   2  454.13   41.31
  -6   5   3   30.89   13.32
  -6   5   3   47.40   13.23
  -6   5   4   59.58   17.28
  -6   5   5   95.01   23.60
  -6   5   6   43.61   15.66
  -6   5   7  126.37   27.58
  -6   5   8   19.84   10.76
  -6   5   9  128.76   27.28
  -6   6  -6   18.69   12.25
  -6   6  -5  127.32   31.80
  -6   6  -4   91.39   25.42
  -6   6  -3   50.01   18.10
  -6   6  -2  194.49   32.92
  -6   6  -1   15.21    7.94
  -6   6   0  230.97   33.05
  -6   6   1   47.45   14.75
  -6   6   1   62.79   18.70
  -6   6   2   40.62   13.55
  -6   6   2   35.60   14.10
  -6   6   3  111.90   27.03
  -6   6   3  210.29   28.72
  -6   6   4   76.34   21.84
  -6   6   5   82.71   22.96
  -6   6   6   29.22   13.35
  -6   6   7   44.98   18.24
  -6   7  -4  112.50   29.18
  -6   7  -3   42.21   17.41
  -6   7  -2  119.77   26.47
  -6   7  -1   10.49    5.80
  -6   7   0  128.05   26.07
  -6   7   1   -0.14    5.90
  -6   7   1   12.68   10.28
  -6   7   2  186.09   34.12
  -6   7   2  190.75   30.20
  -6   7   3    0.27    4.12
  -6   7   4   16.04    9.89
  -6   8  -1   22.74   14.18
  -6   8   0   53.89   18.44
  -6   8   1   99.55   25.10
  -5  -8  -5    3.45    6.47
  -5  -8  -4   41.50   16.70
  -5  -8  -3  120.67   29.77
  -5  -8  -2   35.33   15.66
  -5  -8  -1  113.49   29.53
  -5  -8   0    2.21    2.98
  -5  -8   1  258.71   44.75
  -5  -8   2   12.31    8.24
  -5  -7  -8   18.25   10.66
  -5  -7  -7   92.20   24.64
  -5  -7  -6  290.33   44.22
  -5  -7  -5  161.01   31.86
  -5  -7  -4   32.96   15.28
  -5  -7  -3  147.99   30.97
  -5  -7  -2   10.07    7.75
  -5  -7  -1  170.31   32.76
  -5  -7   0   36.49   16.40
  -5  -7   1  127.37   29.88
  -5  -7   2  308.92   46.67
  -5  -7   3  316.89   47.74
  -5  -7   4  215.83   39.72
  -5  -7   5    1.02    4.56
  -5  -7   6  282.85   48.79
  -5  -7   6  382.75   54.64
  -5  -6 -10  278.52   43.25
  -5  -6  -9   25.19   15.06
  -5  -6  -8  408.48   50.77
  -5  -6  -7    5.45    7.24
  -5  -6  -6   15.07    9.86
  -5  -6  -5   99.04   23.14
  -5  -6  -4  111.49   25.39
  -5  -6  -3  124.93   27.01
  -5  -6  -2   17.98   10.31
  -5  -6  -1  343.82   44.05
  -5  -6   0   59.08   18.35
  -5  -6   1  248.68   38.32
  -5  -6   2  361.75   47.15
  -5  -6   3   66.23   20.74
  -5  -6   4  415.77   52.00
  -5  -6   5   43.84   17.93
  -5  -6   6   30.64   13.37
  -5  -6   6   37.01   18.28
  -5  -6   7   77.05   23.71
  -5  -6   7   87.42   25.62
  -5  -6   8  122.86   30.46
  -5  -6   8   96.99   27.79
  -5  -5 -11    4.69    1.34
  -5  -5 -10  201.39   34.61
  -5  -5  -9   40.21   17.14
  -5  -5  -8  321.44   42.55
  -5  -5  -7  399.19   46.64
  -5  -5  -6  302.18   40.19
  -5  -5  -5  177.74   30.41
  -5  -5  -4   48.85   15.42
  -5  -5  -3   12.12    9.03
  -5  -5  -2   15.40    9.17
  -5  -5  -1   39.61   14.83
  -5  -5   0    2.89    6.87
  -5  -5   1  244.25   35.73
  -5  -5   2  281.19   38.73
  -5  -5   3   57.41   17.12
  -5  -5   4  915.18   73.83
  -5  -5   5   12.90    9.46
  -5  -5   6  632.80   62.24
  -5  -5   6  563.34   62.12
  -5  -5   7   17.78   12.74
  -5  -5   7  158.20   33.40
  -5  -5   8  321.60   45.91
  -5  -5   8  219.24   39.94
  -5  -5   9   11.71    7.73
  -5  -5   9   37.59   17.44
  -5  -5  10   15.79    9.47
  -5  -4 -12  215.24   36.95
  -5  -4 -11  189.66   33.60
  -5  -4 -10  353.06   44.46
  -5  -4  -9  331.01   41.94
  -5  -4  -8  214.97   33.49
  -5  -4  -7  484.33   49.39
  -5  -4  -7  504.62   41.86
  -5  -4  -6   52.83   12.92
  -5  -4  -6   57.96   16.83
  -5  -4  -5   34.72   11.70
  -5  -4  -5   37.06   13.02
  -5  -4  -4   22.71    9.33
  -5  -4  -4   36.94   11.21
  -5  -4  -3   31.32   11.20
  -5  -4  -2   69.67   16.91
  -5  -4  -1   23.20    9.91
  -5  -4   0  379.35   40.74
  -5  -4   1    5.51    4.57
  -5  -4   1   16.50    7.65
  -5  -4   2  683.94   57.45
  -5  -4   2  783.63   54.22
  -5  -4   3   34.16   10.31
  -5  -4   3   34.67   13.05
  -5  -4   4  113.01   18.81
  -5  -4   4  107.85   22.73
  -5  -4   5   50.20   15.96
  -5  -4   5   41.38   12.04
  -5  -4   6  232.62   37.82
  -5  -4   6  217.80   33.52
  -5  -4   6  208.56   29.16
  -5  -4   7  164.28   29.95
  -5  -4   7  152.40   30.76
  -5  -4   8   -2.28    4.59
  -5  -4   8    2.62    6.27
  -5  -4   9  496.91   56.60
  -5  -4   9  527.61   61.67
  -5  -4  10   12.11   11.26
  -5  -4  10    2.30    7.93
  -5  -4  11  306.88   47.69
  -5  -3 -12   63.31   19.22
  -5  -3 -11  232.26   35.98
  -5  -3 -10  195.42   32.08
  -5  -3  -9  380.18   43.30
  -5  -3  -8  354.76   32.17
  -5  -3  -8  311.84   31.23
  -5  -3  -8  328.15   40.01
  -5  -3  -7  546.42   49.84
  -5  -3  -7  476.24   39.42
  -5  -3  -6   15.91    6.76
  -5  -3  -6   20.49    9.51
  -5  -3  -5  750.27   52.19
  -5  -3  -5  717.36   55.68
  -5  -3  -4   16.98    7.73
  -5  -3  -4   29.83   11.07
  -5  -3  -3  496.76   43.75
  -5  -3  -3  510.07   44.63
  -5  -3  -2  644.17   50.37
  -5  -3  -2  644.31   51.27
  -5  -3  -2  570.41   52.68
  -5  -3  -1  526.24   44.65
  -5  -3  -1  554.82   51.16
  -5  -3   0  148.10   23.47
  -5  -3   0  134.32   22.72
  -5  -3   1  124.20   20.15
  -5  -3   1  102.86   19.60
  -5  -3   2  357.50   37.73
  -5  -3   2  355.09   32.63
  -5  -3   3    3.06    3.64
  -5  -3   3    8.28    7.71
  -5  -3   4  786.02   46.83
  -5  -3   4  812.43   59.69
  -5  -3   5   67.35   12.75
  -5  -3   5   63.56   16.46
  -5  -3   6   62.68   14.02
  -5  -3   6   73.52   20.38
  -5  -3   6  106.70   21.33
  -5  -3   7  294.08   41.23
  -5  -3   7  323.43   39.13
  -5  -3   8  127.38   27.42
  -5  -3   8  190.75   31.29
  -5  -3   9  387.00   46.51
  -5  -3   9  368.69   49.81
  -5  -3  10   11.87   10.17
  -5  -3  11  267.06   45.27
  -5  -2 -13    0.26    3.99
  -5  -2 -12  191.97   34.32
  -5  -2 -11   73.74   21.18
  -5  -2 -10   45.02   15.10
  -5  -2  -9  463.22   40.39
  -5  -2  -9  381.12   38.00
  -5  -2  -8    2.35    2.33
  -5  -2  -8    4.43    5.61
  -5  -2  -8    4.88    4.31
  -5  -2  -7  377.41   39.61
  -5  -2  -7  330.14   29.80
  -5  -2  -7  325.82   34.20
  -5  -2  -6   84.18   17.91
  -5  -2  -6   48.37   10.24
  -5  -2  -6   50.25   13.28
  -5  -2  -5  209.94   26.55
  -5  -2  -5  227.58   17.70
  -5  -2  -5  294.40   32.97
  -5  -2  -4  195.77   26.18
  -5  -2  -4  136.00   21.15
  -5  -2  -3  634.14   47.38
  -5  -2  -3  610.49   46.64
  -5  -2  -2  305.65   31.51
  -5  -2  -2  277.28   31.94
  -5  -2  -1   58.31   13.01
  -5  -2  -1   46.85   13.35
  -5  -2   0 1205.04   70.08
  -5  -2   0 1319.00   68.28
  -5  -2   1   19.76    7.36
  -5  -2   1    9.94    5.66
  -5  -2   2  392.11   23.36
  -5  -2   2  441.65   33.73
  -5  -2   2  332.19   33.73
  -5  -2   3    5.17    4.08
  -5  -2   3    7.50    3.29
  -5  -2   3    4.98    3.51
  -5  -2   4   27.48    6.87
  -5  -2   4   21.82    9.36
  -5  -2   4   21.13    5.28
  -5  -2   5    7.31    4.07
  -5  -2   5    1.10    4.15
  -5  -2   5   10.43    6.61
  -5  -2   5    4.41    3.21
  -5  -2   6  464.95   28.57
  -5  -2   6  525.86   51.32
  -5  -2   6  507.37   43.92
  -5  -2   7  176.79   27.11
  -5  -2   7  179.11   30.47
  -5  -2   7  165.37   12.80
  -5  -2   7  170.42   21.78
  -5  -2   7  166.89   19.15
  -5  -2   8   32.24    9.33
  -5  -2   8   63.10   18.80
  -5  -2   8   36.87   12.73
  -5  -2   9  348.24   35.37
  -5  -2   9  350.04   46.53
  -5  -2  10   66.90   21.31
  -5  -2  10   52.35   13.54
  -5  -2  11  190.98   29.97
  -5  -2  11  165.85   35.23
  -5  -2  12   81.87   28.44
  -5  -2  12   53.84   16.69
  -5  -1 -13   23.42   11.27
  -5  -1 -12  324.68   44.24
  -5  -1 -11  437.46   49.55
  -5  -1 -10  373.25   43.43
  -5  -1  -9  173.65   28.56
  -5  -1  -9  105.05   18.85
  -5  -1  -8    5.22    4.67
  -5  -1  -8    0.53    3.58
  -5  -1  -7  218.80   23.02
  -5  -1  -7  322.23   34.54
  -5  -1  -6  207.15   20.16
  -5  -1  -6  265.34   30.61
  -5  -1  -5  117.28   13.66
  -5  -1  -5  169.93   25.26
  -5  -1  -5  188.54   24.64
  -5  -1  -4   74.51   16.59
  -5  -1  -4   48.62   12.55
  -5  -1  -4   48.62    7.12
  -5  -1  -3  181.25   22.94
  -5  -1  -3  165.19   24.05
  -5  -1  -3  175.42   29.64
  -5  -1  -2  406.39   47.75
  -5  -1  -2  522.58   39.27
  -5  -1  -2  494.76   41.68
  -5  -1  -1  424.09   33.91
  -5  -1  -1  413.17   38.52
  -5  -1   0  796.96   54.63
  -5  -1   0  674.87   38.82
  -5  -1   0  707.15   44.33
  -5  -1   0  623.51   57.78
  -5  -1   1   57.38   12.02
  -5  -1   1   55.05   10.94
  -5  -1   1   52.38   16.41
  -5  -1   2  163.26   29.11
  -5  -1   2  195.62   23.72
  -5  -1   2  165.12   20.40
  -5  -1   2  167.78   18.62
  -5  -1   2  192.02   22.41
  -5  -1   3   -1.43    0.77
  -5  -1   3    2.85    3.14
  -5  -1   3    0.98    1.33
  -5  -1   4  360.37   21.98
  -5  -1   4  389.65   33.88
  -5  -1   4  356.84   28.29
  -5  -1   4  400.77   24.45
  -5  -1   5   11.00    7.66
  -5  -1   5    8.27    4.02
  -5  -1   5   14.84    5.55
  -5  -1   5    7.73    3.35
  -5  -1   5   14.15    7.53
  -5  -1   6   94.51   15.89
  -5  -1   6  122.72   19.60
  -5  -1   6   90.19   13.44
  -5  -1   6  115.31   21.86
  -5  -1   7  303.70   28.01
  -5  -1   7  331.87   33.89
  -5  -1   7  392.60   42.50
  -5  -1   7  321.60   31.11
  -5  -1   8   33.20   10.35
  -5  -1   8   73.63   16.99
  -5  -1   8   58.48   16.54
  -5  -1   8   45.75   11.44
  -5  -1   9  425.00   50.93
  -5  -1   9  296.59   32.11
  -5  -1  10   15.51   11.28
  -5  -1  10   11.99    6.59
  -5  -1  11  154.03   25.37
  -5  -1  11  147.13   31.54
  -5  -1  12  130.91   30.54
  -5  -1  12  129.22   24.19
  -5  -1  13   -1.40    2.92
  -5  -1  13    6.74    0.73
  -5   0 -13  104.20   26.94
  -5   0 -12  229.60   37.31
  -5   0 -11  207.62   33.47
  -5   0 -10   10.23    7.85
  -5   0  -9  556.98   44.08
  -5   0  -9  743.66   58.69
  -5   0  -8  178.58   30.16
  -5   0  -8  192.87   27.97
  -5   0  -8  157.40   21.63
  -5   0  -7   57.62   17.16
  -5   0  -7   49.59   11.41
  -5   0  -6  203.82   26.10
  -5   0  -6  213.44   32.90
  -5   0  -6  151.90   17.72
  -5   0  -5   15.18    6.62
  -5   0  -5   33.51    7.39
  -5   0  -5   16.78    8.64
  -5   0  -4  245.81   34.37
  -5   0  -4  259.17   26.57
  -5   0  -4  247.03   17.51
  -5   0  -3  245.35   15.06
  -5   0  -3  285.82   26.53
  -5   0  -3  216.55   28.53
  -5   0  -3  206.54   31.70
  -5   0  -2  235.21   23.50
  -5   0  -2  203.07   11.67
  -5   0  -2  180.10   29.79
  -5   0  -2  251.11   25.48
  -5   0  -2  235.17   29.73
  -5   0  -1   79.68   12.80
  -5   0  -1   64.09   15.90
  -5   0  -1   70.55   14.10
  -5   0  -1   44.94    5.10
  -5   0  -1   73.10    5.79
  -5   0   0   10.98    2.25
  -5   0   0   20.56    6.77
  -5   0   0   18.20    7.75
  -5   0   0   18.47    6.26
  -5   0   1   71.31   13.33
  -5   0   1   89.35   14.94
  -5   0   1   80.47   21.44
  -5   0   1   72.87    7.83
  -5   0   1   64.16   11.17
  -5   0   2  373.79   21.75
  -5   0   2  491.25   31.68
  -5   0   2  539.33   40.03
  -5   0   2  439.90   46.42
  -5   0   2  453.11   34.95
  -5   0   3  519.81   27.72
  -5   0   3  451.35   48.24
  -5   0   3  475.60   28.60
  -5   0   3  500.03   33.00
  -5   0   3  458.43   35.71
  -5   0   4  394.94   18.44
  -5   0   4  390.79   43.81
  -5   0   4  441.86   27.79
  -5   0   4  438.03   38.46
  -5   0   4  435.54   35.34
  -5   0   4  445.14   32.09
  -5   0   5 1362.05   57.06
  -5   0   5 1455.10   74.20
  -5   0   5 1301.18   68.85
  -5   0   5 1264.59   84.30
  -5   0   5 1260.64   59.93
  -5   0   6   41.63   14.94
  -5   0   6   63.51   11.64
  -5   0   6   73.43   13.27
  -5   0   6   51.34   14.88
  -5   0   6   54.28   13.14
  -5   0   7  257.34   31.55
  -5   0   7  233.16   25.73
  -5   0   7  264.42   34.16
  -5   0   7  264.44   37.30
  -5   0   7  272.34   26.64
  -5   0   8   82.07   15.32
  -5   0   8   77.17   14.52
  -5   0   8   80.00   20.85
  -5   0   9   89.55   17.58
  -5   0   9   96.22   24.39
  -5   0  10  266.53   31.76
  -5   0  10  282.27   40.72
  -5   0  11   42.76   15.40
  -5   0  11   60.08   20.54
  -5   0  12   77.08   19.55
  -5   0  12   88.34   25.49
  -5   0  13  136.80   26.73
  -5   1 -13   91.10   23.59
  -5   1 -12  117.65   25.69
  -5   1 -12  130.89   28.04
  -5   1 -11  697.68   61.27
  -5   1 -11  749.16   65.23
  -5   1 -10   25.21   10.74
  -5   1 -10   55.85   16.25
  -5   1  -9  466.28   46.42
  -5   1  -9  435.02   46.12
  -5   1  -8  243.49   25.87
  -5   1  -8  242.10   34.35
  -5   1  -8  219.51   29.88
  -5   1  -7  258.24   30.77
  -5   1  -7  280.93   25.74
  -5   1  -7  193.17   30.68
  -5   1  -6  103.09   18.09
  -5   1  -6   77.90   19.57
  -5   1  -6   89.68   13.49
  -5   1  -5  436.49   47.32
  -5   1  -5  480.62   29.85
  -5   1  -5  484.46   38.23
  -5   1  -4  195.54   17.33
  -5   1  -4  238.02   24.85
  -5   1  -3   14.19    9.47
  -5   1  -3   18.35    5.92
  -5   1  -3   16.75    6.51
  -5   1  -3   26.20    5.72
  -5   1  -2  573.18   44.75
  -5   1  -2  580.96   35.10
  -5   1  -2  686.75   40.46
  -5   1  -2  536.18   51.75
  -5   1  -1   14.99    8.74
  -5   1  -1   22.70    7.97
  -5   1  -1   17.24    5.24
  -5   1   0 1465.97   89.64
  -5   1   0 1389.71   68.30
  -5   1   0 1610.37   74.89
  -5   1   0 1560.22   57.24
  -5   1   0 1752.07   59.30
  -5   1   1   80.84   11.32
  -5   1   1   75.51   15.77
  -5   1   1   90.18   16.51
  -5   1   1   84.45   20.71
  -5   1   1   68.62   10.42
  -5   1   1   83.07   10.56
  -5   1   2  534.33   35.79
  -5   1   2  469.20   40.20
  -5   1   2  543.73   27.92
  -5   1   2  483.10   49.14
  -5   1   2  540.14   27.21
  -5   1   2  463.26   30.92
  -5   1   2  533.89   41.56
  -5   1   3  345.68   29.45
  -5   1   3  322.82   32.57
  -5   1   3  319.47   20.75
  -5   1   3  339.56   19.27
  -5   1   3  370.09   42.34
  -5   1   4   52.56   16.50
  -5   1   4   62.46   13.14
  -5   1   4   53.46   13.52
  -5   1   4   40.86    5.01
  -5   1   4   46.46    9.92
  -5   1   4   47.58    8.10
  -5   1   4   46.33    5.00
  -5   1   5   38.32   10.34
  -5   1   5   41.70   13.03
  -5   1   5   44.07    8.01
  -5   1   5   45.94   12.68
  -5   1   5   41.48   15.51
  -5   1   6    7.04    8.55
  -5   1   6    3.27    2.53
  -5   1   6    0.41    1.63
  -5   1   6    4.12    3.35
  -5   1   6    2.75    2.62
  -5   1   7  355.18   41.93
  -5   1   7  298.65   23.40
  -5   1   7  287.89   25.07
  -5   1   7  320.23   37.33
  -5   1   7  363.13   33.25
  -5   1   8  132.21   24.69
  -5   1   8  153.22   27.62
  -5   1   8  162.81   22.90
  -5   1   8  124.87   17.38
  -5   1   9   43.95   13.95
  -5   1   9   39.51   15.34
  -5   1   9   52.69   13.58
  -5   1  10  198.79   33.22
  -5   1  10  210.18   28.23
  -5   1  11   46.64   14.44
  -5   1  12  237.45   33.96
  -5   1  13   21.97   10.78
  -5   2 -13  149.96   29.68
  -5   2 -12    3.26    4.15
  -5   2 -11  135.58   25.82
  -5   2 -11  138.49   26.86
  -5   2 -10   20.74   11.41
  -5   2 -10    6.44    7.69
  -5   2  -9  131.02   26.32
  -5   2  -9  119.65   23.61
  -5   2  -8   24.72    9.64
  -5   2  -8   34.33   11.88
  -5   2  -8   18.57   11.35
  -5   2  -8   23.66   10.12
  -5   2  -7  461.93   41.06
  -5   2  -7  505.90   43.87
  -5   2  -7  536.14   38.56
  -5   2  -7  491.08   29.35
  -5   2  -7  480.70   50.01
  -5   2  -7  463.04   43.71
  -5   2  -6  664.49   47.00
  -5   2  -6  849.59   47.34
  -5   2  -6  789.10   65.96
  -5   2  -6  778.66   55.01
  -5   2  -6  805.34   39.75
  -5   2  -6  844.49   54.59
  -5   2  -5   24.46    8.48
  -5   2  -5   15.01    5.31
  -5   2  -5   20.96    8.49
  -5   2  -5   22.47    6.32
  -5   2  -4 1238.52   66.19
  -5   2  -4 1326.63   57.76
  -5   2  -4 1406.34   59.93
  -5   2  -4 1326.47   62.40
  -5   2  -3    6.29    3.94
  -5   2  -3    6.54    2.83
  -5   2  -3    1.72    0.73
  -5   2  -2  530.91   36.97
  -5   2  -2  528.86   32.24
  -5   2  -2  565.81   38.08
  -5   2  -1  255.82   26.06
  -5   2  -1  200.40   20.84
  -5   2  -1  231.56   18.51
  -5   2   0  281.30   17.99
  -5   2   0  265.38   27.73
  -5   2   0  266.87   23.54
  -5   2   1  139.14   10.07
  -5   2   1  155.77   20.94
  -5   2   1  154.58   18.55
  -5   2   1  146.40   16.60
  -5   2   1  110.71   12.26
  -5   2   2  820.91   47.07
  -5   2   2  747.36   37.48
  -5   2   3  334.66   30.21
  -5   2   3  283.13   21.83
  -5   2   3  290.83   24.31
  -5   2   4  770.74   49.14
  -5   2   4  898.91   33.22
  -5   2   4  848.28   48.24
  -5   2   5  742.74   48.98
  -5   2   5  826.36   51.13
  -5   2   6   36.63   11.62
  -5   2   6   54.47   17.30
  -5   2   6   29.34    4.46
  -5   2   6   34.99   10.45
  -5   2   6   34.63    5.10
  -5   2   7   65.77   16.35
  -5   2   7   58.00   16.73
  -5   2   7   63.27    8.67
  -5   2   8  108.69   20.81
  -5   2   8  160.92   29.14
  -5   2   8  109.69   13.14
  -5   2   9   -4.01    1.37
  -5   2   9    4.15    2.84
  -5   2  10   74.44   17.43
  -5   2  10   71.15   20.30
  -5   2  11  100.39   21.81
  -5   2  12  233.13   33.76
  -5   2  13   45.47   16.67
  -5   3 -12    7.55    6.39
  -5   3 -11  290.44   40.34
  -5   3 -11  218.61   35.23
  -5   3 -10    4.56    2.67
  -5   3 -10    7.83    7.20
  -5   3  -9  298.97   38.13
  -5   3  -9  328.26   43.54
  -5   3  -8   23.57   12.06
  -5   3  -8    4.29    0.77
  -5   3  -7   50.55   14.94
  -5   3  -7   37.10   10.81
  -5   3  -6   11.64    6.27
  -5   3  -6    5.69    4.12
  -5   3  -6    6.12    4.79
  -5   3  -5   36.67   11.58
  -5   3  -5   44.52    9.69
  -5   3  -5   42.72    7.89
  -5   3  -5   37.43   10.45
  -5   3  -4  216.36   19.95
  -5   3  -4  200.31   25.78
  -5   3  -4  134.91   14.24
  -5   3  -3  199.90   20.01
  -5   3  -3  189.88   24.92
  -5   3  -3  123.86   11.38
  -5   3  -2  631.29   38.39
  -5   3  -2  618.48   44.75
  -5   3  -1  728.21   43.24
  -5   3  -1  731.63   48.31
  -5   3   0  119.10   20.23
  -5   3   0  186.02   21.66
  -5   3   1  221.55   26.88
  -5   3   1  257.05   26.60
  -5   3   2  260.72   29.52
  -5   3   2  269.38   25.92
  -5   3   3  156.81   23.30
  -5   3   3  170.75   17.68
  -5   3   4   24.71    9.28
  -5   3   4   24.13    6.31
  -5   3   5   74.38   16.60
  -5   3   5   82.57   10.13
  -5   3   6  217.17   29.12
  -5   3   7   14.35    7.76
  -5   3   8   67.12   16.33
  -5   3   8   80.15   21.38
  -5   3   9  141.13   28.57
  -5   3   9  132.20   25.62
  -5   3  10  316.43   41.50
  -5   3  10  492.90   52.69
  -5   3  11   67.55   19.66
  -5   3  12  244.75   37.58
  -5   4 -11  305.95   45.60
  -5   4 -10   26.72   13.57
  -5   4  -9  133.73   27.93
  -5   4  -8   26.04   12.28
  -5   4  -7  157.37   28.63
  -5   4  -6  448.29   46.95
  -5   4  -5  123.09   24.77
  -5   4  -4  194.67   18.85
  -5   4  -4  232.65   32.96
  -5   4  -3  513.84   52.89
  -5   4  -3  961.29   46.73
  -5   4  -2   34.11   13.34
  -5   4  -2   54.86   10.95
  -5   4  -1   87.85   20.63
  -5   4  -1  128.54   18.86
  -5   4   0  248.83   26.41
  -5   4   0  180.67   28.46
  -5   4   1  472.54   39.78
  -5   4   2  295.52   33.89
  -5   4   2  248.89   26.58
  -5   4   3  357.46   39.96
  -5   4   3  395.31   31.60
  -5   4   4   21.49    9.89
  -5   4   4   10.12    7.38
  -5   4   5  242.60   32.71
  -5   4   5  294.84   24.80
  -5   4   6  410.39   43.89
  -5   4   7  427.95   44.99
  -5   4   8   69.81   19.54
  -5   4   9    9.30    4.41
  -5   4  10   68.45   19.05
  -5   4  10  113.93   26.17
  -5   4  11   54.02   18.47
  -5   5  -9   43.52   18.94
  -5   5  -8   23.24   16.60
  -5   5  -7   -0.44    4.58
  -5   5  -6   39.83   17.87
  -5   5  -5   23.39   13.33
  -5   5  -4  174.20   34.33
  -5   5  -3    6.43    6.03
  -5   5  -2  144.67   28.08
  -5   5  -1  798.12   61.86
  -5   5   0   90.98   19.27
  -5   5   1  484.68   42.68
  -5   5   2  186.89   25.29
  -5   5   2  215.67   30.46
  -5   5   3  573.65   53.15
  -5   5   3  526.78   42.05
  -5   5   4   73.03   14.54
  -5   5   4   78.37   20.44
  -5   5   5  175.77   30.04
  -5   5   5  239.19   26.34
  -5   5   6   43.03   14.97
  -5   5   7    6.67    7.85
  -5   5   8  208.71   34.77
  -5   5   9   45.88   16.12
  -5   5  10  223.45   37.68
  -5   6  -8  218.69   45.69
  -5   6  -7   20.73   14.20
  -5   6  -6  125.93   33.12
  -5   6  -5   33.53   15.97
  -5   6  -4  130.85   29.61
  -5   6  -3  327.88   42.99
  -5   6  -2  274.92   37.68
  -5   6  -1   70.81   18.24
  -5   6   0  135.91   25.01
  -5   6   1  550.93   49.86
  -5   6   2   99.01   23.12
  -5   6   2  101.97   20.64
  -5   6   3  294.60   39.87
  -5   6   3  220.05   29.38
  -5   6   4  216.76   28.78
  -5   6   4  162.54   31.53
  -5   6   5   62.51   19.64
  -5   6   6   33.85   14.57
  -5   6   7   59.15   20.12
  -5   6   8   13.27    8.13
  -5   7  -6  257.76   44.81
  -5   7  -5   67.37   22.19
  -5   7  -4   34.42   12.90
  -5   7  -3   44.11   15.55
  -5   7  -2   13.35   10.17
  -5   7  -1  176.00   31.55
  -5   7   0    7.14    8.62
  -5   7   1  229.72   34.75
  -5   7   2  151.85   29.23
  -5   7   2  166.37   28.54
  -5   7   3  179.07   32.51
  -5   7   3  156.49   27.04
  -5   7   4   10.22   10.10
  -5   7   4    8.80    5.21
  -5   7   5   57.09   18.66
  -5   7   6   55.01   19.65
  -5   8  -3   21.41   10.74
  -5   8  -2    2.21    4.16
  -5   8  -1  161.13   31.80
  -5   8   0   51.09   17.51
  -5   8   1   98.54   24.12
  -5   8   2   42.46   16.12
  -5   8   3  171.16   31.79
  -4  -9  -4   75.04   23.25
  -4  -9  -3  212.38   39.11
  -4  -9  -2   30.15   14.29
  -4  -9  -1   19.80   11.07
  -4  -9   0  104.33   28.94
  -4  -8  -8   17.53   11.87
  -4  -8  -7  174.98   34.76
  -4  -8  -6    1.68    9.92
  -4  -8  -5  201.31   36.42
  -4  -8  -4   26.47   15.32
  -4  -8  -3   69.58   21.54
  -4  -8  -2  278.08   42.62
  -4  -8  -1   91.41   24.06
  -4  -8   0  178.45   35.26
  -4  -8   1   22.99   11.45
  -4  -8   2  164.22   35.26
  -4  -8   3   95.40   27.31
  -4  -8   4   47.59   19.45
  -4  -8   5  207.16   40.72
  -4  -8   6    2.31    2.82
  -4  -7 -10   74.59   22.60
  -4  -7  -9  234.12   39.04
  -4  -7  -8   16.96   10.31
  -4  -7  -7  175.31   32.89
  -4  -7  -6   87.18   23.17
  -4  -7  -5  279.79   41.57
  -4  -7  -4  168.93   30.79
  -4  -7  -3  354.43   44.97
  -4  -7  -2  253.46   37.97
  -4  -7  -1   63.81   19.74
  -4  -7   0  795.40   70.41
  -4  -7   1   -3.91    3.59
  -4  -7   2  773.87   71.59
  -4  -7   3  270.21   41.91
  -4  -7   4    0.82    7.15
  -4  -7   5  115.99   27.55
  -4  -7   6   22.63   13.12
  -4  -7   6   20.15   13.31
  -4  -7   7   -2.37    5.31
  -4  -7   7   -2.21    3.33
  -4  -7   8   11.67    9.68
  -4  -6 -11   61.68   20.01
  -4  -6 -10  133.69   28.81
  -4  -6  -9  118.80   27.13
  -4  -6  -8   31.69   13.99
  -4  -6  -7  602.53   58.01
  -4  -6  -6   96.82   22.48
  -4  -6  -5  352.60   42.84
  -4  -6  -4  637.84   58.54
  -4  -6  -3   17.30    9.32
  -4  -6  -2  305.04   39.27
  -4  -6  -1    8.47    5.77
  -4  -6   0  235.09   35.50
  -4  -6   1  168.83   30.51
  -4  -6   2   91.03   22.57
  -4  -6   3  442.29   51.15
  -4  -6   4  275.23   40.26
  -4  -6   5  244.50   37.88
  -4  -6   6   68.49   20.64
  -4  -6   6   71.94   21.72
  -4  -6   7  318.67   45.93
  -4  -6   7  331.94   55.78
  -4  -6   8    4.01    4.05
  -4  -6   8    5.00    8.05
  -4  -6   9   14.33   10.17
  -4  -6   9   19.17   14.87
  -4  -5 -12  104.23   25.25
  -4  -5 -11  140.16   28.17
  -4  -5 -10   67.63   19.57
  -4  -5  -9  827.80   67.30
  -4  -5  -8   28.09   11.67
  -4  -5  -7  877.80   67.35
  -4  -5  -6   97.80   21.71
  -4  -5  -5   25.12   10.65
  -4  -5  -4    2.71    0.47
  -4  -5  -3   82.95   19.39
  -4  -5  -2   94.20   20.03
  -4  -5  -1   23.40   11.03
  -4  -5   0  932.94   67.66
  -4  -5   1  163.67   27.81
  -4  -5   2  323.72   39.81
  -4  -5   3  108.62   22.83
  -4  -5   4    7.40    8.38
  -4  -5   5  150.28   28.11
  -4  -5   6   53.22   17.74
  -4  -5   6   43.20   14.90
  -4  -5   7   36.38   15.12
  -4  -5   7   29.29   13.38
  -4  -5   8   48.04   17.36
  -4  -5   8   67.94   19.56
  -4  -5   9   94.61   26.44
  -4  -5  10  127.63   31.54
  -4  -4 -13  188.84   33.87
  -4  -4 -12   18.50   10.92
  -4  -4 -11  205.86   32.81
  -4  -4 -10    7.44    6.88
  -4  -4  -9  262.58   35.30
  -4  -4  -8   42.05   13.68
  -4  -4  -8   58.41   10.99
  -4  -4  -7  147.42   25.44
  -4  -4  -7  119.87   16.72
  -4  -4  -6  477.43   45.90
  -4  -4  -5  341.43   37.80
  -4  -4  -4 1422.37   79.89
  -4  -4  -3   23.79   10.45
  -4  -4  -2 1696.61   89.05
  -4  -4  -2 1437.16   79.03
  -4  -4  -1  253.26   31.17
  -4  -4  -1  231.39   29.86
  -4  -4   0  319.96   35.37
  -4  -4   0  333.15   34.61
  -4  -4   1  218.96   27.34
  -4  -4   1  221.74   29.84
  -4  -4   2  259.35   29.01
  -4  -4   2  259.92   32.43
  -4  -4   3  290.30   34.65
  -4  -4   3  344.55   32.87
  -4  -4   4   65.61   14.43
  -4  -4   4    1.26    2.57
  -4  -4   5  209.39   28.42
  -4  -4   5  273.33   35.14
  -4  -4   6  112.53   20.83
  -4  -4   6  108.16   22.84
  -4  -4   6   93.55   22.84
  -4  -4   7  239.56   35.08
  -4  -4   7  242.12   37.89
  -4  -4   7  228.48   25.62
  -4  -4   8  825.52   71.27
  -4  -4   9   80.85   22.26
  -4  -4  10  314.27   47.41
  -4  -4  11    8.05    3.40
  -4  -3 -13   53.42   18.18
  -4  -3 -12   54.33   18.02
  -4  -3 -11  286.08   38.68
  -4  -3 -10   93.36   21.21
  -4  -3  -9  237.82   33.69
  -4  -3  -9  210.42   21.71
  -4  -3  -8  110.37   21.53
  -4  -3  -8   99.89   15.09
  -4  -3  -8   56.60   14.85
  -4  -3  -7  224.52   24.39
  -4  -3  -7  239.86   31.16
  -4  -3  -7  212.63   22.43
  -4  -3  -6  108.35   16.12
  -4  -3  -6  140.25   23.34
  -4  -3  -5   50.07   13.31
  -4  -3  -4  789.47   54.30
  -4  -3  -3    8.82    6.68
  -4  -3  -3    5.57    4.45
  -4  -3  -2 3518.14  126.48
  -4  -3  -2 3448.00  139.52
  -4  -3  -1  427.80   38.04
  -4  -3  -1  549.67   45.56
  -4  -3  -1  460.85   39.03
  -4  -3   0 2690.23  105.96
  -4  -3   0 2521.27  104.30
  -4  -3   1 2465.54   94.42
  -4  -3   1 2230.45   97.92
  -4  -3   2    9.69    6.02
  -4  -3   2    4.33    3.13
  -4  -3   3  297.62   27.19
  -4  -3   3  275.44   30.73
  -4  -3   4   33.86    8.81
  -4  -3   4   42.59   11.93
  -4  -3   5    4.89    2.38
  -4  -3   5    6.89    5.01
  -4  -3   5    1.37    0.73
  -4  -3   6   37.53    4.36
  -4  -3   6   64.15   13.30
  -4  -3   6   89.08   18.68
  -4  -3   6   91.01   21.11
  -4  -3   7   73.06    8.96
  -4  -3   7   97.13   13.48
  -4  -3   7   88.06   21.04
  -4  -3   8   98.18   23.45
  -4  -3   8  106.50   13.85
  -4  -3   9   68.15   20.62
  -4  -3  10  518.56   58.80
  -4  -3  11   30.71   14.62
  -4  -3  12  340.00   52.13
  -4  -2 -14   45.49   17.49
  -4  -2 -13  368.20   47.70
  -4  -2 -12    8.37    7.22
  -4  -2 -11  266.17   36.92
  -4  -2 -10   46.74   14.41
  -4  -2  -9  246.81   30.07
  -4  -2  -9  326.97   37.00
  -4  -2  -8   10.46    5.61
  -4  -2  -8   18.26    7.72
  -4  -2  -7  191.84   26.26
  -4  -2  -7  150.85   20.24
  -4  -2  -6  424.65   32.52
  -4  -2  -6  520.37   42.47
  -4  -2  -5    5.65    4.36
  -4  -2  -5    1.22    1.50
  -4  -2  -4 2219.74   91.10
  -4  -2  -4 2020.07   64.56
  -4  -2  -3  247.62   26.88
  -4  -2  -2 2707.36  101.82
  -4  -2  -1 3816.43  125.96
  -4  -2   0 1469.34   70.32
  -4  -2   0 1393.13   64.79
  -4  -2   1  299.12   29.01
  -4  -2   1  261.80   26.27
  -4  -2   2  167.77   12.11
  -4  -2   2  165.23   18.87
  -4  -2   2  151.15   20.63
  -4  -2   3  455.85   21.89
  -4  -2   3  468.86   37.23
  -4  -2   3  499.31   31.36
  -4  -2   4   35.40    7.50
  -4  -2   4   25.96    8.24
  -4  -2   4   32.21    9.68
  -4  -2   4   16.91    4.12
  -4  -2   5  551.97   40.05
  -4  -2   5  559.10   48.36
  -4  -2   5  505.02   27.49
  -4  -2   5  497.85   40.95
  -4  -2   6  197.57   29.39
  -4  -2   6  191.74   18.01
  -4  -2   6  195.66   21.28
  -4  -2   6  218.65   17.52
  -4  -2   7   40.27   13.44
  -4  -2   7   28.56    8.34
  -4  -2   7   35.91    8.84
  -4  -2   7   44.23    7.14
  -4  -2   8  298.12   38.87
  -4  -2   8  262.82   24.54
  -4  -2   8  249.93   27.64
  -4  -2   9  363.89   44.84
  -4  -2   9  327.46   33.38
  -4  -2  10    3.16    6.37
  -4  -2  10    4.50    3.28
  -4  -2  11   11.05    7.59
  -4  -2  11    8.41    5.71
  -4  -2  12  146.43   27.52
  -4  -2  12  149.23   33.28
  -4  -2  13   -7.95    4.46
  -4  -2  13   17.92   10.80
  -4  -2  14   36.27   15.27
  -4  -1 -14   65.69   20.90
  -4  -1 -13  246.05   38.69
  -4  -1 -12   99.94   23.43
  -4  -1 -11  953.31   70.61
  -4  -1 -10   10.37    5.32
  -4  -1 -10    7.92    5.90
  -4  -1  -9   42.82   11.29
  -4  -1  -9   50.49   12.86
  -4  -1  -9   81.94   18.55
  -4  -1  -8  188.06   23.75
  -4  -1  -8  238.88   29.95
  -4  -1  -8  212.94   25.61
  -4  -1  -7   17.43    6.99
  -4  -1  -7   19.00    8.67
  -4  -1  -7    9.16    5.74
  -4  -1  -6   28.92    8.45
  -4  -1  -6   36.00   10.21
  -4  -1  -5    3.65    3.85
  -4  -1  -5    2.05    2.29
  -4  -1  -4  693.85   31.65
  -4  -1  -4  852.30   49.01
  -4  -1  -3  386.38   31.25
  -4  -1  -3  377.27   17.94
  -4  -1  -2 1038.77   53.01
  -4  -1  -1  120.30   16.49
  -4  -1   0   61.63   11.63
  -4  -1   0   47.33    8.36
  -4  -1   1 2422.46   86.44
  -4  -1   1 2328.94   75.48
  -4  -1   2   21.43    6.91
  -4  -1   2   30.07    4.41
  -4  -1   2   10.98    4.05
  -4  -1   2   14.78    8.99
  -4  -1   2    9.55    4.62
  -4  -1   3  729.56   30.17
  -4  -1   3  741.28   33.26
  -4  -1   3  693.36   41.66
  -4  -1   4  604.41   45.89
  -4  -1   4  585.03   34.59
  -4  -1   4  576.59   26.44
  -4  -1   4  568.78   29.93
  -4  -1   4  684.40   44.65
  -4  -1   4  628.86   40.09
  -4  -1   5  345.75   24.51
  -4  -1   5  312.34   30.87
  -4  -1   5  374.04   36.26
  -4  -1   5  295.95   25.33
  -4  -1   5  294.94   28.34
  -4  -1   6  167.91   19.89
  -4  -1   6  202.70   27.50
  -4  -1   6  161.78   18.23
  -4  -1   7   64.56   12.68
  -4  -1   7   84.05   14.14
  -4  -1   7  100.66   20.25
  -4  -1   8  302.51   29.52
  -4  -1   8  297.14   29.18
  -4  -1   8  345.76   40.57
  -4  -1   9  183.24   30.43
  -4  -1   9  126.80   20.16
  -4  -1   9  160.80   22.22
  -4  -1  10  272.96   40.53
  -4  -1  10  242.01   29.74
  -4  -1  11   11.26    6.52
  -4  -1  11    8.21    9.55
  -4  -1  12   27.92   11.12
  -4  -1  12   27.63   11.30
  -4  -1  13   76.32   20.45
  -4  -1  13   66.49   21.35
  -4  -1  14  135.28   27.87
  -4   0 -15  156.83   30.59
  -4   0 -14   11.65    8.27
  -4   0 -13  357.75   47.29
  -4   0 -12   59.53   17.40
  -4   0 -11  154.32   28.47
  -4   0 -10  582.12   52.01
  -4   0  -9  261.22   32.51
  -4   0  -9  185.63   24.90
  -4   0  -8   46.83   12.23
  -4   0  -8   70.40   15.48
  -4   0  -8   89.79   18.49
  -4   0  -7   13.45    7.02
  -4   0  -7   17.03    8.30
  -4   0  -7    7.51    3.26
  -4   0  -6 1131.25   64.35
  -4   0  -6 1006.04   59.23
  -4   0  -5  124.20   17.91
  -4   0  -5  149.88   21.67
  -4   0  -5  114.97   13.04
  -4   0  -4  393.87   30.64
  -4   0  -4  335.64   31.40
  -4   0  -4  344.08   20.82
  -4   0  -3  595.92   25.42
  -4   0  -3  652.92   38.29
  -4   0  -2  387.18   17.08
  -4   0  -2  389.49   29.16
  -4   0  -2  408.18   28.75
  -4   0  -1 1384.37   57.03
  -4   0  -1 1605.81   64.60
  -4   0   0 1109.69   35.08
  -4   0   0 1231.32   54.65
  -4   0   1  916.46   32.07
  -4   0   1 1021.29   48.87
  -4   0   1  987.69   43.19
  -4   0   2  215.57   18.95
  -4   0   2  180.71   19.38
  -4   0   2  195.75   28.36
  -4   0   2  209.08   15.42
  -4   0   3 1952.58   91.24
  -4   0   3 1823.48   72.85
  -4   0   3 1762.38   75.07
  -4   0   3 1649.83   59.39
  -4   0   3 1818.54   66.03
  -4   0   3 1826.36   85.09
  -4   0   3 1758.63   55.08
  -4   0   4  243.41   26.34
  -4   0   4  243.63   20.06
  -4   0   4  217.92   28.09
  -4   0   4  247.79   24.82
  -4   0   4  242.58   21.37
  -4   0   4  272.70   32.23
  -4   0   5  206.14   28.15
  -4   0   5  260.80   31.60
  -4   0   5  210.50   24.80
  -4   0   5  236.54   21.35
  -4   0   5  206.87   20.95
  -4   0   5  202.91   23.50
  -4   0   5  225.09   26.08
  -4   0   6 1500.54   76.75
  -4   0   6 1487.08   80.19
  -4   0   6 1200.13   64.23
  -4   0   6 1282.74   58.54
  -4   0   7   40.46   13.38
  -4   0   7   40.16   13.30
  -4   0   7   32.95    9.05
  -4   0   7   33.59    9.61
  -4   0   8  177.72   22.72
  -4   0   8  196.73   25.70
  -4   0   8  143.45   19.94
  -4   0   9  185.66   24.87
  -4   0   9  152.68   21.63
  -4   0   9  204.27   32.78
  -4   0  10   65.37   18.49
  -4   0  10   46.46   12.73
  -4   0  11   28.94    9.89
  -4   0  11   34.15   13.87
  -4   0  12  199.86   29.63
  -4   0  13   92.22   21.59
  -4   0  14   16.49    9.29
  -4   1 -14   27.64   12.49
  -4   1 -13  205.29   33.26
  -4   1 -12   65.47   18.29
  -4   1 -11   60.63   16.66
  -4   1 -11   81.54   20.51
  -4   1 -10    8.75    6.96
  -4   1  -9    4.63    4.44
  -4   1  -9    6.75    6.00
  -4   1  -8  759.04   46.49
  -4   1  -8  643.75   52.14
  -4   1  -8  597.50   48.92
  -4   1  -8  749.84   53.79
  -4   1  -7    6.57    7.03
  -4   1  -7   17.92    6.29
  -4   1  -7    7.54    4.94
  -4   1  -6  536.93   40.63
  -4   1  -6  568.34   34.55
  -4   1  -5  345.92   34.21
  -4   1  -5  322.33   29.25
  -4   1  -5  282.54   33.48
  -4   1  -5  334.45   24.37
  -4   1  -4 1834.67   61.97
  -4   1  -4 1756.22   70.76
  -4   1  -4 1763.39   82.05
  -4   1  -3 1175.98   51.81
  -4   1  -3 1160.43   45.25
  -4   1  -3 1092.95   57.49
  -4   1  -2   35.04    7.25
  -4   1  -2   30.30    7.10
  -4   1  -1 2333.26   73.38
  -4   1  -1 2368.44   90.59
  -4   1  -1 2541.67   82.57
  -4   1   0  304.66   25.18
  -4   1   0  237.39   16.99
  -4   1   0  248.11   25.30
  -4   1   1 1589.43   66.60
  -4   1   1 1451.17   55.80
  -4   1   1 1439.28   66.78
  -4   1   1 1482.73   48.11
  -4   1   1 1475.90   51.63
  -4   1   2   26.78    4.83
  -4   1   2   25.80    4.78
  -4   1   2   25.23    6.26
  -4   1   2   17.04    6.27
  -4   1   2   17.48    7.46
  -4   1   2   31.30   11.85
  -4   1   2   22.25    6.65
  -4   1   2   25.44    7.16
  -4   1   3 1756.01   77.34
  -4   1   3 1637.43   63.71
  -4   1   3 1901.02   68.30
  -4   1   3 2077.83   94.08
  -4   1   3 1876.77   81.13
  -4   1   3 1855.54   54.04
  -4   1   4 1138.29   56.63
  -4   1   4 1089.92   62.05
  -4   1   4 1006.24   61.59
  -4   1   4 1108.60   43.28
  -4   1   5  409.18   34.27
  -4   1   5  341.90   33.51
  -4   1   5  394.36   39.43
  -4   1   5  442.82   40.04
  -4   1   5  369.81   24.09
  -4   1   5  381.10   33.34
  -4   1   5  365.25   30.26
  -4   1   6 1271.08   69.03
  -4   1   6 1158.52   61.13
  -4   1   6 1359.44   75.83
  -4   1   6 1146.41   47.30
  -4   1   6 1064.77   65.12
  -4   1   6 1210.64   70.99
  -4   1   7  123.19   19.24
  -4   1   7  157.81   24.81
  -4   1   7  156.16   24.67
  -4   1   7  146.85   16.13
  -4   1   7  109.93   20.13
  -4   1   8  421.37   43.28
  -4   1   8  349.52   33.86
  -4   1   8  337.26   27.85
  -4   1   8  444.36   41.83
  -4   1   9   95.39   21.26
  -4   1   9   90.09   17.55
  -4   1   9   61.78   16.04
  -4   1   9   72.25   12.82
  -4   1  10   38.07   11.07
  -4   1  11  230.71   31.36
  -4   1  12   55.52   15.92
  -4   1  13   70.23   17.75
  -4   1  14  116.26   24.79
  -4   2 -14    3.36    6.30
  -4   2 -13   19.16    9.77
  -4   2 -12   56.38   16.15
  -4   2 -11  200.82   27.86
  -4   2 -11  223.20   32.53
  -4   2 -10  246.06   31.69
  -4   2 -10  219.14   31.16
  -4   2  -9  184.94   27.93
  -4   2  -9  304.83   35.17
  -4   2  -8  189.63   26.83
  -4   2  -8  200.84   29.17
  -4   2  -8  147.03   23.80
  -4   2  -7   42.50   11.92
  -4   2  -7   47.94   11.45
  -4   2  -7   51.26   13.78
  -4   2  -7   41.92   11.68
  -4   2  -6  738.24   48.04
  -4   2  -6  737.50   49.48
  -4   2  -6  843.07   35.04
  -4   2  -6  790.59   52.10
  -4   2  -5   47.38    7.78
  -4   2  -5   29.85    9.30
  -4   2  -5   31.11    8.66
  -4   2  -5   32.13    9.36
  -4   2  -5   29.93    7.56
  -4   2  -4  369.54   29.38
  -4   2  -4  419.23   25.33
  -4   2  -4  331.76   30.33
  -4   2  -4  376.25   28.31
  -4   2  -3 1521.43   62.87
  -4   2  -3 1667.43   61.38
  -4   2  -2    8.78    4.15
  -4   2  -2   14.85    5.34
  -4   2  -2   16.80    5.23
  -4   2  -1  942.54   45.86
  -4   2  -1 1074.70   40.77
  -4   2  -1 1068.77   50.64
  -4   2   0   15.65    4.98
  -4   2   0   17.58    3.87
  -4   2   0   13.26    6.85
  -4   2   0   11.46    4.18
  -4   2   0   22.99    8.50
  -4   2   1 3773.74  104.57
  -4   2   1 3541.11  109.31
  -4   2   1 3472.38  123.98
  -4   2   1 3913.22  126.74
  -4   2   2  249.91   29.11
  -4   2   2  270.40   25.15
  -4   2   2  224.89   17.53
  -4   2   2  252.22   25.93
  -4   2   2  258.17   23.52
  -4   2   2  256.01   28.64
  -4   2   3  700.63   43.24
  -4   2   3  692.30   37.24
  -4   2   3  813.79   46.86
  -4   2   3  693.44   51.17
  -4   2   3  631.39   45.96
  -4   2   3  764.72   33.22
  -4   2   4  326.52   29.55
  -4   2   4  311.84   29.18
  -4   2   4  313.95   31.19
  -4   2   4  289.93   32.68
  -4   2   4  296.06   16.49
  -4   2   4  298.30   26.08
  -4   2   5   30.89    9.05
  -4   2   5   52.31   11.60
  -4   2   5   39.91    5.03
  -4   2   5   43.98   11.84
  -4   2   5   31.06    4.32
  -4   2   6   21.23    7.94
  -4   2   6   15.67    5.47
  -4   2   6   13.90    3.62
  -4   2   7    1.67    2.58
  -4   2   7   -3.24    5.06
  -4   2   7    9.44    8.53
  -4   2   7    2.59    4.51
  -4   2   8  161.72   16.58
  -4   2   8  191.45   28.56
  -4   2   8  183.92   26.41
  -4   2   9  140.33   24.67
  -4   2   9  177.16   27.47
  -4   2  10  331.52   37.56
  -4   2  10  405.23   40.38
  -4   2  11   88.30   20.81
  -4   2  12   28.96   12.42
  -4   2  13  168.50   29.30
  -4   3 -13  191.33   35.03
  -4   3 -12  117.98   25.96
  -4   3 -11   11.55    7.79
  -4   3 -11   19.50    9.21
  -4   3 -10   69.33   17.97
  -4   3  -9  186.54   29.04
  -4   3  -8  135.61   23.83
  -4   3  -8  150.56   23.02
  -4   3  -7   61.98   15.90
  -4   3  -7   32.48    4.01
  -4   3  -7   42.02   10.96
  -4   3  -6  497.87   43.04
  -4   3  -6  519.33   22.61
  -4   3  -6  451.34   34.59
  -4   3  -5  685.67   29.58
  -4   3  -5  719.69   46.30
  -4   3  -5  629.13   46.76
  -4   3  -5  547.92   35.14
  -4   3  -4   48.68    8.83
  -4   3  -4   50.29   13.82
  -4   3  -4   36.58    8.14
  -4   3  -3 1351.86   49.58
  -4   3  -3 1251.26   64.11
  -4   3  -2  148.20   16.11
  -4   3  -2  146.52   20.51
  -4   3  -1 1698.38   63.49
  -4   3  -1 1514.58   79.33
  -4   3  -1 1518.79   72.85
  -4   3   0   65.21   15.64
  -4   3   0   78.82   12.96
  -4   3   0   63.14   15.01
  -4   3   1  180.53   24.29
  -4   3   1  189.28   20.60
  -4   3   1  138.09   21.97
  -4   3   2  349.13   34.58
  -4   3   2  400.50   33.53
  -4   3   2  417.11   32.44
  -4   3   2  408.92   29.72
  -4   3   3  360.01   32.10
  -4   3   3  402.19   26.98
  -4   3   3  361.97   35.28
  -4   3   3  322.95   34.12
  -4   3   4  332.66   33.84
  -4   3   4  325.58   22.61
  -4   3   4  332.09   32.65
  -4   3   5   19.93    8.87
  -4   3   5   17.91    5.68
  -4   3   5   28.59   12.19
  -4   3   6 1839.69   86.76
  -4   3   6 1923.17   90.62
  -4   3   7   54.49    6.78
  -4   3   7   81.18   18.42
  -4   3   8  275.17   33.65
  -4   3   9   62.82   17.02
  -4   3  10   73.76   19.52
  -4   3  10   68.16   17.38
  -4   3  11   71.18   20.65
  -4   3  12   33.32   14.13
  -4   3  13    6.61    5.61
  -4   4 -12  337.39   49.50
  -4   4 -11   57.40   18.96
  -4   4 -10  249.94   39.04
  -4   4  -9   25.25   13.06
  -4   4  -8  305.85   34.25
  -4   4  -8  380.00   44.46
  -4   4  -7   53.68   13.03
  -4   4  -7   82.30   20.66
  -4   4  -6    7.51    6.53
  -4   4  -5   57.35   16.32
  -4   4  -4  253.75   33.98
  -4   4  -3   57.23   16.80
  -4   4  -2   -3.18    3.60
  -4   4  -1  667.60   53.67
  -4   4   0  485.08   42.04
  -4   4   1  712.53   46.78
  -4   4   2  859.25   49.09
  -4   4   2  780.67   54.27
  -4   4   3   38.32   11.30
  -4   4   3   35.87   11.97
  -4   4   3   36.80    8.98
  -4   4   4  884.45   58.12
  -4   4   4  914.81   48.33
  -4   4   4  975.92   65.61
  -4   4   5  256.82   32.18
  -4   4   5  271.39   24.94
  -4   4   5  240.71   28.05
  -4   4   6   40.88   12.25
  -4   4   6   70.74   18.37
  -4   4   7  154.38   25.84
  -4   4   7  199.07   27.97
  -4   4   8  439.15   45.56
  -4   4   9  181.73   29.33
  -4   4  10  201.04   32.62
  -4   4  11  229.44   37.18
  -4   4  12  109.96   26.70
  -4   5 -11   -2.62    7.42
  -4   5 -10  176.90   40.23
  -4   5  -9   17.32   12.41
  -4   5  -8  115.45   29.18
  -4   5  -7  102.01   27.99
  -4   5  -6  207.76   38.44
  -4   5  -5  519.43   57.45
  -4   5  -4   21.74   12.33
  -4   5  -3 1140.93   80.02
  -4   5  -2    5.59    5.94
  -4   5  -1  529.75   46.43
  -4   5   0   19.24    9.82
  -4   5   1  564.85   44.85
  -4   5   2 1049.84   60.89
  -4   5   3   17.28    8.40
  -4   5   3   17.27   13.06
  -4   5   4  768.12   49.17
  -4   5   4  528.99   53.71
  -4   5   5  229.58   33.80
  -4   5   5  280.15   29.59
  -4   5   5  207.41   28.19
  -4   5   6  530.11   51.75
  -4   5   6  547.38   43.08
  -4   5   7  399.49   46.59
  -4   5   8   93.00   22.15
  -4   5   9  201.49   34.14
  -4   5  10    3.44    7.04
  -4   5  11   77.46   22.42
  -4   6  -9   22.15   17.08
  -4   6  -8   49.98   22.45
  -4   6  -7  131.06   31.35
  -4   6  -6    1.40    2.05
  -4   6  -5  238.67   38.45
  -4   6  -4   98.02   23.19
  -4   6  -3  240.83   35.11
  -4   6  -2    3.36    6.73
  -4   6  -1  952.60   68.00
  -4   6   0  508.21   47.27
  -4   6   1   58.33   14.96
  -4   6   2  328.03   36.24
  -4   6   3  183.14   26.52
  -4   6   3  201.61   30.54
  -4   6   4  293.64   33.71
  -4   6   4  196.93   34.73
  -4   6   5   44.96   16.15
  -4   6   5   20.09    7.95
  -4   6   6  105.50   24.95
  -4   6   6  122.95   23.02
  -4   6   7   52.00   17.90
  -4   6   8   17.40   11.17
  -4   6   9   71.88   22.25
  -4   7  -7  320.29   48.45
  -4   7  -6   22.95   13.55
  -4   7  -5  233.36   39.27
  -4   7  -4    6.55   10.37
  -4   7  -3  215.51   35.16
  -4   7  -2  148.98   29.00
  -4   7  -1   55.44   16.62
  -4   7   0  113.88   23.46
  -4   7   1   41.94   14.04
  -4   7   2  345.45   41.07
  -4   7   3  116.39   23.58
  -4   7   3  130.58   27.18
  -4   7   4   77.14   24.47
  -4   7   4  200.40   30.66
  -4   7   5   76.14   20.73
  -4   7   5   82.99   23.96
  -4   7   6   57.81   20.55
  -4   7   6   70.08   18.63
  -4   7   7  110.90   28.02
  -4   7   8   11.10   13.33
  -4   8  -4   28.74   14.23
  -4   8  -3  105.58   27.11
  -4   8  -2  123.55   28.34
  -4   8  -1   48.02   15.69
  -4   8   0  196.50   34.34
  -4   8   1   10.25    9.16
  -4   8   2  159.09   30.43
  -4   8   3  219.57   38.08
  -4   8   3  203.45   33.97
  -4   8   4   56.68   23.13
  -4   8   4  136.59   28.19
  -4   8   5   78.87   23.36
  -4   9   0  367.57   51.49
  -4   9   1    8.75    9.20
  -4   9   2   63.06   20.12
  -4   9   3   16.57    9.48
  -4   9   4   22.89   12.31
  -3  -9  -8   41.19   15.03
  -3  -9  -7   50.63   18.97
  -3  -9  -6  109.84   26.19
  -3  -9  -5   -3.50    7.24
  -3  -9  -4  137.98   30.69
  -3  -9  -3   10.00    9.99
  -3  -9  -2  213.86   37.36
  -3  -9  -1   -0.92    6.31
  -3  -9   0   94.74   26.34
  -3  -9   1   17.94   11.08
  -3  -9   2    2.38    5.17
  -3  -9   3  106.10   29.13
  -3  -9   5   14.93    9.59
  -3  -8 -10    9.32    9.30
  -3  -8  -9   19.72    9.94
  -3  -8  -8  143.69   29.26
  -3  -8  -7   14.03    8.48
  -3  -8  -6  234.46   37.49
  -3  -8  -5   17.42    9.85
  -3  -8  -4  404.59   49.59
  -3  -8  -3  115.48   26.31
  -3  -8  -2  590.92   59.48
  -3  -8  -1   63.39   19.86
  -3  -8   0  388.38   49.72
  -3  -8   1  509.70   58.43
  -3  -8   2  135.07   30.48
  -3  -8   3  120.76   29.02
  -3  -8   4  277.16   44.30
  -3  -8   5    3.44    8.90
  -3  -8   5    6.01    5.35
  -3  -8   6  155.53   34.02
  -3  -8   6  131.75   31.81
  -3  -8   7   29.34   14.77
  -3  -7 -11   45.58   15.70
  -3  -7 -10    5.64    7.47
  -3  -7  -9   88.20   22.59
  -3  -7  -8   72.96   20.50
  -3  -7  -7    8.24    7.79
  -3  -7  -6  879.53   70.23
  -3  -7  -5   80.16   20.51
  -3  -7  -4  575.93   56.09
  -3  -7  -3   63.26   18.13
  -3  -7  -2  294.33   39.38
  -3  -7  -1  457.80   50.06
  -3  -7   0   72.83   18.79
  -3  -7   1  385.68   47.18
  -3  -7   2  265.98   39.63
  -3  -7   3  519.89   56.75
  -3  -7   4    5.95    9.01
  -3  -7   5   82.86   23.35
  -3  -7   6  109.67   27.88
  -3  -7   6  161.63   33.24
  -3  -7   7    9.68    7.45
  -3  -7   7   50.94   19.77
  -3  -7   8  133.10   30.37
  -3  -7   8  176.52   37.64
  -3  -7   9   -4.13    4.55
  -3  -6 -13   54.44   16.91
  -3  -6 -12   13.16   10.61
  -3  -6 -11  324.51   42.23
  -3  -6 -10   32.15   14.05
  -3  -6  -9  325.95   41.64
  -3  -6  -8  980.06   72.48
  -3  -6  -7  135.47   25.60
  -3  -6  -6  204.00   30.83
  -3  -6  -5  194.09   29.78
  -3  -6  -4  379.89   42.17
  -3  -6  -3  181.08   28.64
  -3  -6  -2  188.68   29.04
  -3  -6  -1  414.58   44.49
  -3  -6   0   76.01   19.30
  -3  -6   1  552.08   52.58
  -3  -6   2   75.30   19.85
  -3  -6   3  303.95   39.19
  -3  -6   4  192.54   31.56
  -3  -6   5  172.75   31.30
  -3  -6   6   26.63   10.93
  -3  -6   6   31.45   13.22
  -3  -6   7    7.26    4.97
  -3  -6   7   -2.00    6.75
  -3  -6   8  141.66   29.96
  -3  -6   9   13.69    7.97
  -3  -6  10  197.65   39.48
  -3  -5 -13   97.47   23.27
  -3  -5 -12    4.19    8.35
  -3  -5 -11   90.04   21.97
  -3  -5 -10  108.74   23.20
  -3  -5  -9    9.47    5.94
  -3  -5  -8   74.50   18.21
  -3  -5  -7   81.05   18.16
  -3  -5  -6  860.01   62.28
  -3  -5  -5    8.53    4.60
  -3  -5  -4  320.27   36.25
  -3  -5  -3 1025.34   65.50
  -3  -5  -2   41.47   12.43
  -3  -5  -1  609.16   50.59
  -3  -5   0   46.44   13.97
  -3  -5   1  357.70   36.36
  -3  -5   1  372.65   39.57
  -3  -5   2    4.29    6.81
  -3  -5   2    4.06    3.78
  -3  -5   3   19.23    8.81
  -3  -5   4    5.12    6.04
  -3  -5   5  142.02   26.59
  -3  -5   6  495.52   36.51
  -3  -5   6  418.51   47.27
  -3  -5   6  426.34   48.82
  -3  -5   7   10.45    7.97
  -3  -5   7   13.32    9.14
  -3  -5   8 1007.63   79.42
  -3  -5   9  356.28   48.50
  -3  -5  10   81.36   24.69
  -3  -5  11  107.70   29.70
  -3  -4 -14   22.16   11.54
  -3  -4 -13  119.61   26.07
  -3  -4 -12   73.80   19.97
  -3  -4 -11   57.19   16.70
  -3  -4 -10  358.76   40.56
  -3  -4  -9    9.77    6.35
  -3  -4  -8  382.68   39.73
  -3  -4  -7   93.22   19.62
  -3  -4  -6  141.23   22.76
  -3  -4  -5  503.27   43.32
  -3  -4  -4  155.36   23.19
  -3  -4  -4  155.42   27.74
  -3  -4  -3  354.39   34.63
  -3  -4  -3  382.74   39.62
  -3  -4  -2  377.14   36.03
  -3  -4  -2  423.55   39.44
  -3  -4  -1 2561.88  106.21
  -3  -4  -1 2765.27  108.98
  -3  -4   0    9.44    6.60
  -3  -4   0   10.86    6.24
  -3  -4   1 1237.42   64.66
  -3  -4   1 1128.72   66.57
  -3  -4   2  542.96   41.20
  -3  -4   2  512.81   43.15
  -3  -4   3  460.49   37.37
  -3  -4   3  535.37   45.00
  -3  -4   4   78.00   15.78
  -3  -4   4   60.11   15.23
  -3  -4   5   44.04   13.09
  -3  -4   6  217.81   23.10
  -3  -4   6  133.51   21.61
  -3  -4   6  224.98   33.54
  -3  -4   7  170.81   22.79
  -3  -4   7  189.29   31.39
  -3  -4   7  209.09   12.03
  -3  -4   7  234.77   25.27
  -3  -4   8   14.16    8.95
  -3  -4   8    3.56    4.02
  -3  -4   8    7.13    5.40
  -3  -4   8    5.23    3.23
  -3  -4   9  154.74   15.46
  -3  -4   9  162.80   31.28
  -3  -4  10  183.74   35.19
  -3  -4  11  206.75   39.08
  -3  -4  12  139.18   34.01
  -3  -3 -16   46.25   15.11
  -3  -3 -15  260.69   36.44
  -3  -3 -14   90.08   24.07
  -3  -3 -13   86.45   21.93
  -3  -3 -12  310.16   40.39
  -3  -3 -11   83.86   19.45
  -3  -3 -10  148.21   25.09
  -3  -3 -10   69.72    9.53
  -3  -3  -9    7.92    6.44
  -3  -3  -9    2.88    1.86
  -3  -3  -8  159.02   15.34
  -3  -3  -8  133.74   23.82
  -3  -3  -8  193.45   26.73
  -3  -3  -7   11.08    6.17
  -3  -3  -7   10.41    4.36
  -3  -3  -7    2.73    3.63
  -3  -3  -6   50.02    8.96
  -3  -3  -6   45.93   10.26
  -3  -3  -6   50.46   13.18
  -3  -3  -5  649.13   36.45
  -3  -3  -5  769.40   50.44
  -3  -3  -4  912.65   54.54
  -3  -3  -4  907.40   45.64
  -3  -3  -3 6753.17  201.02
  -3  -3  -3 7541.69  191.31
  -3  -3  -2  244.28   25.87
  -3  -3  -1 6095.85  169.72
  -3  -3  -1 5009.33  166.42
  -3  -3   0  684.30   45.50
  -3  -3   0  647.30   43.65
  -3  -3   1  830.09   46.88
  -3  -3   1  767.43   49.12
  -3  -3   2   18.19    7.29
  -3  -3   2   14.62    5.99
  -3  -3   3   69.35   12.46
  -3  -3   3   80.84   15.46
  -3  -3   4 1259.76   68.27
  -3  -3   4 1176.97   56.51
  -3  -3   5  136.40   23.60
  -3  -3   5  136.27   16.99
  -3  -3   5   94.78   16.90
  -3  -3   6  600.25   39.33
  -3  -3   6  559.44   23.19
  -3  -3   6  589.29   50.96
  -3  -3   6  585.46   37.46
  -3  -3   7   23.70    6.80
  -3  -3   7   23.57    8.11
  -3  -3   7   26.17   10.96
  -3  -3   8  921.40   69.23
  -3  -3   8  801.09   42.59
  -3  -3   9   57.26   18.66
  -3  -3  10  152.88   30.50
  -3  -3  11  119.32   28.49
  -3  -3  12   11.90    8.79
  -3  -3  13  122.61   30.81
  -3  -2 -15   76.18   23.24
  -3  -2 -15   67.97   16.96
  -3  -2 -14    5.94    7.78
  -3  -2 -13  515.92   53.87
  -3  -2 -12  172.83   29.99
  -3  -2 -11  675.50   57.05
  -3  -2 -11  585.48   38.09
  -3  -2 -10  547.57   48.33
  -3  -2 -10  488.47   33.45
  -3  -2  -9   -1.12    2.81
  -3  -2  -9    4.18    5.76
  -3  -2  -9    4.41    2.97
  -3  -2  -8  112.51   14.84
  -3  -2  -8  140.15   21.86
  -3  -2  -8  100.52   18.50
  -3  -2  -7  304.25   24.58
  -3  -2  -7  305.13   32.34
  -3  -2  -7  334.11   29.82
  -3  -2  -6  508.24   35.90
  -3  -2  -6  625.77   43.68
  -3  -2  -6  508.01   32.64
  -3  -2  -5  272.04   23.67
  -3  -2  -5  269.97   27.58
  -3  -2  -5  277.99   23.18
  -3  -2  -4    5.15    2.70
  -3  -2  -4    7.62    3.33
  -3  -2  -4   10.89    4.54
  -3  -2  -3 1209.84   58.75
  -3  -2  -3 1208.12   52.86
  -3  -2  -2  113.28   16.16
  -3  -2  -2  110.30   14.80
  -3  -2  -1  476.33   33.72
  -3  -2  -1  402.60   35.12
  -3  -2  -1  510.16   34.90
  -3  -2   0  256.60   24.83
  -3  -2   0  323.22   28.74
  -3  -2   0  319.63   28.54
  -3  -2   1 1597.31   61.89
  -3  -2   1 1172.50   59.33
  -3  -2   2 2017.95   72.54
  -3  -2   2 2350.90   84.63
  -3  -2   3   43.48    8.20
  -3  -2   3   45.05    4.68
  -3  -2   3   51.23   11.26
  -3  -2   4  433.42   26.98
  -3  -2   4  415.15   20.15
  -3  -2   5  142.98   16.35
  -3  -2   5  119.23   15.08
  -3  -2   5  124.47   11.88
  -3  -2   6  767.27   47.00
  -3  -2   6  680.50   41.97
  -3  -2   6  757.36   35.13
  -3  -2   7    1.90    2.48
  -3  -2   7    6.12    6.32
  -3  -2   7    3.06    4.10
  -3  -2   7    0.26    2.47
  -3  -2   8  181.69   23.89
  -3  -2   8  214.93   23.59
  -3  -2   8  209.02   31.33
  -3  -2   9   17.25    8.36
  -3  -2   9   26.62   11.24
  -3  -2  10   85.17   18.51
  -3  -2  10   79.58   22.39
  -3  -2  11   91.27   24.08
  -3  -2  11   82.54   18.70
  -3  -2  12   45.93   14.90
  -3  -2  12   34.10   17.61
  -3  -2  13  283.54   39.34
  -3  -2  13  348.06   52.35
  -3  -2  14  236.89   36.90
  -3  -1 -16    4.50    6.19
  -3  -1 -14  299.80   43.75
  -3  -1 -14  286.36   32.03
  -3  -1 -13   97.79   23.85
  -3  -1 -12  465.49   49.60
  -3  -1 -11   74.24   18.41
  -3  -1 -10  540.77   48.01
  -3  -1  -9    6.39    3.12
  -3  -1  -9   10.16    4.88
  -3  -1  -8  476.03   38.53
  -3  -1  -8  469.99   40.49
  -3  -1  -7  127.59   17.52
  -3  -1  -7  147.43   20.86
  -3  -1  -7  164.51   20.28
  -3  -1  -6   58.21   12.55
  -3  -1  -6   48.92   10.49
  -3  -1  -6   55.55   10.87
  -3  -1  -5 2903.56   94.36
  -3  -1  -5 2810.97   87.17
  -3  -1  -4    6.81    2.71
  -3  -1  -4   18.01    6.48
  -3  -1  -4   13.75    4.98
  -3  -1  -3  696.55   27.94
  -3  -1  -3  741.09   40.49
  -3  -1  -2  470.48   17.80
  -3  -1  -2  473.08   32.03
  -3  -1  -2  520.62   32.55
  -3  -1  -1  690.42   37.14
  -3  -1  -1  607.62   36.40
  -3  -1   0  113.89   14.24
  -3  -1   0  131.07   11.66
  -3  -1   1   -0.25    0.78
  -3  -1   1    2.08    1.87
  -3  -1   1    2.25    2.66
  -3  -1   2  216.55   12.87
  -3  -1   2  200.20   14.79
  -3  -1   2  213.95   19.68
  -3  -1   2  208.92   16.58
  -3  -1   3  179.44   13.67
  -3  -1   3  193.88   19.61
  -3  -1   3  158.05   14.17
  -3  -1   3  169.52   12.97
  -3  -1   4 2916.36   84.03
  -3  -1   4 2871.76   85.78
  -3  -1   5    9.32    2.30
  -3  -1   5    7.44    3.14
  -3  -1   5    0.79    2.75
  -3  -1   5    7.33    5.46
  -3  -1   5   11.43    4.19
  -3  -1   6 1021.43   49.14
  -3  -1   6  845.33   48.92
  -3  -1   7 1033.69   53.37
  -3  -1   7 1075.91   55.13
  -3  -1   8  148.89   25.99
  -3  -1   8  127.83   18.57
  -3  -1   8  135.70   19.06
  -3  -1   9  207.03   32.30
  -3  -1   9  170.24   22.79
  -3  -1  10  197.34   32.79
  -3  -1  10  184.50   25.68
  -3  -1  11   70.38   16.99
  -3  -1  11   90.90   23.91
  -3  -1  12   -2.98    4.55
  -3  -1  12    3.84    8.97
  -3  -1  13   63.34   17.67
  -3  -1  14    3.02    5.50
  -3   0 -16  125.97   26.34
  -3   0 -15  136.66   27.00
  -3   0 -14   77.56   20.31
  -3   0 -13   -1.32    1.49
  -3   0 -12  114.58   24.48
  -3   0 -11   13.02    7.68
  -3   0 -10   63.69   16.10
  -3   0  -9  625.50   46.74
  -3   0  -9  684.29   51.26
  -3   0  -8  129.23   19.33
  -3   0  -8  183.97   25.10
  -3   0  -7 1103.70   60.22
  -3   0  -7 1029.64   57.26
  -3   0  -7  947.85   51.77
  -3   0  -6   94.69   15.59
  -3   0  -6   64.10   12.89
  -3   0  -6   82.64   12.76
  -3   0  -5  518.60   29.33
  -3   0  -5  530.94   35.76
  -3   0  -5  530.95   36.20
  -3   0  -5  500.31   37.72
  -3   0  -4   -1.28    2.12
  -3   0  -4    1.50    2.01
  -3   0  -4    0.72    2.12
  -3   0  -4    5.88    5.59
  -3   0  -3 2082.95   58.43
  -3   0  -3 2126.54   72.52
  -3   0  -3 2004.02   77.03
  -3   0  -3 1857.71   81.43
  -3   0  -2  207.27   18.43
  -3   0  -2  197.74   11.34
  -3   0  -2  218.06   18.52
  -3   0  -2  167.37   21.29
  -3   0  -1   16.73    5.34
  -3   0  -1   12.89    4.31
  -3   0   0  254.74   18.26
  -3   0   0  259.13   19.56
  -3   0   0  211.71   12.08
  -3   0   1   93.49    8.30
  -3   0   1  109.29   12.75
  -3   0   1  115.17   11.94
  -3   0   2 2541.42   71.56
  -3   0   2 2449.09   75.26
  -3   0   2 2504.85   81.69
  -3   0   3  327.72   29.90
  -3   0   3  406.65   29.88
  -3   0   3  348.44   14.15
  -3   0   3  452.49   35.94
  -3   0   3  340.83   22.51
  -3   0   3  369.26   26.56
  -3   0   3  369.87   23.49
  -3   0   4 1752.68   62.89
  -3   0   4 1661.55   76.79
  -3   0   4 2082.01   82.77
  -3   0   4 1648.93   67.18
  -3   0   4 2066.83   77.04
  -3   0   5 2411.83   83.34
  -3   0   5 2511.36   89.39
  -3   0   5 2361.85   87.06
  -3   0   6  803.51   45.94
  -3   0   6  709.49   41.28
  -3   0   6  889.03   52.61
  -3   0   6  782.46   52.40
  -3   0   7  342.21   35.59
  -3   0   7  288.18   26.18
  -3   0   7  297.51   27.34
  -3   0   7  306.20   28.46
  -3   0   8   84.20   14.83
  -3   0   8   82.42   14.88
  -3   0   8  109.80   21.13
  -3   0   9  577.48   42.27
  -3   0   9  549.37   42.41
  -3   0  10  100.38   18.38
  -3   0  10   91.52   21.10
  -3   0  11  422.82   41.44
  -3   0  12   71.03   18.53
  -3   0  13  173.16   29.28
  -3   0  14   84.19   21.44
  -3   1 -16  156.56   29.42
  -3   1 -15   -2.93    2.38
  -3   1 -14  233.06   34.49
  -3   1 -13   16.18    9.36
  -3   1 -12   72.94   11.28
  -3   1 -12   83.68   19.59
  -3   1 -11  195.91   18.63
  -3   1 -11  195.52   28.88
  -3   1 -10  129.48   21.88
  -3   1 -10  143.95   24.89
  -3   1 -10   97.11   15.99
  -3   1  -9   67.11   16.35
  -3   1  -9   94.48   15.30
  -3   1  -8  341.05   35.02
  -3   1  -8  302.19   35.02
  -3   1  -8  358.49   30.88
  -3   1  -8  317.35   30.22
  -3   1  -7  774.53   52.89
  -3   1  -7  790.22   51.01
  -3   1  -7  674.38   46.02
  -3   1  -6  661.69   43.31
  -3   1  -6  691.14   38.55
  -3   1  -6  671.46   45.39
  -3   1  -5 4756.86  131.58
  -3   1  -5 5019.90  144.46
  -3   1  -4   81.16   12.81
  -3   1  -4   79.16   10.57
  -3   1  -3  482.51   26.01
  -3   1  -3  482.44   29.24
  -3   1  -2 1257.11   47.03
  -3   1  -1  652.83   28.79
  -3   1  -1  716.98   32.84
  -3   1   0 2400.89   61.28
  -3   1   0 2301.28   80.21
  -3   1   1 1079.77   41.35
  -3   1   1 1099.41   51.04
  -3   1   1 1058.72   46.63
  -3   1   1 1010.24   32.47
  -3   1   1  988.37   36.14
  -3   1   2 2290.53   75.22
  -3   1   2 2590.65   75.38
  -3   1   2 2351.90   86.13
  -3   1   2 2302.00   85.34
  -3   1   2 2422.00   62.97
  -3   1   2 2318.40   61.11
  -3   1   3   12.85    5.29
  -3   1   3   12.77    4.35
  -3   1   3   10.33    2.73
  -3   1   3   10.51    5.00
  -3   1   3    8.69    2.73
  -3   1   3    8.65    1.87
  -3   1   4  676.93   42.45
  -3   1   4  668.44   42.39
  -3   1   4  717.76   40.59
  -3   1   5    9.38    4.28
  -3   1   5    6.33    4.27
  -3   1   5   10.06    5.28
  -3   1   5   14.41    6.24
  -3   1   5   10.69    3.56
  -3   1   5   11.94    5.98
  -3   1   6   54.01    9.14
  -3   1   6   64.20   13.23
  -3   1   6   57.38   12.18
  -3   1   6   62.82   14.02
  -3   1   6   65.21   13.53
  -3   1   7  978.28   60.31
  -3   1   7  875.22   43.89
  -3   1   7  924.54   54.08
  -3   1   7  814.29   51.80
  -3   1   8   94.59   16.28
  -3   1   8   66.68   14.06
  -3   1   8   61.45   11.16
  -3   1   8   57.60   14.22
  -3   1   9  326.23   29.09
  -3   1   9  409.88   34.50
  -3   1   9  360.48   34.78
  -3   1  10   26.40    9.29
  -3   1  10   17.84    6.69
  -3   1  11  414.71   41.62
  -3   1  12    4.45    4.66
  -3   1  13  134.29   25.51
  -3   1  14  168.07   30.19
  -3   2 -15    4.90    7.44
  -3   2 -14   73.60   20.33
  -3   2 -13   48.91   15.69
  -3   2 -12   80.22   18.57
  -3   2 -11   24.91    8.73
  -3   2 -11   27.61   10.85
  -3   2 -10  104.16    9.03
  -3   2 -10  118.25   22.81
  -3   2  -9   12.23    6.88
  -3   2  -9   15.00    2.97
  -3   2  -8  309.85   32.71
  -3   2  -8  295.94   33.45
  -3   2  -7  690.51   47.56
  -3   2  -7  752.60   45.16
  -3   2  -7  629.60   46.82
  -3   2  -6   21.86    8.84
  -3   2  -6   46.90   13.58
  -3   2  -6   30.21   10.83
  -3   2  -5  423.71   32.05
  -3   2  -5  512.04   33.80
  -3   2  -5  433.47   20.15
  -3   2  -5  474.11   36.08
  -3   2  -4  661.55   36.16
  -3   2  -4  662.54   40.71
  -3   2  -4  669.51   27.70
  -3   2  -3 1337.22   51.06
  -3   2  -3 1435.29   60.42
  -3   2  -3 1513.95   49.85
  -3   2  -2  912.23   43.92
  -3   2  -2 1009.60   39.77
  -3   2  -1  119.01   13.15
  -3   2  -1  135.10   15.56
  -3   2   0 1852.00   76.96
  -3   2   0 1866.59   63.93
  -3   2   0 1952.45   66.48
  -3   2   1  387.51   30.40
  -3   2   1  446.14   32.78
  -3   2   1  409.37   26.86
  -3   2   1  351.96   16.46
  -3   2   2  170.67   13.84
  -3   2   2  216.04   21.16
  -3   2   2  208.49   20.04
  -3   2   2  175.09   20.99
  -3   2   2  206.97   17.77
  -3   2   3  155.50   15.62
  -3   2   3  181.14   20.47
  -3   2   3  166.98   19.78
  -3   2   3  166.63   22.18
  -3   2   3  170.78   13.32
  -3   2   4  598.85   19.96
  -3   2   4  598.45   38.42
  -3   2   4  561.04   43.14
  -3   2   4  652.27   26.71
  -3   2   4  600.39   40.18
  -3   2   5  466.58   21.56
  -3   2   5  470.48   36.60
  -3   2   5  449.95   34.91
  -3   2   5  506.79   40.61
  -3   2   6  478.37   37.01
  -3   2   6  448.21   24.52
  -3   2   6  438.40   39.38
  -3   2   6  447.95   36.44
  -3   2   6  436.23   37.04
  -3   2   7  524.22   41.47
  -3   2   7  542.60   30.47
  -3   2   8  146.52   23.81
  -3   2   8  125.35   15.60
  -3   2   9  843.92   60.72
  -3   2   9  879.74   48.03
  -3   2   9  985.09   57.58
  -3   2  10   21.52    7.61
  -3   2  10   43.37   14.98
  -3   2  10   39.12   11.86
  -3   2  11  445.01   45.20
  -3   2  11  555.69   39.56
  -3   2  12  162.50   27.05
  -3   2  13   30.30   13.46
  -3   2  14    4.39    3.58
  -3   3 -14  280.26   42.99
  -3   3 -13   -0.55    3.33
  -3   3 -12   77.50   22.02
  -3   3 -11   92.38   20.80
  -3   3 -10  224.84   31.98
  -3   3  -9  706.55   55.15
  -3   3  -8    2.03    2.89
  -3   3  -8    7.92    4.62
  -3   3  -7  592.67   46.35
  -3   3  -7  544.47   41.41
  -3   3  -6    7.37    5.24
  -3   3  -6    9.55    5.34
  -3   3  -6    2.09    1.85
  -3   3  -5  335.36   29.88
  -3   3  -5  301.21   25.15
  -3   3  -5  356.52   33.38
  -3   3  -4    4.31    4.85
  -3   3  -4    2.62    2.66
  -3   3  -4    5.25    2.25
  -3   3  -4    5.21    2.70
  -3   3  -3  114.63   11.64
  -3   3  -3  117.35   10.97
  -3   3  -3  128.06   19.29
  -3   3  -2  288.02   28.82
  -3   3  -2  340.81   20.93
  -3   3  -1  183.52   23.42
  -3   3  -1  239.60   18.79
  -3   3   0  331.74   30.73
  -3   3   0  389.56   26.29
  -3   3   0  298.08   29.68
  -3   3   1    5.77    3.88
  -3   3   1   10.89    5.84
  -3   3   1    8.12    4.45
  -3   3   2  983.02   45.53
  -3   3   2  929.20   48.14
  -3   3   2  931.53   51.25
  -3   3   3  897.91   53.96
  -3   3   3  838.99   40.65
  -3   3   3  802.03   47.84
  -3   3   4  119.92   18.99
  -3   3   4  112.08   16.62
  -3   3   4  120.18   13.53
  -3   3   4  103.75   19.09
  -3   3   5 1035.28   59.91
  -3   3   5  920.17   49.65
  -3   3   5  971.21   44.89
  -3   3   5  911.21   28.33
  -3   3   6   22.60    7.98
  -3   3   6   26.97    5.06
  -3   3   6   37.64   12.89
  -3   3   7  159.77   23.89
  -3   3   7  155.24   15.37
  -3   3   7  177.36   22.29
  -3   3   8   52.68    9.73
  -3   3   8   58.03   14.84
  -3   3   9  918.48   48.48
  -3   3   9  960.85   66.21
  -3   3  10   22.66   10.62
  -3   3  11  291.36   39.09
  -3   3  12  146.63   28.43
  -3   3  13    2.49    6.74
  -3   4 -13  146.07   35.19
  -3   4 -12   92.13   26.61
  -3   4 -11  258.40   41.32
  -3   4 -10   12.29    8.80
  -3   4  -9  254.60   38.30
  -3   4  -8   57.64   15.80
  -3   4  -8   64.68   18.66
  -3   4  -7  260.92   36.16
  -3   4  -6  292.17   37.68
  -3   4  -5  494.00   48.95
  -3   4  -4  567.23   52.50
  -3   4  -3  144.42   26.42
  -3   4  -2  391.39   40.58
  -3   4  -1  245.42   29.95
  -3   4  -1  271.91   32.86
  -3   4   0  532.40   43.99
  -3   4   0  601.23   42.17
  -3   4   1  170.30   22.58
  -3   4   1  198.17   22.63
  -3   4   2   44.84   11.37
  -3   4   2   39.80   12.75
  -3   4   3  504.59   40.95
  -3   4   3  446.99   33.72
  -3   4   3  459.18   36.25
  -3   4   4   72.04   12.93
  -3   4   4   61.72   16.48
  -3   4   4   87.72   15.46
  -3   4   5  415.44   40.58
  -3   4   5  415.14   33.71
  -3   4   5  462.34   35.17
  -3   4   6  156.39   30.93
  -3   4   6  112.57    9.82
  -3   4   6  144.05   20.11
  -3   4   7 2847.88   82.58
  -3   4   7 2760.89  121.72
  -3   4   7 2829.56  102.86
  -3   4   8   87.18   20.50
  -3   4   8   92.88   12.56
  -3   4   9  341.33   40.29
  -3   4  10  152.08   28.36
  -3   4  11  170.21   31.03
  -3   4  12   25.31   14.92
  -3   4  13   24.11   14.68
  -3   5 -12    9.35   10.18
  -3   5 -11   32.25   14.90
  -3   5 -10   11.38    8.76
  -3   5  -9  265.54   44.19
  -3   5  -8  180.31   34.51
  -3   5  -7  288.18   43.00
  -3   5  -6  458.11   52.01
  -3   5  -5   10.31    7.86
  -3   5  -4  263.98   36.99
  -3   5  -3 1128.83   73.42
  -3   5  -2  210.87   28.97
  -3   5  -1   63.97   15.23
  -3   5   0 1020.04   61.93
  -3   5   1   95.32   17.34
  -3   5   2   64.73   14.03
  -3   5   2   94.73   17.94
  -3   5   3  956.53   56.44
  -3   5   3  875.26   59.67
  -3   5   3  873.18   53.98
  -3   5   4    4.53    6.22
  -3   5   4    4.03    1.69
  -3   5   4    1.75    3.58
  -3   5   5  819.00   54.37
  -3   5   5  653.88   45.18
  -3   5   5  716.30   59.44
  -3   5   6    2.04    3.63
  -3   5   6    0.03    4.65
  -3   5   6    3.13    7.90
  -3   5   7    7.23    5.93
  -3   5   8   84.61   20.01
  -3   5   9  241.71   36.35
  -3   5  10   62.47   19.75
  -3   5  11   33.55   15.17
  -3   5  12  443.84   54.55
  -3   6 -10   -0.87    5.46
  -3   6  -9   38.63   19.43
  -3   6  -8   76.75   24.35
  -3   6  -7  222.52   38.67
  -3   6  -6  230.60   36.98
  -3   6  -5  563.40   55.78
  -3   6  -4  691.63   60.45
  -3   6  -3   99.11   21.89
  -3   6  -2 1320.05   80.84
  -3   6  -1   23.65    8.80
  -3   6   0   28.21   10.83
  -3   6   1   99.49   19.74
  -3   6   2  461.23   42.93
  -3   6   3   11.71    8.61
  -3   6   3   19.16    9.57
  -3   6   3   13.56    7.17
  -3   6   4   47.95   12.43
  -3   6   4   54.11   16.95
  -3   6   4   56.98   14.64
  -3   6   5  186.05   33.03
  -3   6   5  232.17   32.17
  -3   6   6    8.69    6.47
  -3   6   6   -1.63    0.84
  -3   6   7  559.11   57.49
  -3   6   8   37.65   13.65
  -3   6   9   18.58   10.06
  -3   6  10  153.77   31.70
  -3   7  -8   31.46   15.47
  -3   7  -7    8.47    8.54
  -3   7  -6  361.88   48.42
  -3   7  -5    8.56    7.90
  -3   7  -4  172.21   31.45
  -3   7  -3   20.73    8.99
  -3   7  -2   18.82    9.40
  -3   7  -1  153.18   27.86
  -3   7   0  142.43   26.31
  -3   7   1  234.79   33.73
  -3   7   2   92.43   20.55
  -3   7   3  237.22   35.68
  -3   7   3  228.22   32.63
  -3   7   4   13.17    8.39
  -3   7   4   15.45   11.62
  -3   7   5   59.58   20.12
  -3   7   5   86.35   22.20
  -3   7   6   27.28   16.80
  -3   7   6   23.86   12.89
  -3   7   7  130.59   29.42
  -3   7   8  140.31   31.07
  -3   7   9   28.96   13.83
  -3   8  -6   78.93   24.21
  -3   8  -5   -2.53    8.20
  -3   8  -4  303.66   44.78
  -3   8  -3   56.59   19.38
  -3   8  -2  255.04   39.88
  -3   8  -1  247.13   39.23
  -3   8   0    5.69    5.38
  -3   8   1   77.86   21.23
  -3   8   2   21.87   10.90
  -3   8   3  119.76   27.51
  -3   8   3  138.93   28.75
  -3   8   4    5.73    7.46
  -3   8   4   -2.93    3.96
  -3   8   5  130.53   31.78
  -3   8   5  219.35   39.06
  -3   8   6  102.44   28.00
  -3   8   6   76.92   22.92
  -3   9  -1  160.58   34.30
  -3   9   0  101.13   27.01
  -3   9   1  211.03   38.77
  -3   9   2   -1.93    5.76
  -3   9   3   60.56   20.28
  -3   9   4  109.64   31.23
  -3   9   5   39.61   17.49
  -2 -10  -6   75.79   23.49
  -2 -10  -5   55.36   19.53
  -2 -10  -4   45.42   17.04
  -2 -10  -3   23.02   13.03
  -2 -10  -2   40.94   16.18
  -2 -10  -1   26.94   13.38
  -2 -10   0   46.59   17.80
  -2 -10   1   90.68   25.90
  -2 -10   4   44.08   15.54
  -2  -9  -9   30.09   14.49
  -2  -9  -8    8.70    9.30
  -2  -9  -7   77.23   21.52
  -2  -9  -6    7.68    7.09
  -2  -9  -5   76.30   21.51
  -2  -9  -4   10.43    8.61
  -2  -9  -3  325.78   44.10
  -2  -9  -2  151.01   30.45
  -2  -9  -1  292.48   43.82
  -2  -9   0   13.97   10.79
  -2  -9   1  277.79   44.16
  -2  -9   2   53.66   19.12
  -2  -9   3   -1.37    5.39
  -2  -9   4   13.73    8.28
  -2  -9   4   52.51   21.25
  -2  -9   5   11.50   11.04
  -2  -9   5   15.38    8.15
  -2  -9   6  195.93   38.20
  -2  -9   7   17.25   15.37
  -2  -8 -11   -0.74    2.96
  -2  -8 -10   17.35   12.09
  -2  -8  -9   26.36   12.10
  -2  -8  -8   28.13   13.01
  -2  -8  -7  345.28   43.54
  -2  -8  -6   -4.87    7.68
  -2  -8  -5  368.35   44.82
  -2  -8  -4   31.97   13.55
  -2  -8  -3   33.85   12.91
  -2  -8  -2    1.72    4.02
  -2  -8  -1  441.33   50.06
  -2  -8   0   33.14   14.68
  -2  -8   1  140.00   29.27
  -2  -8   2  261.54   40.80
  -2  -8   3   37.40   15.97
  -2  -8   4  351.55   48.56
  -2  -8   5   -0.46    2.37
  -2  -8   5   10.08    8.51
  -2  -8   6  136.45   31.05
  -2  -8   6  120.41   28.78
  -2  -8   7   44.82   20.03
  -2  -8   7   56.86   20.07
  -2  -8   8   54.30   20.01
  -2  -8   9   21.29   12.15
  -2  -7 -13    0.02    4.57
  -2  -7 -12  196.67   33.37
  -2  -7 -11   66.84   19.10
  -2  -7 -10  156.60   29.38
  -2  -7  -9   98.97   22.55
  -2  -7  -8  152.80   28.13
  -2  -7  -7  179.53   29.28
  -2  -7  -6    7.68    6.54
  -2  -7  -5  350.40   40.47
  -2  -7  -4   10.85    7.58
  -2  -7  -3  673.25   56.74
  -2  -7  -2   32.97   12.81
  -2  -7  -1   69.77   18.82
  -2  -7   0  248.67   35.92
  -2  -7   1  213.68   33.30
  -2  -7   2  423.50   48.26
  -2  -7   3  148.03   29.13
  -2  -7   4  364.27   45.96
  -2  -7   5   12.69    7.80
  -2  -7   5   13.34    9.05
  -2  -7   6  353.90   46.98
  -2  -7   6  394.50   51.51
  -2  -7   7   18.96   12.43
  -2  -7   7   18.44    9.25
  -2  -7   8  169.14   33.54
  -2  -7   9  215.89   39.06
  -2  -7  10   25.51   14.78
  -2  -6 -14   91.47   24.26
  -2  -6 -13   98.28   23.06
  -2  -6 -12   41.88   14.31
  -2  -6 -11   29.89   11.67
  -2  -6 -10  203.22   31.42
  -2  -6  -9   99.44   21.81
  -2  -6  -8   40.73   13.31
  -2  -6  -7  276.58   34.84
  -2  -6  -6   52.16   15.29
  -2  -6  -5  339.63   37.49
  -2  -6  -4   -0.85    2.62
  -2  -6  -3  115.71   21.10
  -2  -6  -2  107.64   20.62
  -2  -6  -1  145.82   24.57
  -2  -6   0  149.97   25.21
  -2  -6   1    7.76    5.94
  -2  -6   2   56.18   15.89
  -2  -6   3   25.35   10.76
  -2  -6   4  314.97   40.11
  -2  -6   5   21.75   11.50
  -2  -6   5   47.01   17.57
  -2  -6   6  864.37   69.67
  -2  -6   7  284.31   39.85
  -2  -6   8  284.52   41.85
  -2  -6   9  343.03   47.18
  -2  -6  10   11.98    7.47
  -2  -6  11  178.65   37.88
  -2  -5 -14  159.82   30.56
  -2  -5 -13   38.44   13.53
  -2  -5 -12  247.62   35.35
  -2  -5 -11  144.89   25.94
  -2  -5 -10   36.90   11.74
  -2  -5  -9  508.75   46.99
  -2  -5  -8   41.68   13.81
  -2  -5  -7  604.95   49.13
  -2  -5  -6    4.14    6.63
  -2  -5  -5  108.83   19.48
  -2  -5  -4    7.10    5.19
  -2  -5  -3  179.06   24.83
  -2  -5  -2   39.22   11.42
  -2  -5  -2   49.13   13.15
  -2  -5  -1    2.31    4.86
  -2  -5  -1   -2.17    4.62
  -2  -5   0  438.66   39.71
  -2  -5   0  495.62   43.03
  -2  -5   1  138.79   22.26
  -2  -5   1  131.57   22.24
  -2  -5   2  351.23   35.48
  -2  -5   2  318.31   35.25
  -2  -5   3  426.56   42.12
  -2  -5   3  454.80   42.36
  -2  -5   4  407.15   43.91
  -2  -5   4  392.45   41.20
  -2  -5   5  207.44   31.25
  -2  -5   6   65.18    8.73
  -2  -5   6   77.76   19.65
  -2  -5   7  331.81   40.65
  -2  -5   7  250.23   19.96
  -2  -5   8   -3.26    5.14
  -2  -5   8    0.24    1.36
  -2  -5   9  367.30   27.75
  -2  -5   9  334.98   44.93
  -2  -5  10   13.23    9.09
  -2  -5  11  167.46   35.70
  -2  -5  12   51.64   18.67
  -2  -4 -15   10.78    7.37
  -2  -4 -15    6.00    7.38
  -2  -4 -14  194.10   33.70
  -2  -4 -14  204.06   32.82
  -2  -4 -13  137.54   27.32
  -2  -4 -12  193.54   30.23
  -2  -4 -11  621.41   53.67
  -2  -4 -10   35.01   12.04
  -2  -4  -9  302.29   34.14
  -2  -4  -8  212.35   27.58
  -2  -4  -7   16.09    8.20
  -2  -4  -6  117.77   25.16
  -2  -4  -6  142.04   21.63
  -2  -4  -5  405.68   36.07
  -2  -4  -5  364.41   42.55
  -2  -4  -4  227.10   26.36
  -2  -4  -3 1154.85   61.78
  -2  -4  -2 2513.07   98.25
  -2  -4  -1  164.28   22.02
  -2  -4   0  697.04   47.14
  -2  -4   1  129.50   19.61
  -2  -4   1  142.70   19.57
  -2  -4   2  594.78   44.58
  -2  -4   2  721.03   45.93
  -2  -4   3  448.77   36.15
  -2  -4   3  349.91   35.24
  -2  -4   4  226.91   28.66
  -2  -4   5  290.77   33.18
  -2  -4   5  311.21   35.26
  -2  -4   5  282.84   16.75
  -2  -4   6  430.00   43.78
  -2  -4   6  550.02   26.82
  -2  -4   6  534.26   40.29
  -2  -4   7  646.38   42.46
  -2  -4   7  637.03   54.81
  -2  -4   7  488.63   28.93
  -2  -4   8   54.48   12.40
  -2  -4   8   68.02   18.45
  -2  -4   8   51.70    9.60
  -2  -4   9  708.75   41.39
  -2  -4   9  939.87   73.43
  -2  -4  10   64.03   20.38
  -2  -4  10   28.30    7.98
  -2  -4  11  153.00   31.84
  -2  -4  11   98.05   16.62
  -2  -4  12   36.31   16.80
  -2  -4  13   10.80   11.07
  -2  -3 -16  264.57   35.84
  -2  -3 -15   -2.61    4.70
  -2  -3 -15    1.38    3.01
  -2  -3 -14  244.81   37.69
  -2  -3 -14  213.76   32.28
  -2  -3 -13   12.80    9.79
  -2  -3 -12  441.13   46.30
  -2  -3 -11  235.14   31.97
  -2  -3 -10   48.79   13.76
  -2  -3  -9  578.00   45.68
  -2  -3  -9  388.54   15.51
  -2  -3  -8   27.77   10.01
  -2  -3  -8    9.54    7.07
  -2  -3  -8   16.20    2.82
  -2  -3  -7 1094.55   60.59
  -2  -3  -7 1019.55   32.04
  -2  -3  -6  113.60   16.89
  -2  -3  -6  110.09   18.01
  -2  -3  -5  422.86   34.54
  -2  -3  -5  410.14   30.84
  -2  -3  -4  630.31   41.95
  -2  -3  -3    5.28    4.23
  -2  -3  -2   37.34    8.93
  -2  -3  -1  437.52   33.47
  -2  -3   0  785.87   45.89
  -2  -3   1   12.75    5.30
  -2  -3   1   12.76    5.89
  -2  -3   2 1093.19   56.49
  -2  -3   2 1004.42   50.27
  -2  -3   3  897.92   47.55
  -2  -3   4 1131.85   62.34
  -2  -3   4 1644.54   41.54
  -2  -3   5  963.79   42.82
  -2  -3   5  893.03   32.01
  -2  -3   6   41.24    7.18
  -2  -3   6   89.53   18.67
  -2  -3   6   86.28   13.15
  -2  -3   7  850.45   38.81
  -2  -3   7  935.09   63.89
  -2  -3   7  870.59   44.52
  -2  -3   8  172.77   28.20
  -2  -3   8  144.37   15.81
  -2  -3   8  158.24   18.94
  -2  -3   9    4.56    4.34
  -2  -3   9    1.81    1.56
  -2  -3   9    2.50    5.57
  -2  -3  10   41.32   17.00
  -2  -3  10   26.38    8.70
  -2  -3  10   25.51    7.69
  -2  -3  11  595.67   62.07
  -2  -3  11  446.49   36.38
  -2  -3  12  149.90   21.98
  -2  -3  12  134.64   31.52
  -2  -3  13   97.74   18.33
  -2  -3  13  114.07   29.83
  -2  -2 -16   -1.35    5.03
  -2  -2 -15    8.49    6.78
  -2  -2 -14  451.88   42.71
  -2  -2 -14  452.82   51.58
  -2  -2 -13  403.84   46.59
  -2  -2 -13  376.05   38.81
  -2  -2 -12  217.59   31.83
  -2  -2 -11  576.53   50.34
  -2  -2 -11  507.80   31.58
  -2  -2 -10   15.07    5.11
  -2  -2 -10   23.30    9.22
  -2  -2  -9  437.81   39.11
  -2  -2  -9  358.80   24.28
  -2  -2  -8   69.31   15.16
  -2  -2  -8   68.04   14.94
  -2  -2  -8   71.63   10.09
  -2  -2  -7  633.83   43.08
  -2  -2  -7  628.68   30.59
  -2  -2  -7  728.11   45.89
  -2  -2  -6  390.67   31.13
  -2  -2  -6  362.89   31.03
  -2  -2  -6  346.81   21.33
  -2  -2  -5  481.65   34.55
  -2  -2  -5  504.54   33.11
  -2  -2  -5  521.06   26.24
  -2  -2  -4  757.49   41.88
  -2  -2  -4  640.37   35.98
  -2  -2  -3  901.70   37.12
  -2  -2  -3  901.60   45.58
  -2  -2  -3  851.04   35.79
  -2  -2  -2  172.21   18.18
  -2  -2  -2  163.95   15.51
  -2  -2  -1 1123.90   47.25
  -2  -2  -1 1128.11   54.48
  -2  -2  -1 1158.70   51.05
  -2  -2   0   10.75    4.40
  -2  -2   0   20.15    6.23
  -2  -2   1    6.52    3.50
  -2  -2   1    7.22    3.20
  -2  -2   2   18.24    6.12
  -2  -2   2   22.45    5.93
  -2  -2   3   74.57   10.31
  -2  -2   4 1062.08   44.48
  -2  -2   4 1045.41   48.17
  -2  -2   5 2564.01   78.61
  -2  -2   5 2625.31   85.19
  -2  -2   5 2387.60   85.17
  -2  -2   6  553.98   36.90
  -2  -2   6  572.72   34.21
  -2  -2   6  538.78   28.91
  -2  -2   7 1312.28   64.70
  -2  -2   7 1523.67   81.35
  -2  -2   8   13.16    7.37
  -2  -2   8    8.97    5.69
  -2  -2   9 2632.98   91.26
  -2  -2   9 2795.80  127.97
  -2  -2  10   15.82    6.44
  -2  -2  10   16.54    6.63
  -2  -2  10   24.65   10.22
  -2  -2  11   64.39   17.44
  -2  -2  11   70.81   20.93
  -2  -2  12  215.94   38.08
  -2  -2  12  207.12   31.07
  -2  -2  13    1.72    7.12
  -2  -2  14   27.96   11.91
  -2  -1 -16  261.43   36.15
  -2  -1 -15   38.05   12.04
  -2  -1 -14   37.51   10.89
  -2  -1 -13   26.42   11.07
  -2  -1 -13   27.14    9.34
  -2  -1 -12   20.79    6.85
  -2  -1 -12   13.66    7.26
  -2  -1 -11  370.61   40.11
  -2  -1 -10    6.57    4.93
  -2  -1  -9 1117.62   64.36
  -2  -1  -9  889.74   57.11
  -2  -1  -8  809.08   50.65
  -2  -1  -8  947.38   55.78
  -2  -1  -7  810.11   47.14
  -2  -1  -7  833.82   49.35
  -2  -1  -6 2649.99   86.75
  -2  -1  -6 2115.85   84.17
  -2  -1  -5  405.67   28.21
  -2  -1  -5  427.35   30.82
  -2  -1  -5  356.39   23.42
  -2  -1  -4  410.61   25.17
  -2  -1  -4  488.12   26.68
  -2  -1  -4  454.01   30.05
  -2  -1  -3  403.17   21.34
  -2  -1  -3  430.93   27.59
  -2  -1  -3  401.90   23.86
  -2  -1  -2 1508.73   45.45
  -2  -1  -2 1620.93   58.30
  -2  -1  -1 3657.52   97.88
  -2  -1  -1 3243.98   93.80
  -2  -1   0 6519.46  160.57
  -2  -1   0 6181.84  156.71
  -2  -1   1   49.96    7.81
  -2  -1   1   69.75    9.64
  -2  -1   1   83.08    6.48
  -2  -1   2 1587.34   45.57
  -2  -1   2 1501.75   47.27
  -2  -1   2 1538.96   44.27
  -2  -1   3 3419.59   94.19
  -2  -1   3 3443.82   85.68
  -2  -1   4   44.72    8.16
  -2  -1   4   46.43    9.38
  -2  -1   4   44.78    6.30
  -2  -1   5 2048.94   70.15
  -2  -1   5 1932.18   54.20
  -2  -1   6   46.47    9.28
  -2  -1   7  874.43   48.16
  -2  -1   7 1039.66   64.27
  -2  -1   8   37.53   10.44
  -2  -1   8   38.86   12.12
  -2  -1   8   41.04    9.65
  -2  -1   8   29.33    9.39
  -2  -1   9   29.05    9.16
  -2  -1   9   36.99   11.06
  -2  -1   9   21.01    8.90
  -2  -1   9   29.47   11.31
  -2  -1  10  958.92   71.68
  -2  -1  10  791.50   54.97
  -2  -1  11  183.23   26.80
  -2  -1  11  182.06   32.59
  -2  -1  12  200.68   29.56
  -2  -1  13    4.89    6.04
  -2  -1  14  373.25   45.74
  -2   0 -16  214.76   32.58
  -2   0 -15   51.26   16.16
  -2   0 -14  105.94   21.98
  -2   0 -14  108.69   17.78
  -2   0 -13  561.67   49.20
  -2   0 -13  588.19   40.37
  -2   0 -12  108.96   15.75
  -2   0 -11  245.27   33.00
  -2   0 -11  188.45   21.05
  -2   0 -10 1657.23   86.54
  -2   0  -9  634.29   48.12
  -2   0  -8  203.12   24.64
  -2   0  -8  228.72   26.58
  -2   0  -8  214.54   28.56
  -2   0  -7  845.94   48.90
  -2   0  -7 1104.17   56.86
  -2   0  -6 1910.30   77.67
  -2   0  -6 1859.74   70.06
  -2   0  -5  790.50   37.61
  -2   0  -5  863.45   43.81
  -2   0  -5  698.05   37.54
  -2   0  -4 2140.71   65.87
  -2   0  -4 2324.51   75.14
  -2   0  -4 2067.46   73.55
  -2   0  -3    0.95    0.66
  -2   0  -3    2.00    1.26
  -2   0  -3    5.07    3.96
  -2   0  -2  334.70   20.56
  -2   0  -2  326.12   14.79
  -2   0  -2  307.92   23.76
  -2   0  -2  326.35   22.28
  -2   0  -1 1990.06   59.96
  -2   0  -1 2083.26   62.75
  -2   0  -1 2162.60   67.60
  -2   0   0 4752.71  112.56
  -2   0   0 4579.36  115.56
  -2   0   1    4.52    2.03
  -2   0   1    7.04    4.53
  -2   0   1    4.69    1.92
  -2   0   1    3.78    2.85
  -2   0   2  149.19   11.74
  -2   0   2  165.41   15.51
  -2   0   2  147.04   13.22
  -2   0   2  141.73   15.39
  -2   0   2  169.27   17.52
  -2   0   3  712.72   33.30
  -2   0   3  699.23   35.43
  -2   0   3  729.40   39.66
  -2   0   3  868.08   40.13
  -2   0   3  925.00   42.80
  -2   0   4 1294.26   50.32
  -2   0   4 1263.09   51.51
  -2   0   4 1339.57   58.62
  -2   0   5  854.02   42.85
  -2   0   5  955.10   44.52
  -2   0   5  957.66   51.93
  -2   0   6   69.01   11.70
  -2   0   6   69.51   14.48
  -2   0   6   69.40   11.58
  -2   0   7 1373.54   62.85
  -2   0   7 1632.78   80.04
  -2   0   7 1352.44   61.36
  -2   0   7 1537.39   64.22
  -2   0   8  519.83   38.50
  -2   0   8  549.72   38.51
  -2   0   8  562.07   38.74
  -2   0   8  618.60   49.80
  -2   0   9  325.69   31.93
  -2   0   9  400.83   41.92
  -2   0   9  295.76   30.62
  -2   0  10  381.67   36.96
  -2   0  11   33.81   12.61
  -2   0  12  699.58   56.31
  -2   0  13    7.52    8.80
  -2   0  14   95.73   22.50
  -2   1 -16  256.14   37.41
  -2   1 -15   91.73   20.79
  -2   1 -14   13.23    7.85
  -2   1 -13  127.61   23.35
  -2   1 -12   48.89   14.40
  -2   1 -12   48.01    9.56
  -2   1 -11  208.84   18.99
  -2   1 -11  169.76   25.02
  -2   1 -10  100.34   12.69
  -2   1 -10  120.58   20.84
  -2   1  -9  106.88   12.79
  -2   1  -9   84.28   10.70
  -2   1  -9   98.01   17.32
  -2   1  -8 1900.39   91.89
  -2   1  -8 1753.80   76.98
  -2   1  -8 1948.70   86.68
  -2   1  -8 1803.21   66.91
  -2   1  -7  457.06   33.46
  -2   1  -7  390.26   34.15
  -2   1  -7  421.39   38.03
  -2   1  -7  435.56   30.44
  -2   1  -6 1133.59   59.70
  -2   1  -6 1140.92   56.76
  -2   1  -6 1108.79   50.76
  -2   1  -5  198.49   18.09
  -2   1  -5  233.41   22.35
  -2   1  -5  181.37   20.50
  -2   1  -4 1590.21   61.04
  -2   1  -4 1657.11   57.80
  -2   1  -3  218.31   16.62
  -2   1  -3  201.86   17.54
  -2   1  -2 1193.44   42.65
  -2   1  -1  316.68   19.78
  -2   1  -1  339.38   17.25
  -2   1  -1  320.12   17.49
  -2   1   0   11.77    4.30
  -2   1   0    6.93    2.74
  -2   1   0   10.65    4.71
  -2   1   0   13.36    4.37
  -2   1   0   11.69    2.90
  -2   1   1 2417.63   76.98
  -2   1   1 2163.85   61.54
  -2   1   1 2484.53   63.83
  -2   1   1 2402.53   78.53
  -2   1   2  354.44   24.20
  -2   1   2  386.90   24.18
  -2   1   2  409.20   22.06
  -2   1   2  370.03   26.28
  -2   1   2  449.28   17.38
  -2   1   3  747.23   25.84
  -2   1   3  785.08   37.70
  -2   1   3  757.80   40.04
  -2   1   3  703.79   36.14
  -2   1   3  897.39   39.22
  -2   1   4  510.45   31.97
  -2   1   4  445.82   29.92
  -2   1   4  419.64   21.08
  -2   1   4  425.42   29.44
  -2   1   5  770.78   41.98
  -2   1   5  764.63   44.16
  -2   1   5  753.89   33.98
  -2   1   6   29.12   11.16
  -2   1   6   11.24    4.52
  -2   1   6   24.22    6.60
  -2   1   7  240.98   26.04
  -2   1   7  245.90   21.87
  -2   1   7  316.72   25.06
  -2   1   8  131.08   19.58
  -2   1   8  117.37   16.01
  -2   1   8  162.24   17.02
  -2   1   9 1160.21   64.70
  -2   1   9 1131.40   58.34
  -2   1  10  687.78   47.44
  -2   1  10  803.03   54.59
  -2   1  11   19.11    8.85
  -2   1  12  481.73   46.64
  -2   1  13  124.13   24.24
  -2   1  14  147.68   27.55
  -2   2 -16  184.42   34.44
  -2   2 -15  234.76   36.62
  -2   2 -14   55.38   17.08
  -2   2 -13  109.90   22.64
  -2   2 -12   23.12   10.20
  -2   2 -11  318.39   19.47
  -2   2 -11  346.83   36.20
  -2   2 -11  416.73   26.15
  -2   2 -10  621.72   46.76
  -2   2 -10  523.13   24.60
  -2   2  -9  751.24   49.25
  -2   2  -9  592.86   23.96
  -2   2  -8  217.92   11.39
  -2   2  -8  211.02   24.62
  -2   2  -8  211.11   27.68
  -2   2  -7   55.87   11.78
  -2   2  -7   72.10   13.00
  -2   2  -7   44.23   11.57
  -2   2  -7   53.30    4.44
  -2   2  -6  952.92   50.91
  -2   2  -6  873.89   51.09
  -2   2  -5  276.54   23.95
  -2   2  -5  212.66   21.42
  -2   2  -5  222.32   21.68
  -2   2  -4  410.48   14.55
  -2   2  -4  425.65   27.60
  -2   2  -4  458.27   30.08
  -2   2  -3  829.56   43.01
  -2   2  -3  910.37   39.04
  -2   2  -2  415.64   18.00
  -2   2  -2  396.99   25.86
  -2   2  -1   41.88    7.61
  -2   2  -1   41.23    5.98
  -2   2   0  370.50   21.02
  -2   2   0  344.85   26.19
  -2   2   1  595.18   30.21
  -2   2   1  617.18   33.92
  -2   2   1  597.46   31.79
  -2   2   2    5.79    2.45
  -2   2   2    8.96    3.06
  -2   2   2    8.58    3.80
  -2   2   2   11.40    3.96
  -2   2   3  441.68   30.88
  -2   2   3  369.62   14.13
  -2   2   3  380.56   20.66
  -2   2   3  370.63   25.52
  -2   2   4   10.95    3.03
  -2   2   4   10.07    5.27
  -2   2   4    8.62    3.77
  -2   2   4   10.08    3.40
  -2   2   5  212.03   22.95
  -2   2   5  199.99   15.26
  -2   2   5  194.54   19.03
  -2   2   6  109.19   17.03
  -2   2   6  106.93   12.25
  -2   2   7  720.42   48.00
  -2   2   7  726.15   38.35
  -2   2   8  191.66   25.77
  -2   2   8  193.19   20.52
  -2   2   9  110.21   20.79
  -2   2   9   89.43   14.88
  -2   2  10  861.04   60.05
  -2   2  10  829.06   43.30
  -2   2  11   89.37   19.75
  -2   2  12  275.25   35.16
  -2   2  13   36.97   12.77
  -2   2  14  117.09   24.96
  -2   3 -15   -2.25    3.76
  -2   3 -14    2.09    6.98
  -2   3 -13  474.58   52.21
  -2   3 -12   12.18    9.82
  -2   3 -11  264.86   35.59
  -2   3 -10  529.53   48.33
  -2   3  -9   30.61   10.94
  -2   3  -8  843.47   58.19
  -2   3  -8  865.76   57.75
  -2   3  -7   88.08   17.30
  -2   3  -7  111.54   20.51
  -2   3  -6  519.36   38.85
  -2   3  -6  620.15   44.97
  -2   3  -6  581.86   40.09
  -2   3  -5  994.53   56.52
  -2   3  -5  886.82   48.13
  -2   3  -5  916.50   50.89
  -2   3  -5  955.09   52.09
  -2   3  -4   26.70   11.94
  -2   3  -4   14.76    7.15
  -2   3  -3   26.85   12.76
  -2   3  -2  389.47   35.07
  -2   3  -1  508.64   37.48
  -2   3   0  627.24   39.02
  -2   3   1  185.09   18.72
  -2   3   2  921.97   43.31
  -2   3   2  923.91   44.79
  -2   3   3    5.53    4.93
  -2   3   3    4.30    3.42
  -2   3   3    8.78    4.26
  -2   3   4  146.73   20.87
  -2   3   4  136.79   15.84
  -2   3   4  145.23   11.80
  -2   3   4  155.98   18.08
  -2   3   5  284.13   29.56
  -2   3   5  255.10   17.78
  -2   3   5  257.89   21.36
  -2   3   6 1334.66   71.11
  -2   3   6 1326.69   51.81
  -2   3   6 1335.71   55.68
  -2   3   7  590.24   46.27
  -2   3   7  567.02   33.97
  -2   3   8 1014.73   49.65
  -2   3   8  658.59   51.56
  -2   3   9  140.70   24.90
  -2   3   9  143.05   19.39
  -2   3  10  344.39   40.49
  -2   3  10  403.75   35.06
  -2   3  11   94.86   22.56
  -2   3  12  222.03   33.67
  -2   3  13  178.75   31.16
  -2   3  14   26.42   11.52
  -2   4 -14   28.26   16.54
  -2   4 -13   66.84   23.72
  -2   4 -12   66.20   22.67
  -2   4 -11  135.66   30.83
  -2   4 -10  198.24   35.70
  -2   4  -9   -3.92    5.95
  -2   4  -8  970.72   75.17
  -2   4  -7  274.47   37.81
  -2   4  -6  317.11   39.95
  -2   4  -5  384.07   33.85
  -2   4  -5  341.77   39.95
  -2   4  -4  594.99   51.12
  -2   4  -4  674.36   46.81
  -2   4  -3    0.55    1.80
  -2   4  -3   18.81   10.65
  -2   4  -2  275.01   29.69
  -2   4  -2  275.78   28.86
  -2   4  -1   15.43    7.06
  -2   4  -1    9.27    6.06
  -2   4   0    0.04    3.17
  -2   4   0    5.46    4.60
  -2   4   1  421.95   32.70
  -2   4   2   26.04    7.90
  -2   4   3  762.75   49.44
  -2   4   3  799.38   43.97
  -2   4   3  780.14   45.41
  -2   4   4  836.05   43.54
  -2   4   4  842.54   58.89
  -2   4   4  926.94   36.98
  -2   4   4  853.89   49.76
  -2   4   5  204.90   27.26
  -2   4   5  197.11   19.32
  -2   4   5  243.42   26.80
  -2   4   5  241.34   18.55
  -2   4   6  283.67   32.91
  -2   4   6  237.24   20.37
  -2   4   6  245.02   20.73
  -2   4   7    5.77    4.37
  -2   4   7   21.98    6.83
  -2   4   7   15.25    4.81
  -2   4   8  165.28   26.91
  -2   4   8  164.87   19.34
  -2   4   9   24.42    7.45
  -2   4   9   37.45   13.54
  -2   4  10  228.38   32.91
  -2   4  11   52.37   16.57
  -2   4  12   59.66   17.78
  -2   4  13  238.83   38.01
  -2   5 -13   10.53    9.58
  -2   5 -12   35.41   18.02
  -2   5 -11   32.79   16.84
  -2   5 -10  340.60   50.17
  -2   5  -9    8.46    6.34
  -2   5  -8  134.87   29.68
  -2   5  -7   99.15   24.41
  -2   5  -6  460.51   50.73
  -2   5  -5  138.75   27.02
  -2   5  -4  365.98   39.91
  -2   5  -3 1858.86   91.82
  -2   5  -2   88.33   17.78
  -2   5  -2   67.91   14.86
  -2   5  -1  948.73   59.55
  -2   5  -1  916.12   59.07
  -2   5   0    6.65    4.36
  -2   5   1  299.33   31.04
  -2   5   2  280.66   29.41
  -2   5   3  338.74   28.61
  -2   5   3  296.28   30.52
  -2   5   4    1.28    2.22
  -2   5   4    4.97    4.48
  -2   5   4    2.97    1.61
  -2   5   5  455.04   48.05
  -2   5   5  559.63   45.93
  -2   5   5  469.07   32.71
  -2   5   6  296.77   36.82
  -2   5   6  317.88   25.04
  -2   5   6  272.13   22.33
  -2   5   7  195.32   31.07
  -2   5   7  226.48   19.51
  -2   5   7  221.21   22.09
  -2   5   8  491.89   50.22
  -2   5   8  546.34   38.31
  -2   5   9   72.67   19.44
  -2   5  10   28.16   11.86
  -2   5  11  148.65   29.20
  -2   5  12  170.77   32.81
  -2   6 -11   48.48   19.50
  -2   6 -10   60.99   20.18
  -2   6  -9   12.14   10.19
  -2   6  -8  399.29   49.36
  -2   6  -7   69.43   20.23
  -2   6  -6  211.92   33.29
  -2   6  -5  423.18   46.79
  -2   6  -4   15.76    7.79
  -2   6  -3   15.86    7.17
  -2   6  -2   41.32   12.95
  -2   6  -1  214.61   29.63
  -2   6   0  290.87   34.35
  -2   6   1  206.49   28.59
  -2   6   2   33.98   10.95
  -2   6   3   65.71   14.00
  -2   6   3   79.78   17.10
  -2   6   4  218.65   31.63
  -2   6   4  213.03   23.98
  -2   6   4  250.52   31.86
  -2   6   5  155.06   31.26
  -2   6   5  234.30   33.15
  -2   6   5  192.99   21.62
  -2   6   6   97.42   24.38
  -2   6   6  103.43   22.22
  -2   6   7   28.55   13.00
  -2   6   8    0.80    1.37
  -2   6   9    4.93    6.61
  -2   6  10   89.51   22.69
  -2   6  11   24.86   12.18
  -2   7  -9   29.37   16.54
  -2   7  -8  116.09   27.43
  -2   7  -7   80.16   22.51
  -2   7  -6  144.05   29.20
  -2   7  -5   41.23   15.36
  -2   7  -4   23.15   11.68
  -2   7  -3  551.47   54.87
  -2   7  -2  373.32   44.02
  -2   7  -1  105.31   23.04
  -2   7   0  499.35   49.82
  -2   7   1   12.43    8.67
  -2   7   2  116.24   23.51
  -2   7   3  414.14   45.28
  -2   7   4    0.84    4.40
  -2   7   4    2.55    1.66
  -2   7   5   31.65   15.90
  -2   7   5   49.22   17.69
  -2   7   6  207.26   36.63
  -2   7   6  232.25   37.03
  -2   7   7    2.31    7.93
  -2   7   8  274.87   42.69
  -2   7   9  154.81   32.41
  -2   8  -7   80.59   24.27
  -2   8  -6    8.31    9.97
  -2   8  -5  211.10   37.35
  -2   8  -4   35.62   14.82
  -2   8  -3   59.80   20.57
  -2   8  -2   37.50   16.11
  -2   8  -1  140.37   28.83
  -2   8   0   42.98   15.87
  -2   8   1  173.46   31.77
  -2   8   2  306.50   42.39
  -2   8   3   58.22   17.73
  -2   8   3   54.61   19.24
  -2   8   4  519.78   57.19
  -2   8   4  412.55   54.64
  -2   8   5   14.80    9.72
  -2   8   5    5.36    4.95
  -2   8   6   88.64   24.94
  -2   8   6   71.67   22.68
  -2   8   7   64.36   20.77
  -2   9  -3  208.17   39.00
  -2   9  -2   61.22   20.94
  -2   9  -1  104.17   27.54
  -2   9   0  276.98   44.16
  -2   9   1   47.25   18.62
  -2   9   2   95.93   26.56
  -2   9   3   52.33   19.22
  -2   9   3   31.48   14.09
  -2   9   4   74.88   26.49
  -2   9   5   -4.68    4.16
  -1 -10  -5  -11.50    9.06
  -1 -10  -4   37.66   15.38
  -1 -10  -3  122.61   28.41
  -1 -10  -2    7.95    8.27
  -1 -10  -1  151.39   30.91
  -1 -10   0  126.96   28.48
  -1 -10   1    9.54   10.65
  -1 -10   2   66.64   21.71
  -1 -10   3   35.17   17.60
  -1  -9  -8   28.22   13.45
  -1  -9  -7  102.27   22.96
  -1  -9  -6   75.30   20.04
  -1  -9  -5    1.19    2.25
  -1  -9  -4   39.40   14.07
  -1  -9  -3   17.90   10.96
  -1  -9  -2   61.61   18.59
  -1  -9  -1    9.99    8.35
  -1  -9   0   66.35   20.28
  -1  -9   1   11.67    7.73
  -1  -9   2  133.53   30.21
  -1  -9   3  103.46   26.00
  -1  -9   4  119.35   26.49
  -1  -9   4  108.31   26.96
  -1  -9   5  253.44   39.24
  -1  -9   5  313.40   48.67
  -1  -9   6   32.53   15.99
  -1  -9   6   25.13   11.68
  -1  -9   7    8.04    8.80
  -1  -9   8   38.36   18.35
  -1  -8 -10    0.08    6.25
  -1  -8  -9  119.45   23.22
  -1  -8  -8   98.92   22.16
  -1  -8  -7   51.41   15.78
  -1  -8  -6   52.96   15.64
  -1  -8  -5  138.87   25.33
  -1  -8  -4  124.31   24.19
  -1  -8  -3   14.07    8.02
  -1  -8  -2  471.01   48.93
  -1  -8  -1   22.19   11.21
  -1  -8   0  282.38   38.77
  -1  -8   1  522.81   54.36
  -1  -8   2  435.93   50.51
  -1  -8   3  191.08   33.70
  -1  -8   4   34.00   15.74
  -1  -8   4   63.40   20.12
  -1  -8   5  148.22   29.22
  -1  -8   5  192.28   35.35
  -1  -8   6   36.57   16.58
  -1  -8   6   36.61   14.85
  -1  -8   7  441.14   53.46
  -1  -8   7  575.67   66.30
  -1  -8   8    6.64    9.67
  -1  -8   8    1.73    2.93
  -1  -8   9   32.91   15.53
  -1  -8  10   71.27   22.37
  -1  -7 -12   32.81   12.53
  -1  -7 -11  110.58   21.93
  -1  -7 -10    0.49    5.00
  -1  -7  -9  295.79   36.33
  -1  -7  -8    9.38    7.22
  -1  -7  -7  292.44   35.25
  -1  -7  -6  200.56   29.03
  -1  -7  -5  226.62   30.51
  -1  -7  -4  217.75   29.85
  -1  -7  -3   55.92   14.89
  -1  -7  -2   17.59    8.33
  -1  -7  -1  183.38   28.16
  -1  -7   0   61.29   16.55
  -1  -7   1  151.33   27.20
  -1  -7   2   42.89   14.36
  -1  -7   3  620.61   56.99
  -1  -7   4  170.94   29.70
  -1  -7   4  405.30   46.96
  -1  -7   5  439.23   47.73
  -1  -7   5  448.29   51.24
  -1  -7   6   34.87   12.25
  -1  -7   7  300.27   40.70
  -1  -7   8   33.69   14.81
  -1  -7   9  122.96   27.26
  -1  -7  10   27.66   14.65
  -1  -7  11   16.42   12.03
  -1  -6 -14   46.68   15.60
  -1  -6 -13   97.03   22.11
  -1  -6 -12   31.78   12.35
  -1  -6 -11  505.55   48.17
  -1  -6 -10  138.85   23.82
  -1  -6  -9  368.29   38.89
  -1  -6  -8  560.22   47.58
  -1  -6  -7  651.46   50.66
  -1  -6  -6    8.49    6.95
  -1  -6  -5  139.83   21.94
  -1  -6  -4  159.24   23.86
  -1  -6  -3   15.65    7.32
  -1  -6  -2  451.52   40.96
  -1  -6  -1  306.36   34.57
  -1  -6   0   -1.50    2.60
  -1  -6   1  167.65   26.07
  -1  -6   2  405.39   41.87
  -1  -6   3   31.04   11.41
  -1  -6   4    0.13    3.43
  -1  -6   5  682.47   58.07
  -1  -6   5  953.29   48.85
  -1  -6   6   53.70   13.89
  -1  -6   6   -0.87    5.92
  -1  -6   7  223.90   33.71
  -1  -6   7  211.95   23.49
  -1  -6   8   90.14   15.67
  -1  -6   8   96.64   23.09
  -1  -6   9  157.44   30.85
  -1  -6   9  127.70   19.61
  -1  -6  10  179.37   34.19
  -1  -6  11   -4.87    7.92
  -1  -6  12   82.22   26.04
  -1  -5 -15   95.03   23.60
  -1  -5 -14   13.66   10.09
  -1  -5 -13  219.04   32.70
  -1  -5 -13  180.63   31.82
  -1  -5 -12   40.23   13.37
  -1  -5 -11  300.01   35.60
  -1  -5 -10  506.61   44.95
  -1  -5  -9   68.67   15.75
  -1  -5  -8   92.12   17.68
  -1  -5  -7  124.12   20.15
  -1  -5  -6  462.58   39.02
  -1  -5  -5  234.81   29.54
  -1  -5  -5  240.81   27.40
  -1  -5  -4  152.06   21.58
  -1  -5  -4  171.07   24.52
  -1  -5  -3  101.53   17.46
  -1  -5  -3  113.65   19.80
  -1  -5  -2  310.32   31.19
  -1  -5  -2  333.55   33.68
  -1  -5  -1  110.47   18.44
  -1  -5   0  236.64   28.17
  -1  -5   1  631.78   47.16
  -1  -5   1  761.53   52.23
  -1  -5   2   18.42    9.73
  -1  -5   2   25.98    9.54
  -1  -5   3  651.54   53.86
  -1  -5   4  135.46   15.85
  -1  -5   5  112.86   21.79
  -1  -5   5  104.27   14.40
  -1  -5   6  347.24   22.61
  -1  -5   6  356.23   38.65
  -1  -5   6  290.26   25.47
  -1  -5   7  247.72   19.46
  -1  -5   7  206.57   22.37
  -1  -5   8  337.22   21.48
  -1  -5   8  417.49   32.44
  -1  -5   8  323.74   40.92
  -1  -5   9   20.18    8.08
  -1  -5   9   24.79   12.09
  -1  -5  10  181.39   33.67
  -1  -5  10  147.70   21.68
  -1  -5  11    0.69    4.71
  -1  -5  11    2.85    5.02
  -1  -5  12   43.58   17.89
  -1  -5  13  217.82   42.54
  -1  -4 -15   17.22    7.38
  -1  -4 -15   17.87    8.95
  -1  -4 -14    7.83    8.00
  -1  -4 -14    4.59    6.96
  -1  -4 -13  425.82   45.77
  -1  -4 -13  419.18   45.80
  -1  -4 -12  221.40   31.35
  -1  -4 -12  183.11   29.35
  -1  -4 -11  231.18   30.68
  -1  -4 -10  386.77   38.47
  -1  -4  -9  151.83   22.62
  -1  -4  -8  422.09   36.88
  -1  -4  -8  388.02   44.00
  -1  -4  -7  400.36   34.65
  -1  -4  -7  333.51   38.82
  -1  -4  -6  508.19   39.29
  -1  -4  -6  620.28   48.61
  -1  -4  -5  183.83   22.55
  -1  -4  -5  168.28   23.26
  -1  -4  -4 1099.06   56.44
  -1  -4  -4 1039.63   59.76
  -1  -4  -3   16.87    6.76
  -1  -4  -2  326.87   28.74
  -1  -4  -1  732.88   45.56
  -1  -4   0  411.66   33.52
  -1  -4   1  675.99   43.87
  -1  -4   2    4.68    5.85
  -1  -4   3 2176.03   96.04
  -1  -4   3 2348.14   72.22
  -1  -4   4   20.80    9.62
  -1  -4   4   18.26    8.73
  -1  -4   4   27.52    5.96
  -1  -4   5 1326.99   52.78
  -1  -4   5 1349.91   73.25
  -1  -4   5 1397.90   67.90
  -1  -4   6  891.87   37.74
  -1  -4   6  881.39   58.58
  -1  -4   6  919.69   51.75
  -1  -4   6  754.36   40.36
  -1  -4   7    4.43    3.79
  -1  -4   7    1.26    3.48
  -1  -4   7    0.22    1.91
  -1  -4   7    2.30    3.11
  -1  -4   8   60.76   17.52
  -1  -4   8   46.27    7.62
  -1  -4   8   59.52   11.90
  -1  -4   9    2.80    2.32
  -1  -4   9    7.92    9.22
  -1  -4   9    1.44    3.86
  -1  -4  10   18.12   11.17
  -1  -4  10   17.54    7.03
  -1  -4  11   21.53   10.09
  -1  -4  11   20.74    7.33
  -1  -4  12  350.86   50.78
  -1  -4  12  261.25   32.36
  -1  -4  13   10.67   10.98
  -1  -4  13   -6.42    5.44
  -1  -3 -16    8.42    5.22
  -1  -3 -15  301.01   38.55
  -1  -3 -14   -0.62    4.78
  -1  -3 -14    6.22    6.87
  -1  -3 -13  245.50   34.70
  -1  -3 -13  241.50   31.79
  -1  -3 -12  154.55   26.35
  -1  -3 -12  128.58   23.11
  -1  -3 -11  427.78   42.02
  -1  -3 -10  227.28   28.76
  -1  -3  -9  142.40   21.25
  -1  -3  -8 1002.03   66.08
  -1  -3  -8 1102.78   59.79
  -1  -3  -7    9.85    5.40
  -1  -3  -7    4.98    4.36
  -1  -3  -7    5.34    1.75
  -1  -3  -6  421.63   34.67
  -1  -3  -6  395.97   31.68
  -1  -3  -5    1.40    3.24
  -1  -3  -5    0.56    0.56
  -1  -3  -4 1159.99   66.85
  -1  -3  -4 1320.20   58.39
  -1  -3  -3  953.09   47.65
  -1  -3  -2  936.48   45.98
  -1  -3  -1 1442.99   60.75
  -1  -3   0   -0.79    1.42
  -1  -3   1 1147.13   54.09
  -1  -3   2   28.52    7.71
  -1  -3   2   51.96    8.24
  -1  -3   3  367.13   32.05
  -1  -3   3  378.36   20.07
  -1  -3   4 3040.74   77.30
  -1  -3   4 1951.61   86.65
  -1  -3   5  728.94   34.03
  -1  -3   5  787.85   32.73
  -1  -3   5  605.01   44.31
  -1  -3   5  745.41   41.49
  -1  -3   6  334.18   21.66
  -1  -3   6  417.08   37.92
  -1  -3   6  342.57   26.35
  -1  -3   6  338.83   24.07
  -1  -3   7  711.19   32.08
  -1  -3   7  627.23   50.32
  -1  -3   7  607.60   38.71
  -1  -3   8  736.94   34.77
  -1  -3   8  682.84   40.51
  -1  -3   8  738.27   57.75
  -1  -3   9  454.03   48.01
  -1  -3   9  406.61   32.72
  -1  -3  10  591.58   58.27
  -1  -3  10  540.12   40.11
  -1  -3  11   42.50   11.90
  -1  -3  11   40.48   16.91
  -1  -3  12   64.82   15.23
  -1  -3  12   61.10   21.07
  -1  -3  13  206.64   29.02
  -1  -3  14   76.15   18.42
  -1  -2 -16   12.29    7.08
  -1  -2 -15  160.56   26.05
  -1  -2 -14   38.26   12.61
  -1  -2 -13  166.19   29.12
  -1  -2 -13  152.56   23.61
  -1  -2 -12    9.16    4.85
  -1  -2 -12   18.58    9.17
  -1  -2 -11  137.53   23.09
  -1  -2 -11  144.32   21.82
  -1  -2 -10  296.85   32.43
  -1  -2  -9  260.04   28.90
  -1  -2  -8  934.49   57.59
  -1  -2  -8  953.31   54.29
  -1  -2  -7    7.73    5.89
  -1  -2  -7    4.13    2.67
  -1  -2  -6 6523.61  175.38
  -1  -2  -6 6892.33  171.34
  -1  -2  -5   80.76   13.51
  -1  -2  -5   78.97   12.55
  -1  -2  -4  408.82   30.10
  -1  -2  -4  503.93   30.82
  -1  -2  -3  130.08   13.79
  -1  -2  -3  133.33   14.68
  -1  -2  -3  129.16   17.29
  -1  -2  -2  551.36   30.16
  -1  -2  -1 5394.98  139.79
  -1  -2   0   50.09    8.60
  -1  -2   1   84.91   10.60
  -1  -2   1   83.92   11.62
  -1  -2   2  116.43    7.25
  -1  -2   2  131.71   13.67
  -1  -2   3 3176.88  100.19
  -1  -2   3 3397.10   81.43
  -1  -2   4   74.90    8.86
  -1  -2   4   70.63   10.16
  -1  -2   4   70.85    8.15
  -1  -2   5  340.90   21.46
  -1  -2   5  319.49   21.42
  -1  -2   6 1406.69   63.47
  -1  -2   6 1517.75   51.71
  -1  -2   6 1446.27   56.45
  -1  -2   7    5.98    2.09
  -1  -2   7   14.10    4.29
  -1  -2   8  287.03   29.66
  -1  -2   8  360.76   38.99
  -1  -2   8  245.72   29.06
  -1  -2   8  346.23   24.60
  -1  -2   9  175.57   29.19
  -1  -2   9  154.82   22.95
  -1  -2  10   21.02    8.49
  -1  -2  10   18.84    9.42
  -1  -2  11   38.38   13.20
  -1  -2  11   51.49   17.66
  -1  -2  12  203.89   30.88
  -1  -2  13  152.82   28.01
  -1  -2  14    1.13    7.16
  -1  -2  16   24.17   14.28
  -1  -1 -15   61.72   16.59
  -1  -1 -15   60.89   15.04
  -1  -1 -14   47.22   13.44
  -1  -1 -13  144.81   21.59
  -1  -1 -12  584.11   42.59
  -1  -1 -11  109.69   17.36
  -1  -1 -11   86.94   18.29
  -1  -1 -10 1091.74   66.09
  -1  -1 -10 1108.18   57.56
  -1  -1  -9   83.06   15.94
  -1  -1  -8 1277.75   66.92
  -1  -1  -8 1545.24   70.53
  -1  -1  -8 1461.30   79.42
  -1  -1  -7   99.68   15.83
  -1  -1  -7  102.25   15.96
  -1  -1  -6   96.20   14.44
  -1  -1  -6  122.01   16.25
  -1  -1  -5 1957.61   70.18
  -1  -1  -5 1936.76   70.04
  -1  -1  -4 1089.54   45.71
  -1  -1  -4 1156.64   46.86
  -1  -1  -3  122.19   11.93
  -1  -1  -3  108.03   11.70
  -1  -1  -3  136.92    9.27
  -1  -1  -2  379.20   18.56
  -1  -1  -2  341.52   20.36
  -1  -1  -2  312.03   15.05
  -1  -1  -1 6387.30  149.51
  -1  -1  -1 6346.65  143.63
  -1  -1   0  244.73   16.41
  -1  -1   0  270.27   16.70
  -1  -1   0  279.41   16.42
  -1  -1   1  807.58   29.18
  -1  -1   2  847.79   31.61
  -1  -1   2 1019.31   34.10
  -1  -1   3  142.99   12.17
  -1  -1   3  168.78   12.97
  -1  -1   3  142.89   10.84
  -1  -1   4  682.53   32.46
  -1  -1   4  624.49   28.94
  -1  -1   4  719.61   27.78
  -1  -1   5  810.54   39.89
  -1  -1   5  876.74   35.97
  -1  -1   6  406.37   29.12
  -1  -1   6  435.76   32.68
  -1  -1   6  461.18   25.93
  -1  -1   7   43.09   10.42
  -1  -1   7   43.59    8.17
  -1  -1   7   36.76   10.08
  -1  -1   8  679.15   44.20
  -1  -1   8  691.29   46.38
  -1  -1   9  398.89   36.48
  -1  -1   9  448.83   44.94
  -1  -1   9  347.62   32.74
  -1  -1  10  962.59   60.35
  -1  -1  11  750.39   55.21
  -1  -1  12   -1.76    0.81
  -1  -1  13  241.30   34.60
  -1  -1  14   16.28    9.50
  -1  -1  15   11.93    9.51
  -1   0 -16   26.11   12.72
  -1   0 -15  608.25   50.82
  -1   0 -14   81.76   17.88
  -1   0 -14  105.03   18.26
  -1   0 -13   13.81    8.27
  -1   0 -13   15.71    7.52
  -1   0 -12   90.96   17.65
  -1   0 -12   91.42   15.36
  -1   0 -11   33.18    8.72
  -1   0 -10  107.78   16.40
  -1   0  -9   79.19   11.91
  -1   0  -9   87.83   17.22
  -1   0  -8 1371.40   69.78
  -1   0  -8 1540.81   72.65
  -1   0  -8 1554.77   59.44
  -1   0  -7 1075.96   55.46
  -1   0  -7 1056.72   61.88
  -1   0  -7 1106.90   56.38
  -1   0  -6 1568.39   72.49
  -1   0  -6 1442.54   62.61
  -1   0  -5  418.29   27.28
  -1   0  -5  382.29   26.76
  -1   0  -5  326.04   28.02
  -1   0  -4   61.83   10.91
  -1   0  -4   69.77   11.46
  -1   0  -4  103.58    9.90
  -1   0  -3 2495.17   68.00
  -1   0  -3 2595.93   73.92
  -1   0  -3 2386.66   67.04
  -1   0  -2   70.16    7.09
  -1   0  -2   94.59   11.96
  -1   0   2 2288.36   66.39
  -1   0   2 2186.79   61.60
  -1   0   2 2368.90   66.27
  -1   0   2 2385.23   66.54
  -1   0   3 2380.16   67.37
  -1   0   3 2547.33   67.32
  -1   0   3 2577.57   76.34
  -1   0   4 2263.48   76.77
  -1   0   4 1979.42   66.03
  -1   0   4 1932.06   63.88
  -1   0   4 2341.53   61.72
  -1   0   4 1958.09   62.36
  -1   0   5 1186.97   49.49
  -1   0   5 1032.38   45.97
  -1   0   5 1093.99   44.88
  -1   0   6  728.04   40.07
  -1   0   6  831.44   42.30
  -1   0   7   25.35    9.29
  -1   0   7   10.45    5.59
  -1   0   8  150.85   20.20
  -1   0   8  156.04   20.08
  -1   0   9  263.41   28.18
  -1   0   9  239.33   27.50
  -1   0  10    5.04    4.54
  -1   0  11  721.80   53.70
  -1   0  12   16.37    9.93
  -1   0  13  335.66   40.09
  -1   0  14   19.11   10.93
  -1   0  15  649.45   62.03
  -1   1 -16   -1.62    2.86
  -1   1 -15   65.06   16.52
  -1   1 -14  158.52   25.50
  -1   1 -13  153.68   19.99
  -1   1 -13  173.86   24.80
  -1   1 -12  477.55   34.02
  -1   1 -12  489.34   41.21
  -1   1 -11   20.57    8.73
  -1   1 -11   22.59    6.82
  -1   1 -10 1448.60   55.90
  -1   1 -10 1312.79   67.50
  -1   1  -9  106.13   12.27
  -1   1  -9  101.67   16.47
  -1   1  -8  268.58   27.20
  -1   1  -8  247.94   17.88
  -1   1  -8  244.53   24.15
  -1   1  -8  237.42   29.59
  -1   1  -8  260.24   14.86
  -1   1  -7    0.25    0.24
  -1   1  -7    1.93    1.26
  -1   1  -6  657.76   26.00
  -1   1  -6  618.23   36.06
  -1   1  -6  646.56   43.25
  -1   1  -5 1018.28   45.67
  -1   1  -5 1049.79   52.19
  -1   1  -4  852.51   43.14
  -1   1  -4 1027.36   40.83
  -1   1  -4  938.02   40.41
  -1   1  -3 1321.69   50.74
  -1   1  -3 1443.41   50.59
  -1   1  -2   56.05    7.00
  -1   1  -2   70.43    8.47
  -1   1  -1 7642.51  170.46
  -1   1  -1 7661.65  171.18
  -1   1   0 6117.74  137.86
  -1   1   0 6379.82  142.39
  -1   1   1 8660.39  188.96
  -1   1   1 8886.56  192.71
  -1   1   1 8627.32  194.81
  -1   1   2 3873.08  100.25
  -1   1   2 3911.04   88.31
  -1   1   2 3751.82   84.94
  -1   1   2 3564.15   92.44
  -1   1   3  122.22   12.98
  -1   1   3  103.96    8.54
  -1   1   3  110.12   10.32
  -1   1   4   13.27    4.82
  -1   1   4   12.62    3.65
  -1   1   5 3171.64  101.36
  -1   1   5 3274.24   92.23
  -1   1   6    3.92    2.48
  -1   1   6    4.38    3.40
  -1   1   7   22.17    6.40
  -1   1   7   21.07    6.94
  -1   1   8 1005.75   56.43
  -1   1   8 1000.12   52.37
  -1   1   9  349.89   33.26
  -1   1   9  327.45   30.60
  -1   1  10  267.79   30.55
  -1   1  10  223.12   27.04
  -1   1  11  311.30   34.85
  -1   1  12   58.93   16.40
  -1   1  13  262.28   35.14
  -1   1  14   20.55   11.01
  -1   1  15   53.38   16.92
  -1   2 -16   46.20   17.48
  -1   2 -15   56.03   16.66
  -1   2 -14   49.64   15.13
  -1   2 -13   15.65    9.05
  -1   2 -12  300.17   21.57
  -1   2 -12  273.99   33.14
  -1   2 -11   97.24   11.30
  -1   2 -11  107.68   19.84
  -1   2 -10  617.49   28.86
  -1   2 -10  604.10   45.88
  -1   2  -9   18.90    7.96
  -1   2  -9   18.55    4.27
  -1   2  -8  970.84   54.83
  -1   2  -8  885.26   31.11
  -1   2  -8  958.30   54.11
  -1   2  -7  750.94   49.99
  -1   2  -7  763.23   44.63
  -1   2  -6  133.92   17.96
  -1   2  -6  109.63   18.50
  -1   2  -5   48.62   10.23
  -1   2  -5   49.93   10.77
  -1   2  -4 2411.84   81.45
  -1   2  -4 2544.82   84.07
  -1   2  -3  701.99   35.39
  -1   2  -3  744.22   35.15
  -1   2  -3  848.99   40.32
  -1   2  -2   41.79   10.31
  -1   2  -2   36.88    7.26
  -1   2  -1 1619.25   56.16
  -1   2  -1 1442.58   58.03
  -1   2   0  431.37   24.96
  -1   2   0  425.80   26.74
  -1   2   1   49.63    8.43
  -1   2   2  568.75   25.42
  -1   2   2  477.85   28.41
  -1   2   2  529.08   21.34
  -1   2   2  511.89   26.21
  -1   2   3    2.58    3.20
  -1   2   3    8.34    4.11
  -1   2   3    4.18    6.12
  -1   2   3   10.04    6.29
  -1   2   4 1858.98   70.07
  -1   2   4 1727.11   55.73
  -1   2   4 1649.52   52.16
  -1   2   5  625.63   39.57
  -1   2   5  585.59   30.98
  -1   2   6 1922.47   75.41
  -1   2   6 1459.02   59.27
  -1   2   7   89.20   16.43
  -1   2   7   80.46   13.01
  -1   2   8  111.10   19.60
  -1   2   8   98.86   14.91
  -1   2   9  327.54   36.24
  -1   2   9  295.16   29.16
  -1   2  10  170.80   26.33
  -1   2  10  152.44   22.11
  -1   2  11  313.30   36.19
  -1   2  12  114.56   22.97
  -1   2  13  235.15   33.41
  -1   2  14   59.29   18.30
  -1   3 -16   33.85   18.84
  -1   3 -15   14.72   10.66
  -1   3 -14  204.56   38.94
  -1   3 -13   38.69   16.86
  -1   3 -12  184.76   32.49
  -1   3 -11   22.30    9.89
  -1   3 -10  747.22   59.25
  -1   3  -9  881.65   62.46
  -1   3  -8   81.27   18.32
  -1   3  -8  113.80   20.96
  -1   3  -7  604.35   41.92
  -1   3  -7  535.72   44.38
  -1   3  -7  509.94   43.27
  -1   3  -6   -2.14    3.61
  -1   3  -6    9.59    5.84
  -1   3  -5  499.78   42.33
  -1   3  -4  307.61   31.51
  -1   3  -4  324.70   25.20
  -1   3  -3  255.75   27.92
  -1   3  -3  312.32   25.15
  -1   3  -2  982.32   46.08
  -1   3  -2  771.20   47.96
  -1   3  -1  301.65   24.84
  -1   3  -1  290.37   23.62
  -1   3   0  113.83   14.45
  -1   3   0  113.89   15.68
  -1   3   1  225.42   20.10
  -1   3   2 1769.31   64.38
  -1   3   2 1571.67   53.34
  -1   3   3  297.40   25.88
  -1   3   3  325.11   20.06
  -1   3   3  298.97   19.99
  -1   3   3  290.31   24.01
  -1   3   4  919.70   52.07
  -1   3   4  893.06   39.86
  -1   3   4  967.54   50.57
  -1   3   4 1013.30   37.28
  -1   3   5  276.90   27.57
  -1   3   5  265.90   20.93
  -1   3   5  252.44   16.03
  -1   3   6  906.04   54.56
  -1   3   6  782.54   41.68
  -1   3   7  328.21   33.02
  -1   3   7  319.95   27.05
  -1   3   8   64.33   13.23
  -1   3   8   71.28   15.43
  -1   3   9  488.37   44.09
  -1   3   9  478.27   38.23
  -1   3  10  220.07   31.14
  -1   3  10  225.30   27.27
  -1   3  11   67.03   17.51
  -1   3  12   63.35   16.59
  -1   3  13   98.27   22.99
  -1   3  14  145.68   28.51
  -1   4 -15    4.43    7.17
  -1   4 -14    9.55   11.96
  -1   4 -13   20.41   13.57
  -1   4 -12  316.80   45.90
  -1   4 -11   54.38   18.82
  -1   4 -10  135.72   28.17
  -1   4  -9  200.53   34.64
  -1   4  -8    6.80    6.55
  -1   4  -7  162.26   28.71
  -1   4  -6   60.08   16.66
  -1   4  -5  787.25   56.50
  -1   4  -4  481.34   42.94
  -1   4  -3  712.05   47.88
  -1   4  -2  459.11   36.50
  -1   4  -2  403.98   31.53
  -1   4  -1  847.42   47.28
  -1   4  -1  878.96   50.77
  -1   4   0 2350.09   89.06
  -1   4   1   38.80    9.41
  -1   4   2 1711.49   72.75
  -1   4   3  168.55   21.71
  -1   4   3  175.67   21.24
  -1   4   3  171.31   23.01
  -1   4   3  160.83   16.45
  -1   4   4 1749.10   87.32
  -1   4   4 1957.83   70.80
  -1   4   4 2055.01   88.43
  -1   4   4 1919.85   62.01
  -1   4   5    2.17    1.43
  -1   4   5    0.37    3.25
  -1   4   6  383.49   37.15
  -1   4   6  335.32   27.63
  -1   4   6  318.91   17.40
  -1   4   7 1397.43   78.63
  -1   4   7 1353.54   63.43
  -1   4   8   26.01    7.94
  -1   4   8   36.71   12.55
  -1   4   9  251.60   34.15
  -1   4   9  250.11   28.06
  -1   4  10  121.37   23.35
  -1   4  10  159.23   23.34
  -1   4  11  195.67   32.09
  -1   4  12   94.10   23.43
  -1   4  13  178.34   32.87
  -1   5 -14  305.50   47.54
  -1   5 -13   -7.48    8.45
  -1   5 -12   69.01   23.90
  -1   5 -11   30.30   15.27
  -1   5 -10   81.33   23.10
  -1   5  -9   43.01   16.79
  -1   5  -8  187.86   31.22
  -1   5  -7  634.83   56.03
  -1   5  -6   76.71   17.46
  -1   5  -5  226.40   30.34
  -1   5  -5  218.04   24.64
  -1   5  -4  179.94   26.32
  -1   5  -4  164.02   21.93
  -1   5  -3 1037.99   63.73
  -1   5  -3  964.15   54.18
  -1   5  -2  539.98   44.43
  -1   5  -2  490.57   38.45
  -1   5  -1   17.99    8.06
  -1   5  -1   12.57    6.06
  -1   5   0 1203.75   66.18
  -1   5   0 1171.85   65.49
  -1   5   1    7.93    5.92
  -1   5   1    8.38    5.90
  -1   5   2 1012.08   59.10
  -1   5   2  862.53   57.97
  -1   5   3   26.20   10.33
  -1   5   3   37.08   11.28
  -1   5   4 1629.40   80.94
  -1   5   4 1397.61   62.96
  -1   5   4 1482.29   80.12
  -1   5   4 1378.55   55.00
  -1   5   5  453.64   45.66
  -1   5   5  531.91   46.75
  -1   5   5  546.55   36.73
  -1   5   5  479.52   27.07
  -1   5   6  602.88   52.21
  -1   5   6  691.79   44.00
  -1   5   6  616.98   26.08
  -1   5   7   24.51   11.65
  -1   5   7   16.82    7.70
  -1   5   8   88.00   19.57
  -1   5   8   99.17   17.40
  -1   5   9   45.03   14.53
  -1   5   9   40.51   12.01
  -1   5  10    4.88    7.70
  -1   5  11   25.81   12.30
  -1   5  12  177.77   33.31
  -1   5  13  145.73   32.09
  -1   6 -12  145.32   31.72
  -1   6 -11  257.49   56.81
  -1   6 -10  107.83   25.98
  -1   6  -9  265.49   39.56
  -1   6  -8   20.63   11.18
  -1   6  -7   77.97   20.02
  -1   6  -6   80.04   19.80
  -1   6  -5  422.05   45.17
  -1   6  -4    1.35    6.38
  -1   6  -3    5.09    4.82
  -1   6  -3    5.81    4.48
  -1   6  -2 2259.36  104.01
  -1   6  -2 1734.75   86.01
  -1   6  -1   35.64   12.49
  -1   6   0  648.02   52.45
  -1   6   1  267.16   32.98
  -1   6   2  867.26   61.39
  -1   6   3   40.12   13.67
  -1   6   4  231.80   31.38
  -1   6   4  172.44   28.58
  -1   6   5    5.63    8.08
  -1   6   5    5.52    3.48
  -1   6   5    4.27    3.82
  -1   6   5   14.13   10.53
  -1   6   6   87.19   21.44
  -1   6   6   79.81    9.94
  -1   6   6  111.54   18.17
  -1   6   7  479.28   49.92
  -1   6   7  496.07   40.39
  -1   6   8  146.83   28.23
  -1   6   9  258.76   38.97
  -1   6  10  104.41   23.52
  -1   6  11  113.94   26.86
  -1   6  12   33.20   16.03
  -1   7 -10   -2.05    0.37
  -1   7  -9  275.99   42.72
  -1   7  -8   59.78   19.36
  -1   7  -7  101.77   25.00
  -1   7  -6   49.83   16.04
  -1   7  -5   27.01   11.65
  -1   7  -4  324.48   41.64
  -1   7  -3   -3.55    6.03
  -1   7  -2   18.11   10.67
  -1   7  -1   48.24   15.78
  -1   7   0  455.73   47.87
  -1   7   1    5.70    2.44
  -1   7   2  209.91   32.64
  -1   7   3  636.39   58.99
  -1   7   4  220.10   32.59
  -1   7   4  190.95   33.29
  -1   7   5  340.72   45.82
  -1   7   5  514.73   55.83
  -1   7   6    8.90    9.77
  -1   7   7  195.58   34.44
  -1   7   8  168.63   32.36
  -1   7   9   75.57   21.68
  -1   7  10   21.81   11.54
  -1   8  -8   48.94   19.43
  -1   8  -7  310.22   47.11
  -1   8  -6    5.88    8.53
  -1   8  -5   48.03   17.56
  -1   8  -4  112.10   27.24
  -1   8  -3   48.90   18.02
  -1   8  -2  739.24   68.14
  -1   8  -1    0.84    5.15
  -1   8   0  518.09   55.67
  -1   8   1  132.26   27.97
  -1   8   2  365.04   47.84
  -1   8   3  119.55   28.78
  -1   8   4   51.72   16.41
  -1   8   4   20.08   11.75
  -1   8   5  255.71   41.94
  -1   8   5  347.60   50.28
  -1   8   6   -0.68    4.54
  -1   8   7  153.73   32.24
  -1   8   8   27.83   14.38
  -1   9  -4  153.92   32.94
  -1   9  -3   10.39    7.08
  -1   9  -2  102.52   27.12
  -1   9  -1    4.58    5.05
  -1   9   0  256.56   42.81
  -1   9   1   46.39   19.12
  -1   9   2  190.24   37.76
  -1   9   3  356.04   48.38
  -1   9   3  272.30   47.64
  -1   9   4   23.65    9.52
  -1   9   4   10.02    8.98
  -1   9   5  107.04   29.88
  -1   9   5  199.34   41.90
   0 -10  -2   49.09   16.13
   0 -10  -1    9.01    4.09
   0 -10   0   10.97    7.35
   0 -10   1   59.79   20.20
   0 -10   2   10.59   10.41
   0 -10   3  124.96   30.37
   0 -10   4   24.88   14.55
   0  -9  -5    4.81    2.35
   0  -9  -4   17.42    8.69
   0  -9  -3  147.32   26.39
   0  -9  -2   94.20   21.16
   0  -9  -1  338.32   42.46
   0  -9   0    9.58    7.63
   0  -9   1  500.08   55.37
   0  -9   2  188.73   34.47
   0  -9   3  127.39   29.00
   0  -9   3  116.00   24.52
   0  -9   4  152.95   31.03
   0  -9   4  105.26   22.91
   0  -9   5   24.31   14.89
   0  -9   5    0.68    3.39
   0  -9   6  234.25   42.21
   0  -9   7   37.10   20.76
   0  -8  -9   57.68   18.28
   0  -8  -8  202.91   28.93
   0  -8  -7   73.23   17.26
   0  -8  -6  483.74   44.63
   0  -8  -5   36.19   12.36
   0  -8  -4  718.13   56.40
   0  -8  -3   91.84   18.80
   0  -8  -2   15.74    7.70
   0  -8  -1  466.37   47.76
   0  -8   0  326.03   40.51
   0  -8   1   67.60   19.37
   0  -8   2  136.26   27.24
   0  -8   3  191.52   29.38
   0  -8   3  242.79   36.79
   0  -8   4  179.39   32.97
   0  -8   4  121.54   23.70
   0  -8   5  277.15   36.08
   0  -8   5  269.39   41.61
   0  -8   6  153.33   28.17
   0  -8   6  109.26   28.34
   0  -8   7   17.50    9.21
   0  -8   8  120.13   26.17
   0  -8   9    2.91    3.39
   0  -8  10   11.15    2.45
   0  -7 -11  178.10   27.80
   0  -7 -10  604.81   49.92
   0  -7 -10  548.40   56.82
   0  -7  -9   13.25    6.46
   0  -7  -8  641.01   49.98
   0  -7  -7   18.60    8.40
   0  -7  -6  375.73   36.85
   0  -7  -5    1.15    1.81
   0  -7  -4  314.89   33.86
   0  -7  -3  737.21   52.89
   0  -7  -2   46.93   13.31
   0  -7  -1  395.39   39.83
   0  -7   0  287.41   34.46
   0  -7   1  437.85   44.19
   0  -7   2  303.45   36.82
   0  -7   3  169.24   28.51
   0  -7   4  174.83   26.77
   0  -7   4  163.28   29.80
   0  -7   5    8.34    5.85
   0  -7   5    1.61    2.06
   0  -7   6  104.66   22.31
   0  -7   6  105.76   20.26
   0  -7   7   37.85   13.19
   0  -7   7   34.39   12.32
   0  -7   8  174.34   32.43
   0  -7   8  179.37   25.94
   0  -7   9   39.31   17.53
   0  -7  10  205.98   38.02
   0  -7  11   69.71   21.76
   0  -6 -13  184.49   28.77
   0  -6 -12   59.40   16.29
   0  -6 -12   65.41   19.56
   0  -6 -11    7.85    6.23
   0  -6 -11   16.82    9.22
   0  -6 -10  334.76   35.71
   0  -6 -10  345.37   41.89
   0  -6  -9   17.77    7.19
   0  -6  -8  218.54   26.44
   0  -6  -7    0.41    1.61
   0  -6  -6  563.24   42.99
   0  -6  -5  291.92   30.17
   0  -6  -4  145.80   21.24
   0  -6  -3  240.48   26.99
   0  -6  -2   50.13   12.32
   0  -6  -1  574.86   44.67
   0  -6   0   24.28    9.36
   0  -6   1  261.82   30.48
   0  -6   2   90.63   18.67
   0  -6   3    3.57    3.58
   0  -6   3   -0.81    5.38
   0  -6   4  336.95   36.15
   0  -6   4  317.10   31.68
   0  -6   5    1.85    4.97
   0  -6   5    2.18    4.13
   0  -6   6  297.14   35.44
   0  -6   6  245.29   28.74
   0  -6   7  256.59   34.74
   0  -6   7  217.75   27.59
   0  -6   8   54.22   16.64
   0  -6   8   57.95   14.17
   0  -6   9   48.63   16.16
   0  -6   9   55.97   14.67
   0  -6  10   11.33    7.78
   0  -6  10   11.30    6.26
   0  -6  11   91.66   24.26
   0  -6  12    5.28    1.19
   0  -5 -14   26.50   11.13
   0  -5 -13    5.96    5.68
   0  -5 -13    4.30    5.56
   0  -5 -12  533.67   47.87
   0  -5 -12  499.37   50.95
   0  -5 -11    2.57    1.38
   0  -5 -11    5.82    6.60
   0  -5 -10  261.22   29.86
   0  -5 -10  247.25   33.39
   0  -5  -9  119.31   19.35
   0  -5  -8  377.82   33.78
   0  -5  -7  282.47   28.03
   0  -5  -7  295.10   32.90
   0  -5  -6  156.16   20.78
   0  -5  -6  126.11   20.90
   0  -5  -5  316.25   29.39
   0  -5  -5  336.53   33.73
   0  -5  -4   48.51   12.33
   0  -5  -4   44.13   11.09
   0  -5  -3 1486.15   73.05
   0  -5  -3 1233.76   61.01
   0  -5  -2   -0.19    1.40
   0  -5  -2    1.83    1.55
   0  -5  -1 1499.76   75.39
   0  -5  -1 1529.81   70.53
   0  -5   0  776.38   48.22
   0  -5   1 1081.10   59.37
   0  -5   2  575.23   38.41
   0  -5   2  606.13   45.54
   0  -5   3  488.87   46.80
   0  -5   3  630.01   40.49
   0  -5   4  623.98   46.06
   0  -5   4  574.36   39.86
   0  -5   5  297.39   31.65
   0  -5   5  233.40   25.36
   0  -5   6  168.59   11.42
   0  -5   6  198.19   27.12
   0  -5   6  168.04   22.18
   0  -5   7  333.29   30.93
   0  -5   7  310.92   35.90
   0  -5   8    4.02    5.75
   0  -5   8    4.67    5.89
   0  -5   9  172.75   30.68
   0  -5   9  133.79   22.01
   0  -5  10   34.76   14.39
   0  -5  10   51.19   14.23
   0  -5  11   62.72   16.34
   0  -5  11   85.89   24.10
   0  -5  12   -2.04    2.72
   0  -5  12    5.21    4.85
   0  -4 -14  202.75   31.50
   0  -4 -14  157.79   28.35
   0  -4 -13    9.52    8.07
   0  -4 -13   13.43    9.26
   0  -4 -12   96.00   20.87
   0  -4 -12  112.11   21.08
   0  -4 -11   14.46    8.70
   0  -4 -11    7.84    4.33
   0  -4 -10  490.03   41.32
   0  -4 -10  497.49   45.20
   0  -4  -9   14.02    8.57
   0  -4  -9    7.57    5.15
   0  -4  -8  268.57   26.79
   0  -4  -8  228.10   28.26
   0  -4  -7  101.43   15.96
   0  -4  -7  116.54   19.64
   0  -4  -6   24.68    7.92
   0  -4  -6   15.38    6.76
   0  -4  -5 1713.93   69.37
   0  -4  -4  111.06   15.14
   0  -4  -3 2101.82   76.35
   0  -4  -2  950.16   47.41
   0  -4  -1 1833.01   71.66
   0  -4   0   70.88   12.55
   0  -4   1 1012.72   48.30
   0  -4   1 1071.07   54.61
   0  -4   2 3042.42   97.37
   0  -4   3  316.20   25.49
   0  -4   4 1851.37   73.43
   0  -4   4 2254.43   87.42
   0  -4   5  839.75   49.41
   0  -4   5 1024.64   48.83
   0  -4   6  148.21   22.28
   0  -4   6  141.65    9.42
   0  -4   6  134.14   18.06
   0  -4   6  173.98   21.48
   0  -4   7  111.49   17.13
   0  -4   7  159.21   24.83
   0  -4   8  151.85   27.00
   0  -4   8  120.87   18.74
   0  -4   9  152.10   28.25
   0  -4   9  150.40   21.80
   0  -4  10    9.86    7.73
   0  -4  10   -2.47    4.19
   0  -4  11  272.79   42.28
   0  -4  11  221.15   30.31
   0  -4  12    5.41    6.05
   0  -4  13  121.01   23.84
   0  -4  14   83.29   20.32
   0  -3 -16  149.90   28.94
   0  -3 -15   50.87   16.54
   0  -3 -14  152.67   26.88
   0  -3 -13   44.88   14.45
   0  -3 -13   55.12   15.55
   0  -3 -12  295.13   35.18
   0  -3 -12  270.44   33.09
   0  -3 -11   19.59    7.81
   0  -3 -11   29.45   10.75
   0  -3 -11   10.12    7.46
   0  -3 -10  206.74   25.80
   0  -3 -10  204.52   26.84
   0  -3 -10  171.92   27.91
   0  -3  -9   37.98   11.26
   0  -3  -9   31.70   11.95
   0  -3  -9   31.67    9.66
   0  -3  -8 1556.13   69.76
   0  -3  -7 1026.93   61.61
   0  -3  -7  953.36   49.74
   0  -3  -6 1905.43   84.85
   0  -3  -6 1974.94   73.07
   0  -3  -5 3498.30  113.30
   0  -3  -5 3244.90  101.79
   0  -3  -4  215.72   19.83
   0  -3  -4  205.19   21.12
   0  -3  -3 1449.73   59.01
   0  -3  -3 1242.45   51.20
   0  -3  -2  355.48   23.87
   0  -3  -2  362.81   26.81
   0  -3  -1  657.31   34.12
   0  -3  -1  673.75   37.26
   0  -3   0 1664.03   61.16
   0  -3   1  704.93   34.33
   0  -3   2  795.03   37.47
   0  -3   3   11.88    4.82
   0  -3   3   10.52    4.09
   0  -3   4 1756.65   69.43
   0  -3   4 1683.51   66.31
   0  -3   5   12.87    4.82
   0  -3   5   17.05    3.12
   0  -3   5   22.57    6.16
   0  -3   6  807.96   26.71
   0  -3   6  772.64   42.76
   0  -3   6  786.97   51.15
   0  -3   6  775.25   44.65
   0  -3   7  636.30   40.60
   0  -3   7  713.43   53.28
   0  -3   8   42.62   11.40
   0  -3   8   39.61   13.44
   0  -3   9   39.04   10.91
   0  -3   9   36.45   13.64
   0  -3  10   36.75   14.13
   0  -3  10   28.93    9.92
   0  -3  11  135.88   22.30
   0  -3  12   36.56   13.14
   0  -3  13  241.62   32.96
   0  -3  14   -0.13    4.44
   0  -3  15   37.45   15.06
   0  -3  16   -5.73    0.35
   0  -2 -16  -12.59    7.36
   0  -2 -15   -0.46    1.27
   0  -2 -14  154.93   25.43
   0  -2 -13   13.36    6.46
   0  -2 -12   87.96   17.81
   0  -2 -12   88.20   13.22
   0  -2 -11   13.04    7.09
   0  -2 -11   10.50    4.54
   0  -2 -11    7.98    3.75
   0  -2 -10  526.00   42.28
   0  -2 -10  488.01   38.60
   0  -2 -10  451.61   28.28
   0  -2  -9  103.28   16.92
   0  -2  -9  116.60   18.01
   0  -2  -9  103.83   11.83
   0  -2  -8  191.14   25.55
   0  -2  -8  273.96   32.44
   0  -2  -8  242.56   24.88
   0  -2  -8  251.77   25.61
   0  -2  -8  196.20   15.04
   0  -2  -7 1403.02   60.38
   0  -2  -7 1244.26   40.77
   0  -2  -6  119.76   14.83
   0  -2  -6  129.58    8.72
   0  -2  -5  619.44   33.24
   0  -2  -5  698.31   41.45
   0  -2  -4   57.78    8.90
   0  -2  -4   76.48   12.27
   0  -2  -3 2279.11   71.18
   0  -2  -3 2236.86   64.06
   0  -2  -2  743.98   31.24
   0  -2  -2  724.47   33.79
   0  -2  -1  790.87   32.39
   0  -2  -1  816.09   35.36
   0  -2   0 4870.81  121.72
   0  -2   1   -0.13    1.16
   0  -2   2 2806.40   91.45
   0  -2   2 2986.21   79.85
   0  -2   3    1.13    1.38
   0  -2   3   -0.59    1.95
   0  -2   3   -0.72    1.43
   0  -2   4   52.22    5.13
   0  -2   4   55.00    8.52
   0  -2   4   67.56   11.78
   0  -2   4   70.10    9.59
   0  -2   5 1293.69   37.80
   0  -2   5 1260.89   50.57
   0  -2   5 1319.91   53.18
   0  -2   5 1333.05   61.90
   0  -2   6   15.87    5.32
   0  -2   7    7.83    5.10
   0  -2   8    5.95    5.37
   0  -2   8    5.84    5.37
   0  -2   8    7.07    4.99
   0  -2   9 1887.99   90.18
   0  -2   9 2271.59  108.33
   0  -2  10    7.20    5.79
   0  -2  11  544.23   48.95
   0  -2  12  426.10   45.50
   0  -2  13   26.43   11.47
   0  -2  14   24.68    9.86
   0  -2  15   77.37   20.08
   0  -2  16   13.03   11.78
   0  -1 -16  382.46   44.20
   0  -1 -15   23.70   11.39
   0  -1 -14  168.91   23.56
   0  -1 -14  197.09   27.80
   0  -1 -13   40.18   12.02
   0  -1 -13   23.93   11.07
   0  -1 -13   25.54    9.38
   0  -1 -12   14.79    7.16
   0  -1 -11   65.50   14.41
   0  -1 -10   88.17   15.02
   0  -1  -9  336.44   32.34
   0  -1  -9  343.55   28.76
   0  -1  -8  221.34   28.91
   0  -1  -8  193.48   22.62
   0  -1  -8  156.15   18.34
   0  -1  -7  491.78   41.01
   0  -1  -7  401.28   30.90
   0  -1  -7  429.90   29.84
   0  -1  -6   54.55   12.22
   0  -1  -6   51.04   10.40
   0  -1  -5 3676.53  107.04
   0  -1  -5 3946.45  121.80
   0  -1  -4  417.71   24.08
   0  -1  -3  353.15   19.13
   0  -1  -2 6933.80  156.84
   0  -1  -2 7097.28  164.35
   0  -1   2 7115.46  158.21
   0  -1   2 6903.96  155.97
   0  -1   2 7050.82  163.68
   0  -1   3  591.43   27.93
   0  -1   3  633.33   20.49
   0  -1   3  659.22   33.37
   0  -1   3  606.04   26.83
   0  -1   4 1113.41   44.94
   0  -1   4 1187.75   53.01
   0  -1   5  112.57   13.89
   0  -1   6   72.83   14.35
   0  -1   7  816.27   46.12
   0  -1   8  238.84   27.20
   0  -1   8  160.94   22.42
   0  -1   9    6.97    5.06
   0  -1  10 1837.26   86.13
   0  -1  11   74.46   16.71
   0  -1  12   82.24   18.52
   0  -1  13   70.47   18.23
   0  -1  14  202.02   33.69
   0  -1  15  106.03   24.82
   0   0 -15    6.95    4.99
   0   0 -15    5.01    7.04
   0   0 -14   87.13   18.38
   0   0 -14  101.97   17.69
   0   0 -13   63.40   13.45
   0   0 -13   59.81   14.48
   0   0 -12  402.30   35.72
   0   0 -12  586.85   41.17
   0   0 -11  332.60   29.50
   0   0 -11  303.10   28.42
   0   0 -10   16.79    6.64
   0   0 -10   20.00    7.38
   0   0  -9 1061.24   50.48
   0   0  -8   88.44   13.15
   0   0  -8   72.58   16.20
   0   0  -7  492.80   40.12
   0   0  -7  502.79   29.30
   0   0  -6   78.66   10.85
   0   0  -6   69.51   15.52
   0   0  -5   14.14    6.02
   0   0  -5    6.56    3.04
   0   0  -5    7.64    4.15
   0   0  -4  401.84   27.61
   0   0  -4  356.14   22.67
   0   0  -4  368.99   19.08
   0   0  -3 3252.22   89.82
   0   0  -3 3018.93   82.17
   0   0  -3 3037.57   76.69
   0   0   3 3110.38   79.64
   0   0   3 2845.30   80.00
   0   0   4  368.35   22.09
   0   0   4  321.12   21.46
   0   0   5    6.07    3.53
   0   0   5    8.56    4.11
   0   0   6   67.56   11.86
   0   0   6   50.78   11.01
   0   0   7  449.14   32.30
   0   0   7  476.91   34.79
   0   0   8   73.09   14.06
   0   0   8   61.22   12.85
   0   0   9 1080.52   59.14
   0   0   9  974.90   57.51
   0   0  10   22.00    9.00
   0   0  11  338.42   36.04
   0   0  12  604.15   50.86
   0   0  13   79.45   19.34
   0   0  14  129.52   25.14
   0   0  15   10.79    6.55
   0   1 -15   94.28   20.08
   0   1 -14  195.69   23.89
   0   1 -14  204.29   28.70
   0   1 -13   59.23   14.27
   0   1 -13   90.50   16.33
   0   1 -12   84.00   16.14
   0   1 -12   58.56   12.55
   0   1 -11   93.45   15.11
   0   1 -11  101.97   16.57
   0   1 -10 1730.82   70.14
   0   1 -10 1884.15   75.69
   0   1  -9   10.52    5.66
   0   1  -9    4.74    3.09
   0   1  -8  142.64   15.71
   0   1  -8  188.12   26.79
   0   1  -8  144.04   17.03
   0   1  -7  838.91   37.31
   0   1  -7  766.39   39.32
   0   1  -6   15.29    9.63
   0   1  -6   23.59    6.81
   0   1  -6   30.61    8.63
   0   1  -5   99.59    9.77
   0   1  -5   95.94   14.82
   0   1  -5   88.13   10.68
   0   1  -4 1035.23   38.55
   0   1  -4  971.17   33.34
   0   1  -4  975.23   45.62
   0   1  -3  657.87   21.14
   0   1  -3  718.64   33.72
   0   1  -3  628.61   28.61
   0   1  -2 6799.41  168.89
   0   1  -2 7826.02  169.58
   0   1   2 6695.94  150.96
   0   1   2 6167.14  145.10
   0   1   3  394.99   23.78
   0   1   3  375.29   20.88
   0   1   4  506.12   29.66
   0   1   4  434.73   25.40
   0   1   5 3752.87  111.06
   0   1   5 3638.57  105.86
   0   1   6   62.43   13.79
   0   1   6   53.46   10.68
   0   1   7  418.87   31.53
   0   1   7  435.84   32.84
   0   1   8  154.91   20.41
   0   1   8  169.50   21.84
   0   1   9  318.91   31.24
   0   1   9  335.86   32.02
   0   1  10   78.64   15.94
   0   1  11   96.27   20.55
   0   1  12   10.35    7.41
   0   1  13   32.17   13.22
   0   1  14  198.65   31.48
   0   1  15   61.96   20.80
   0   2 -15   43.83   16.08
   0   2 -14   39.61   15.17
   0   2 -13   23.27   11.76
   0   2 -12  516.38   47.38
   0   2 -11  605.90   48.62
   0   2 -10   13.02    6.25
   0   2  -9 2383.12   95.99
   0   2  -8   13.89    6.40
   0   2  -8    8.18    4.87
   0   2  -8    7.66    6.07
   0   2  -7    9.39    3.53
   0   2  -7    5.88    7.04
   0   2  -6   15.04    5.15
   0   2  -6   17.77    7.98
   0   2  -5 1300.71   59.78
   0   2  -5  683.19   42.83
   0   2  -4   60.87   12.46
   0   2  -3    0.38    0.86
   0   2  -2 3324.72   87.81
   0   2  -2 3601.60  100.50
   0   2  -1    0.26    2.00
   0   2  -1    3.74    1.90
   0   2   0 4863.07  127.60
   0   2   0 5200.95  124.79
   0   2   1  754.01   31.16
   0   2   1  724.72   33.66
   0   2   2  757.01   34.79
   0   2   2  817.20   39.43
   0   2   2  735.37   32.62
   0   2   3 2467.69   80.25
   0   2   3 2326.80   71.87
   0   2   4   70.57   11.45
   0   2   4   57.12    9.26
   0   2   5  685.57   40.06
   0   2   5  685.30   37.45
   0   2   6  124.62   17.14
   0   2   6  103.43   14.56
   0   2   7 1399.89   67.68
   0   2   7 1412.85   64.02
   0   2   8  193.34   24.52
   0   2   8  215.24   24.19
   0   2   9  141.76   22.34
   0   2   9  102.60   17.73
   0   2  10  447.52   40.85
   0   2  11    7.81    6.90
   0   2  12   96.53   20.25
   0   2  13    6.64    5.70
   0   2  14  151.87   27.69
   0   2  15   -0.94    4.81
   0   3 -15   42.80   17.98
   0   3 -14    1.13    1.96
   0   3 -13  219.54   36.92
   0   3 -12   31.55   13.50
   0   3 -11  125.51   25.89
   0   3 -10   32.43   12.56
   0   3  -9   21.76   10.53
   0   3  -8   40.06   13.25
   0   3  -7  686.80   44.72
   0   3  -7  606.50   48.70
   0   3  -6  644.24   47.50
   0   3  -5   11.06    6.61
   0   3  -4 1484.86   67.89
   0   3  -3   15.65    4.43
   0   3  -3   13.63    6.56
   0   3  -2  836.47   43.60
   0   3  -2  737.40   34.12
   0   3  -1  643.91   36.80
   0   3  -1  580.68   30.49
   0   3   0 1828.88   68.04
   0   3   0 1730.34   62.89
   0   3   1  523.03   31.07
   0   3   1  608.76   35.36
   0   3   1  615.23   34.34
   0   3   2  334.93   24.03
   0   3   2  427.92   30.46
   0   3   3 1456.06   60.66
   0   3   3 1311.85   54.52
   0   3   3 1255.66   61.83
   0   3   4  226.50   23.31
   0   3   4  192.77   19.19
   0   3   5 2896.58  104.31
   0   3   5 2978.94   96.82
   0   3   6 1887.43   82.35
   0   3   6 1843.42   75.10
   0   3   7  995.42   57.41
   0   3   7  897.59   51.90
   0   3   8 1320.67   70.88
   0   3   8 1408.43   69.81
   0   3   9   34.01   11.08
   0   3   9   34.62   11.40
   0   3  10  170.00   27.58
   0   3  11   28.68   11.94
   0   3  12  301.14   37.82
   0   3  13   67.58   17.91
   0   3  14  156.45   29.86
   0   4 -15  144.13   30.60
   0   4 -14  105.26   27.35
   0   4 -13  118.32   27.81
   0   4 -12    4.32    1.83
   0   4 -11  168.36   31.44
   0   4 -10   10.50    8.00
   0   4  -9  102.84   23.99
   0   4  -8  101.94   22.95
   0   4  -7  169.56   25.82
   0   4  -6  157.61   23.59
   0   4  -5  709.20   46.32
   0   4  -5  834.53   53.19
   0   4  -4 1971.05   85.11
   0   4  -4 1938.86   69.13
   0   4  -3  319.35   24.19
   0   4  -3  351.10   31.68
   0   4  -2 3384.70  113.39
   0   4  -2 2989.98   96.21
   0   4  -1 1077.99   55.46
   0   4  -1  842.26   43.65
   0   4   0   69.38   12.86
   0   4   0   94.53   14.25
   0   4   1 1872.44   78.51
   0   4   1 1901.41   75.61
   0   4   2 1049.76   56.81
   0   4   2 1075.46   53.85
   0   4   3 2169.02   85.43
   0   4   3 2136.41   80.02
   0   4   3 2235.62   95.54
   0   4   4   92.40   18.09
   0   4   4  114.39   20.60
   0   4   4  103.28   15.68
   0   4   5 1620.74   79.27
   0   4   5 1695.76   73.49
   0   4   6   24.78    9.90
   0   4   6   20.33    7.14
   0   4   7  129.18   21.60
   0   4   7  119.58   18.63
   0   4   8  236.48   31.12
   0   4   8  236.37   27.74
   0   4   9    5.00    4.94
   0   4   9    4.97    4.13
   0   4  10  400.07   43.09
   0   4  11    3.37    4.60
   0   4  12   94.33   22.77
   0   4  13   10.05    7.91
   0   4  14  191.13   33.12
   0   5 -14    9.13   10.03
   0   5 -13   49.52   18.29
   0   5 -12    1.76    4.65
   0   5 -11   73.06   20.24
   0   5 -10   62.87   17.93
   0   5  -9  186.88   30.31
   0   5  -8    8.94    8.37
   0   5  -7  348.44   39.03
   0   5  -6  212.26   29.48
   0   5  -5  287.23   33.62
   0   5  -4  620.01   48.74
   0   5  -3  650.41   48.98
   0   5  -3  682.84   40.58
   0   5  -2  564.65   45.00
   0   5  -2  560.25   37.05
   0   5  -1 1125.16   65.36
   0   5  -1 1213.38   58.01
   0   5   0  801.56   53.43
   0   5   1 1407.59   73.78
   0   5   2    1.82    5.11
   0   5   2   -0.26    3.98
   0   5   3 1364.35   79.37
   0   5   3 1284.23   65.79
   0   5   4   52.87   13.64
   0   5   4   47.31   11.21
   0   5   4   34.44   12.50
   0   5   5  310.35   36.39
   0   5   5  308.24   30.71
   0   5   5  341.64   17.20
   0   5   6  124.46   22.65
   0   5   6  133.77   21.11
   0   5   7  297.32   36.11
   0   5   7  282.74   31.79
   0   5   8  366.33   41.54
   0   5   8  398.42   39.12
   0   5   9   95.11   20.82
   0   5  10  138.46   25.57
   0   5  11   -6.39    1.31
   0   5  12  530.83   56.82
   0   5  13    0.11    5.12
   0   6 -13  383.53   51.87
   0   6 -12   -0.13    4.86
   0   6 -11   89.02   23.17
   0   6 -10   19.66   12.70
   0   6  -9   59.45   17.87
   0   6  -8   65.14   17.87
   0   6  -7  305.60   39.41
   0   6  -6  302.12   38.75
   0   6  -5    1.31    2.25
   0   6  -5    2.70    3.12
   0   6  -4  410.48   43.06
   0   6  -3   10.79    7.16
   0   6  -2  113.92   21.70
   0   6  -1  235.22   31.53
   0   6  -1  273.13   28.57
   0   6   0   16.03    8.56
   0   6   0   26.87   10.90
   0   6   1  499.68   46.66
   0   6   1  583.18   46.45
   0   6   2   50.44   13.77
   0   6   2   61.30   16.50
   0   6   3  197.99   33.18
   0   6   4  166.79   25.67
   0   6   4  166.17   24.00
   0   6   4  119.74   25.35
   0   6   5  213.61   33.27
   0   6   5  303.25   32.53
   0   6   6  510.84   51.38
   0   6   6  577.61   47.09
   0   6   7   14.71    9.23
   0   6   7    2.92    5.03
   0   6   8  183.42   31.23
   0   6   9   -0.43    1.61
   0   6  10  318.49   42.72
   0   6  11   18.52   13.11
   0   6  12   39.76   14.76
   0   7 -11   77.80   23.77
   0   7 -10  278.27   43.32
   0   7  -9   53.02   20.36
   0   7  -8  218.77   36.56
   0   7  -7   35.68   14.17
   0   7  -6  101.30   23.35
   0   7  -5   11.03    9.17
   0   7  -4  198.16   32.52
   0   7  -4  165.24   23.59
   0   7  -3  195.42   32.12
   0   7  -3  154.89   22.40
   0   7  -2  285.17   37.97
   0   7  -2  262.79   32.03
   0   7  -1  448.73   48.15
   0   7   0  268.57   37.28
   0   7   1  535.59   52.93
   0   7   2   73.86   20.55
   0   7   3  703.98   65.41
   0   7   4  286.00   36.83
   0   7   4  230.92   37.80
   0   7   5   -0.20    3.75
   0   7   5   13.14    8.93
   0   7   6  305.50   42.21
   0   7   7    3.05    6.56
   0   7   8  606.73   61.23
   0   7   9   -3.25    3.83
   0   7  10  489.83   57.04
   0   7  11  179.99   34.77
   0   8  -8  125.33   29.97
   0   8  -7    6.18    6.02
   0   8  -6  195.89   36.25
   0   8  -5  313.22   45.56
   0   8  -4  188.89   35.07
   0   8  -3  257.25   40.54
   0   8  -2  149.60   30.52
   0   8  -1   92.25   23.22
   0   8   0  355.67   47.22
   0   8   1  547.87   59.50
   0   8   2   18.96   12.26
   0   8   3   82.20   24.89
   0   8   4  813.05   67.49
   0   8   4  629.81   70.07
   0   8   5   26.56   13.89
   0   8   5   35.70   17.75
   0   8   6  380.67   50.20
   0   8   7   51.93   18.30
   0   8   8  197.07   37.13
   0   8   9   34.03   16.46
   0   9  -4  111.87   28.46
   0   9  -3  161.69   34.61
   0   9  -2  231.51   40.96
   0   9  -1  505.98   61.75
   0   9   0   21.34   13.29
   0   9   1  224.80   42.26
   0   9   2   68.03   24.71
   0   9   3  165.47   31.71
   0   9   3  159.89   38.97
   0   9   4   18.57   12.32
   0   9   4   13.73   13.20
   0   9   5    9.02   10.62
   0   9   6   85.56   27.02
   1 -10  -4   52.32   17.02
   1 -10  -3  147.68   26.32
   1 -10  -2    7.27    5.92
   1 -10   2   50.98   19.43
   1 -10   3   -6.69    6.21
   1 -10   4  136.00   31.92
   1 -10   5   21.51   11.02
   1  -9  -6   93.43   22.63
   1  -9  -5  231.60   34.18
   1  -9  -4   22.73   10.67
   1  -9  -3  309.95   37.87
   1  -9  -2  274.08   34.65
   1  -9  -2  319.05   37.45
   1  -9  -1   27.15   12.51
   1  -9  -1   18.47    7.69
   1  -9   0  294.48   33.00
   1  -9   0  222.42   34.31
   1  -9   1   -1.73    4.53
   1  -9   2   78.17   20.89
   1  -9   3    7.89   10.84
   1  -9   4  136.61   30.16
   1  -9   5   37.30   16.54
   1  -9   6  163.32   35.72
   1  -9   7   39.99   17.49
   1  -8  -8   61.49   18.98
   1  -8  -7  213.45   33.46
   1  -8  -6   -0.75    1.01
   1  -8  -6    8.48    7.62
   1  -8  -5  392.67   37.33
   1  -8  -5  469.19   47.43
   1  -8  -4   29.24    9.55
   1  -8  -4   28.05   12.25
   1  -8  -3  164.54   25.97
   1  -8  -3  167.80   25.02
   1  -8  -2  330.71   35.62
   1  -8  -1  116.75   22.14
   1  -8   0  423.60   43.73
   1  -8   1   -1.39    3.68
   1  -8   1   -2.31    0.76
   1  -8   2  779.71   62.64
   1  -8   2  870.90   49.26
   1  -8   3   42.58   16.44
   1  -8   3   43.10    9.62
   1  -8   3   24.35    8.08
   1  -8   4   88.94   22.55
   1  -8   4   65.27   15.62
   1  -8   5   24.81   12.21
   1  -8   5   32.37   11.24
   1  -8   5   27.42   12.52
   1  -8   6    7.16   10.02
   1  -8   6    7.53   20.97
   1  -8   7  216.98   33.98
   1  -8   7  206.53   32.89
   1  -7 -10   24.06   11.22
   1  -7  -9   90.63   22.12
   1  -7  -8  170.97   23.03
   1  -7  -8  178.57   30.12
   1  -7  -7  171.83   22.43
   1  -7  -7  232.51   33.40
   1  -7  -6   34.25   10.39
   1  -7  -6   34.97   11.30
   1  -7  -5  535.18   40.24
   1  -7  -5  539.81   47.96
   1  -7  -4  190.34   24.29
   1  -7  -3  536.92   40.88
   1  -7  -2  139.39   21.30
   1  -7  -1    4.65    1.96
   1  -7   0  408.81   38.90
   1  -7   1   56.48   15.14
   1  -7   2    6.77    5.17
   1  -7   2    9.90    7.47
   1  -7   3    7.18    4.54
   1  -7   3    1.10    1.04
   1  -7   3    1.34    1.98
   1  -7   3   -1.13    4.37
   1  -7   4  282.60   20.47
   1  -7   4  216.76   27.19
   1  -7   5   19.03    8.20
   1  -7   5   17.80   10.10
   1  -7   6   50.82   14.33
   1  -7   6   59.29   16.04
   1  -7   7   99.63   21.97
   1  -7   7  107.22   22.54
   1  -7   8   75.52   19.99
   1  -7   8   48.16   15.32
   1  -7   9  233.07   36.89
   1  -7   9  202.69   32.36
   1  -7  10    2.14    7.09
   1  -7  10   -5.53    3.18
   1  -6 -12   41.56   14.20
   1  -6 -11  170.91   24.23
   1  -6 -11  170.95   29.96
   1  -6 -10  143.83   21.69
   1  -6 -10  129.49   25.65
   1  -6  -9  291.76   29.06
   1  -6  -9  288.78   36.59
   1  -6  -8  151.98   20.37
   1  -6  -8  174.64   27.90
   1  -6  -7  492.20   36.64
   1  -6  -7  534.60   48.38
   1  -6  -6  115.19   16.56
   1  -6  -6   92.77   18.86
   1  -6  -5    7.22    5.17
   1  -6  -4  197.16   22.25
   1  -6  -3   34.96    9.10
   1  -6  -2  934.42   52.65
   1  -6  -1  324.52   31.24
   1  -6   0  654.57   45.85
   1  -6   1   23.33    9.61
   1  -6   2 1899.88   89.10
   1  -6   2 1767.83   86.50
   1  -6   3   12.76    6.51
   1  -6   4    1.69    2.50
   1  -6   4    3.46    6.01
   1  -6   4    1.51    4.53
   1  -6   5  327.79   15.61
   1  -6   5  352.82   34.67
   1  -6   5  359.07   38.06
   1  -6   6   59.94   14.42
   1  -6   6   65.56   16.18
   1  -6   7   64.56   16.56
   1  -6   7   48.94   14.81
   1  -6   8    3.79    5.77
   1  -6   8   -0.26    4.43
   1  -6   9  213.73   34.27
   1  -6   9  158.74   26.83
   1  -6  10  108.92   26.21
   1  -6  10  117.28   23.60
   1  -6  11  229.05   34.18
   1  -6  12  133.67   26.11
   1  -5 -13  149.16   29.04
   1  -5 -12  241.73   29.68
   1  -5 -12  197.52   31.39
   1  -5 -11   35.80   13.13
   1  -5 -11   27.39    9.28
   1  -5 -10    1.65    2.81
   1  -5 -10   11.28    5.88
   1  -5  -9   34.96   11.11
   1  -5  -9   30.02   12.30
   1  -5  -9   34.38    9.13
   1  -5  -8  102.87   18.38
   1  -5  -8  118.15   16.56
   1  -5  -8  119.44   21.49
   1  -5  -7   17.86    6.56
   1  -5  -7   14.40    7.63
   1  -5  -7   17.06    4.77
   1  -5  -6  662.07   39.72
   1  -5  -6  718.37   50.78
   1  -5  -6  652.01   46.58
   1  -5  -5  561.07   35.13
   1  -5  -5  541.34   42.00
   1  -5  -4 1523.36   63.38
   1  -5  -4 1779.04   79.58
   1  -5  -3   25.40    8.75
   1  -5  -3   29.15    7.46
   1  -5  -2  840.94   45.18
   1  -5  -2  897.64   57.73
   1  -5  -1    2.75    3.65
   1  -5  -1    2.93    2.26
   1  -5   0 1195.30   72.70
   1  -5   0 1271.37   59.78
   1  -5   1   11.48    7.22
   1  -5   1   18.59    7.72
   1  -5   1   21.26    9.18
   1  -5   2  677.53   50.77
   1  -5   2  540.36   41.61
   1  -5   3  905.52   55.31
   1  -5   3  815.10   46.21
   1  -5   4  189.24   12.49
   1  -5   4  181.83   24.79
   1  -5   5  218.49   27.34
   1  -5   5  138.77   20.35
   1  -5   6   93.74   18.22
   1  -5   6   61.11   14.45
   1  -5   7  523.40   46.47
   1  -5   7  547.65   44.56
   1  -5   8  168.75   27.13
   1  -5   8  117.88   21.92
   1  -5   9   56.72   17.77
   1  -5   9   42.75   13.52
   1  -5  10   88.63   22.14
   1  -5  10   96.21   20.93
   1  -5  11   44.67   15.06
   1  -5  12   68.13   18.36
   1  -5  13    6.28    7.41
   1  -5  14  161.49   31.09
   1  -4 -14   79.66   19.80
   1  -4 -13  135.08   25.97
   1  -4 -12   68.62   17.85
   1  -4 -11  191.78   24.72
   1  -4 -11  186.37   27.80
   1  -4 -10  155.65   21.04
   1  -4 -10  150.60   24.01
   1  -4 -10  178.41   23.55
   1  -4  -9  299.83   28.18
   1  -4  -9  296.82   32.63
   1  -4  -9  247.58   27.42
   1  -4  -8   38.33   13.46
   1  -4  -8   38.37    9.55
   1  -4  -8   32.05    9.78
   1  -4  -8   27.92    9.31
   1  -4  -7 1502.11   61.03
   1  -4  -7 1244.91   68.44
   1  -4  -6  327.64   25.08
   1  -4  -6  370.30   33.34
   1  -4  -5    4.28    3.20
   1  -4  -4 1851.13   65.09
   1  -4  -3  159.99   15.66
   1  -4  -2 1552.42   57.91
   1  -4  -1   33.57    7.45
   1  -4   0 1865.42   79.26
   1  -4   0 2219.53   75.69
   1  -4   1  821.00   47.95
   1  -4   2  450.60   29.07
   1  -4   2  466.69   35.11
   1  -4   3  719.01   38.73
   1  -4   3  687.26   44.27
   1  -4   4  525.90   17.20
   1  -4   4  467.62   33.77
   1  -4   5 1302.66   62.89
   1  -4   5 1039.40   57.25
   1  -4   6   82.89   16.06
   1  -4   6   82.23   15.96
   1  -4   7  254.43   30.81
   1  -4   7  244.97   28.22
   1  -4   8   18.41    9.40
   1  -4   8   14.90    8.14
   1  -4   9  270.30   35.64
   1  -4   9  180.55   25.92
   1  -4  10  159.48   25.21
   1  -4  11   56.68   16.37
   1  -4  12  337.10   41.06
   1  -4  13   14.56    8.49
   1  -4  14    7.80    7.19
   1  -4  15   18.52    9.35
   1  -3 -15  380.53   45.98
   1  -3 -14  154.12   27.86
   1  -3 -13   84.66   19.34
   1  -3 -12   34.90   11.93
   1  -3 -11   88.08   18.99
   1  -3 -11   92.09   10.12
   1  -3 -11   58.26   14.67
   1  -3 -10  267.81   28.38
   1  -3 -10  241.84   29.51
   1  -3 -10  225.65   16.10
   1  -3  -9  553.90   38.70
   1  -3  -9  519.93   41.62
   1  -3  -9  460.44   22.98
   1  -3  -8   68.92   13.93
   1  -3  -8   87.93   19.35
   1  -3  -8   71.92   12.59
   1  -3  -8   68.94   13.17
   1  -3  -7  362.00   35.59
   1  -3  -7  341.49   34.61
   1  -3  -7  359.31   27.13
   1  -3  -7  342.37   30.98
   1  -3  -7  329.74   27.73
   1  -3  -6  861.73   40.66
   1  -3  -6  914.01   54.28
   1  -3  -6  918.99   50.80
   1  -3  -6  799.71   42.77
   1  -3  -5  257.77   19.14
   1  -3  -5  234.01   23.63
   1  -3  -5  235.56   21.11
   1  -3  -4  889.10   36.92
   1  -3  -4  974.33   47.69
   1  -3  -4  861.19   42.17
   1  -3  -3  309.88   19.12
   1  -3  -3  323.29   23.99
   1  -3  -2 1679.82   62.71
   1  -3  -2 1684.27   53.35
   1  -3  -1  223.32   16.49
   1  -3  -1  258.76   23.22
   1  -3   0  133.11   16.31
   1  -3   0  104.77   16.05
   1  -3   1  291.17   24.62
   1  -3   2  905.04   38.19
   1  -3   2 1032.04   48.87
   1  -3   3  371.17   13.25
   1  -3   3  292.35   22.23
   1  -3   3  345.37   26.35
   1  -3   4  319.00   26.88
   1  -3   4  329.62   26.15
   1  -3   5  596.15   39.96
   1  -3   5  526.96   36.74
   1  -3   6    5.19    4.22
   1  -3   6    9.99    5.03
   1  -3   7  533.38   42.30
   1  -3   7  552.03   44.86
   1  -3   7  487.61   38.86
   1  -3   8   65.03   14.08
   1  -3   8   82.23   18.31
   1  -3   9  779.38   54.13
   1  -3  10  585.00   48.80
   1  -3  11   23.64   10.12
   1  -3  12  229.47   32.96
   1  -3  13   27.95   12.87
   1  -3  14  222.10   35.52
   1  -3  15    9.36    8.22
   1  -3  16   31.52   15.82
   1  -2 -16  142.08   28.36
   1  -2 -15   41.04   14.33
   1  -2 -14   11.99    7.14
   1  -2 -13  231.50   31.05
   1  -2 -12   81.23   17.31
   1  -2 -12   64.15   11.96
   1  -2 -11  308.00   32.90
   1  -2 -11  308.75   25.63
   1  -2 -10  146.59   22.55
   1  -2 -10  150.83   17.05
   1  -2  -9  308.97   30.77
   1  -2  -9  252.73   21.16
   1  -2  -9  292.52   30.16
   1  -2  -8  103.30   19.97
   1  -2  -8  107.93   19.59
   1  -2  -8   93.09   14.80
   1  -2  -8   94.65   15.63
   1  -2  -8   86.43   11.15
   1  -2  -8  102.84   15.96
   1  -2  -7   90.35   13.17
   1  -2  -7   87.84   16.62
   1  -2  -7  100.04   15.44
   1  -2  -7   93.60   14.17
   1  -2  -7   79.79   10.45
   1  -2  -6 1693.02   74.58
   1  -2  -6 1502.17   56.60
   1  -2  -6 1430.91   62.28
   1  -2  -6 1453.31   50.75
   1  -2  -6 1561.92   60.85
   1  -2  -5  619.94   39.16
   1  -2  -5  574.02   29.52
   1  -2  -5  583.78   34.85
   1  -2  -5  576.00   26.18
   1  -2  -5  657.25   32.52
   1  -2  -4 1743.24   58.14
   1  -2  -4 1830.24   67.43
   1  -2  -4 1703.26   53.84
   1  -2  -4 1849.65   65.87
   1  -2  -4 1814.70   53.49
   1  -2  -3   12.65    4.68
   1  -2  -3    3.66    2.64
   1  -2  -3   17.28    6.69
   1  -2  -2  543.86   26.28
   1  -2  -2  567.55   21.04
   1  -2  -2  482.75   26.63
   1  -2  -1   64.05   11.69
   1  -2  -1   35.22    4.55
   1  -2   0  504.48   21.84
   1  -2   0  418.09   26.88
   1  -2   0  409.75   26.51
   1  -2   1 1439.72   43.09
   1  -2   1 1678.05   43.67
   1  -2   1 1570.89   57.95
   1  -2   1 1607.34   54.76
   1  -2   2   47.23    4.83
   1  -2   2   31.71    6.48
   1  -2   2   30.99    7.91
   1  -2   3  646.70   33.24
   1  -2   3  766.59   37.56
   1  -2   4 2504.22   85.76
   1  -2   4 2696.83   86.73
   1  -2   4 2619.31   86.16
   1  -2   5   52.98   10.36
   1  -2   5   57.69   11.55
   1  -2   6  139.88   19.07
   1  -2   7  890.47   50.07
   1  -2   8  820.34   55.44
   1  -2   8  868.40   52.65
   1  -2   9    9.18    6.19
   1  -2  10  617.67   47.17
   1  -2  11  100.96   19.47
   1  -2  12  281.74   34.52
   1  -2  13   17.53   10.72
   1  -2  14   37.17   14.53
   1  -2  15   64.79   20.26
   1  -2  16   67.87   20.74
   1  -1 -16   49.41   16.70
   1  -1 -15   48.59   15.65
   1  -1 -14   17.15    9.46
   1  -1 -13  201.66   28.94
   1  -1 -13  232.77   28.63
   1  -1 -13  233.05   23.77
   1  -1 -12   49.67   10.26
   1  -1 -12   42.98   13.09
   1  -1 -12   38.95   10.85
   1  -1 -11  307.63   31.83
   1  -1 -11  284.67   29.54
   1  -1 -11  286.24   24.38
   1  -1 -10  216.46   24.99
   1  -1 -10  209.99   24.01
   1  -1  -9  320.01   29.03
   1  -1  -9  302.55   27.57
   1  -1  -8  995.77   60.07
   1  -1  -8  956.22   50.60
   1  -1  -8  930.83   48.74
   1  -1  -7   25.38    7.58
   1  -1  -7   23.63    8.13
   1  -1  -7   14.22    5.18
   1  -1  -6    6.99    3.20
   1  -1  -6    5.53    3.67
   1  -1  -6    5.71    4.42
   1  -1  -5 3149.98   96.86
   1  -1  -5 3304.66   93.80
   1  -1  -4   15.87    5.51
   1  -1  -4   12.29    4.55
   1  -1  -4    7.63    2.74
   1  -1  -4   10.94    3.17
   1  -1  -4   13.23    3.64
   1  -1  -3  102.61    9.57
   1  -1  -3  115.44   12.95
   1  -1  -3  108.24    8.63
   1  -1  -3  104.02   11.05
   1  -1  -3  118.42    8.45
   1  -1  -3  108.59   12.14
   1  -1  -2 3904.52   96.03
   1  -1  -2 3457.97   79.71
   1  -1  -2 3283.66   89.88
   1  -1  -2 3591.70   88.65
   1  -1  -2 3453.95   81.69
   1  -1  -2 3839.91   92.00
   1  -1  -1 8390.77  200.15
   1  -1  -1 9018.82  195.03
   1  -1  -1 9010.96  208.11
   1  -1  -1 8546.00  201.28
   1  -1   0 6741.86  144.04
   1  -1   0 6543.14  153.43
   1  -1   1 9999.00  211.15
   1  -1   1 9736.05  205.51
   1  -1   1 9443.26  220.10
   1  -1   2   67.25    7.95
   1  -1   2   82.60    9.60
   1  -1   3 1375.40   51.65
   1  -1   3 1604.79   52.77
   1  -1   4  962.26   41.93
   1  -1   4 1057.03   43.63
   1  -1   5 1151.26   49.47
   1  -1   6  644.60   37.51
   1  -1   7    0.17    3.04
   1  -1   8  203.40   23.74
   1  -1   8  263.86   28.05
   1  -1   9   79.47   15.54
   1  -1  10 1405.73   74.68
   1  -1  11   15.38    6.37
   1  -1  12  585.32   51.61
   1  -1  13  206.86   32.09
   1  -1  14  158.58   29.72
   1  -1  15   70.59   20.56
   1  -1  16    2.65   10.95
   1   0 -15  649.39   53.11
   1   0 -14    2.49    4.62
   1   0 -14    8.16    5.19
   1   0 -13  282.41   34.05
   1   0 -13  337.18   38.68
   1   0 -13  334.71   30.22
   1   0 -12    3.27    3.74
   1   0 -12    9.92    5.89
   1   0 -12    4.43    5.21
   1   0 -11  708.34   49.07
   1   0 -11  730.83   40.46
   1   0 -10    6.16    3.08
   1   0 -10   15.93    6.67
   1   0  -9  194.60   22.42
   1   0  -9  206.73   18.32
   1   0  -8  135.48   19.59
   1   0  -8  150.19   18.35
   1   0  -8  151.51   14.59
   1   0  -8  175.48   25.50
   1   0  -7    6.41    5.02
   1   0  -7    7.95    4.04
   1   0  -7    8.21    5.15
   1   0  -6  652.43   35.20
   1   0  -6  774.92   47.84
   1   0  -6  659.43   28.54
   1   0  -5 1028.07   43.58
   1   0  -5  930.58   33.48
   1   0  -4 1732.51   61.18
   1   0  -4 1830.07   58.70
   1   0  -4 1646.98   45.65
   1   0  -3 2148.32   63.78
   1   0  -3 2262.43   63.83
   1   0  -3 2008.11   49.18
   1   0  -3 2087.31   66.14
   1   0  -2 2083.90   62.81
   1   0  -2 2225.52   66.71
   1   0  -2 2139.60   66.16
   1   0   2   58.61    5.83
   1   0   3 2473.72   67.39
   1   0   4   61.42   11.10
   1   0   5  288.59   20.79
   1   0   6 1329.66   54.97
   1   0   7 1104.86   53.02
   1   0   8 1404.99   65.34
   1   0   8 1494.72   70.42
   1   0   9   70.10   14.43
   1   0  10  192.88   28.82
   1   0  11   42.02   13.20
   1   0  12   82.94   18.21
   1   0  13   20.23    9.76
   1   0  14  115.41   24.23
   1   0  15  651.22   61.64
   1   1 -15    5.88    0.54
   1   1 -14   21.88   11.17
   1   1 -14   23.43    9.29
   1   1 -13  263.18   28.59
   1   1 -13  170.98   26.51
   1   1 -12    5.14    5.02
   1   1 -12    4.62    5.62
   1   1 -11  810.13   48.19
   1   1 -11  852.98   51.49
   1   1 -10  980.82   51.85
   1   1 -10 1085.81   54.94
   1   1  -9  407.16   30.32
   1   1  -9  393.80   29.68
   1   1  -8  674.20   47.19
   1   1  -8  699.12   38.45
   1   1  -8  722.03   39.86
   1   1  -8  733.48   55.84
   1   1  -7   44.56   13.44
   1   1  -7   44.12    8.61
   1   1  -7   53.91    9.55
   1   1  -6  404.36   25.13
   1   1  -6  459.20   37.97
   1   1  -6  415.26   22.50
   1   1  -6  425.14   26.21
   1   1  -5  873.86   41.10
   1   1  -5  797.93   34.93
   1   1  -5  923.71   50.89
   1   1  -4  700.08   30.26
   1   1  -4  864.87   45.76
   1   1  -4  709.37   33.53
   1   1  -4  778.94   34.72
   1   1  -3  114.46   10.93
   1   1  -3  139.94   11.41
   1   1  -2  789.66   28.42
   1   1  -2  771.53   28.57
   1   1  -1  799.19   25.50
   1   1  -1  784.73   29.07
   1   1   0  297.55   16.90
   1   1   0  257.57   17.77
   1   1   1 3772.65   99.71
   1   1   1 5345.10  104.93
   1   1   2  350.47   18.00
   1   1   2  390.81   16.21
   1   1   3  130.61   12.16
   1   1   4 1100.21   45.19
   1   1   4 1204.19   49.45
   1   1   5 2730.86   81.70
   1   1   5 2165.18   69.64
   1   1   6  120.03   15.09
   1   1   6  100.02   10.43
   1   1   7   75.22   12.44
   1   1   7   96.19   15.87
   1   1   8 1310.16   62.97
   1   1   8 1465.24   70.95
   1   1   9   69.41   15.28
   1   1   9   81.96   14.33
   1   1  10 1047.95   61.03
   1   1  11  117.79   20.42
   1   1  12  603.77   50.49
   1   1  13  147.70   26.10
   1   1  14   60.46   16.72
   1   1  15   65.48   18.39
   1   2 -16    7.67   10.43
   1   2 -14    3.24    1.06
   1   2 -13  144.35   26.48
   1   2 -12  150.98   26.05
   1   2 -11   41.48   12.89
   1   2 -10   26.97   10.46
   1   2  -9  149.70   22.66
   1   2  -9  137.87   13.87
   1   2  -8  340.44   31.14
   1   2  -8  240.97   27.41
   1   2  -7    5.50    5.24
   1   2  -7   14.09    5.90
   1   2  -6  569.78   37.33
   1   2  -6 1057.65   51.35
   1   2  -5  345.10   27.37
   1   2  -4   71.65   10.96
   1   2  -4   81.20   11.91
   1   2  -3 3304.62   92.41
   1   2  -3 3227.52   94.96
   1   2  -2  126.73   13.37
   1   2  -1   98.12   11.76
   1   2  -1   75.18    5.48
   1   2   0   64.58   10.26
   1   2   1 5611.17  149.48
   1   2   1 5034.51  137.54
   1   2   2  589.24   22.14
   1   2   2  545.24   30.62
   1   2   3  137.92   14.47
   1   2   3  130.95   14.94
   1   2   3  142.04    8.18
   1   2   4  476.39   30.10
   1   2   4  454.39   30.75
   1   2   5   58.28   12.18
   1   2   5   68.52   11.99
   1   2   6 6797.49  178.56
   1   2   6 6094.92  177.71
   1   2   7    1.48    0.95
   1   2   7    7.55    5.32
   1   2   8  941.57   55.30
   1   2   8  850.10   53.53
   1   2   9  237.29   27.31
   1   2   9  235.85   28.35
   1   2   9  156.67   14.84
   1   2  10  317.03   32.82
   1   2  11  164.94   24.11
   1   2  12   14.41    8.00
   1   2  13  166.33   27.59
   1   2  14   17.10    8.26
   1   2  15  166.39   30.54
   1   3 -14   84.90   19.59
   1   3 -13  194.78   29.70
   1   3 -12   62.90   17.65
   1   3 -11   40.62   13.70
   1   3 -10  468.79   43.76
   1   3  -9  419.03   39.42
   1   3  -8  698.65   48.62
   1   3  -7  670.16   43.85
   1   3  -7  685.49   45.70
   1   3  -6  381.50   30.72
   1   3  -6  392.42   32.19
   1   3  -5  316.65   26.66
   1   3  -5  769.71   43.02
   1   3  -4 3505.93  112.07
   1   3  -3  381.83   28.88
   1   3  -2   32.57    7.97
   1   3  -2   31.00    4.85
   1   3  -1 1346.93   57.61
   1   3  -1 1234.92   42.00
   1   3   0    1.79    2.03
   1   3   0    3.28    3.16
   1   3   1 1277.83   55.81
   1   3   1 1218.25   59.07
   1   3   2  971.85   54.14
   1   3   2  995.82   49.18
   1   3   3  818.05   45.56
   1   3   3  996.18   33.26
   1   3   3  967.23   49.62
   1   3   4 1249.59   56.84
   1   3   4 1109.72   55.58
   1   3   5    3.16    3.21
   1   3   5   -0.25    1.83
   1   3   6  370.49   32.25
   1   3   6  395.96   33.50
   1   3   7    4.38    4.58
   1   3   7    1.43    2.70
   1   3   8 1018.35   60.27
   1   3   8  975.72   60.56
   1   3   9  100.17   19.53
   1   3  10  225.24   30.68
   1   3  11  461.95   43.64
   1   3  11  273.74   22.78
   1   3  12  121.25   22.97
   1   3  13  266.50   35.97
   1   3  14   13.15   11.01
   1   3  15  323.81   43.05
   1   4 -14   38.53   13.62
   1   4 -13   13.33    8.24
   1   4 -12  363.82   41.80
   1   4 -11   31.54   11.16
   1   4 -10   17.65    8.91
   1   4  -9    1.29    3.92
   1   4  -8   44.96   13.57
   1   4  -7    0.74    3.66
   1   4  -6  907.84   52.36
   1   4  -6  917.27   56.56
   1   4  -5 1333.21   65.14
   1   4  -5 1383.01   69.57
   1   4  -4   23.06    8.25
   1   4  -3 2385.67   89.68
   1   4  -3 1856.82   60.26
   1   4  -2    2.62    3.00
   1   4  -2    2.52    2.51
   1   4  -1  616.70   42.65
   1   4  -1  649.94   32.58
   1   4   0  377.53   33.04
   1   4   0  426.12   27.41
   1   4   1  715.24   38.48
   1   4   1  788.17   50.68
   1   4   1  660.04   43.40
   1   4   2  342.59   30.12
   1   4   2  341.98   34.73
   1   4   3   17.34    5.47
   1   4   3   17.39    7.11
   1   4   3   26.29    8.76
   1   4   4 1034.62   60.98
   1   4   4 1156.74   37.07
   1   4   4 1131.22   60.83
   1   4   5  183.52   24.04
   1   4   5  175.80   23.03
   1   4   6  523.38   42.49
   1   4   6  540.51   42.47
   1   4   7  388.79   37.05
   1   4   7  364.01   35.56
   1   4   8  594.06   47.99
   1   4   8  394.63   38.90
   1   4   9  112.77   20.80
   1   4  10  362.84   40.90
   1   4  11  196.07   31.46
   1   4  12  249.34   35.59
   1   4  13  507.43   52.20
   1   4  14    7.92    7.62
   1   5 -13  257.82   38.40
   1   5 -12   61.43   17.52
   1   5 -11   11.34    8.12
   1   5 -10  183.96   29.70
   1   5  -9   30.54   11.47
   1   5  -8  351.73   39.19
   1   5  -7  410.58   45.18
   1   5  -6  326.36   35.75
   1   5  -5  129.28   21.75
   1   5  -4  157.51   23.78
   1   5  -4  152.97   14.78
   1   5  -3  752.36   53.29
   1   5  -3  663.42   34.73
   1   5  -2   18.94    8.57
   1   5  -2   20.55    5.88
   1   5  -1  719.26   51.01
   1   5  -1  550.40   33.92
   1   5   0  251.91   30.03
   1   5   0  217.89   22.21
   1   5   1  102.28   15.43
   1   5   1   97.36   19.31
   1   5   2  320.08   38.35
   1   5   2  308.48   32.06
   1   5   3  105.09   17.42
   1   5   3  106.24   18.29
   1   5   3  109.68   22.09
   1   5   4  170.70   15.08
   1   5   4  161.47   23.25
   1   5   5  214.42   28.83
   1   5   5  135.03    9.08
   1   5   5  234.61   29.11
   1   5   6  438.83   42.63
   1   5   6  475.11   43.40
   1   5   7   84.66   18.22
   1   5   7   98.02   20.08
   1   5   8   76.80   18.46
   1   5   9   55.87   16.79
   1   5  10  441.91   46.34
   1   5  11  218.93   34.02
   1   5  12   32.41   14.14
   1   5  13  196.14   35.34
   1   6 -13   -2.69    5.79
   1   6 -12   83.56   23.08
   1   6 -11   -0.90    5.73
   1   6 -10  221.42   34.86
   1   6  -9  135.52   26.74
   1   6  -8  124.79   25.70
   1   6  -7  291.67   37.87
   1   6  -6    2.19    5.04
   1   6  -5  835.96   63.71
   1   6  -4    5.25    4.23
   1   6  -4    6.22    6.08
   1   6  -3   23.68   10.42
   1   6  -3   24.80    7.15
   1   6  -2  425.74   43.21
   1   6  -2  402.48   30.15
   1   6  -1  216.57   30.72
   1   6   0   -0.16    4.02
   1   6   1  288.05   37.88
   1   6   2  412.28   47.19
   1   6   2  392.11   36.66
   1   6   3   13.85    6.72
   1   6   3   13.80    7.14
   1   6   4  150.82   24.22
   1   6   4  170.94   31.36
   1   6   4  127.27   22.30
   1   6   5  119.67   25.24
   1   6   5  166.59   13.74
   1   6   6    2.38    3.36
   1   6   7  538.84   51.53
   1   6   8  542.49   53.21
   1   6   9  310.46   41.08
   1   6  10  151.00   29.17
   1   6  11  439.41   51.18
   1   6  12   40.22   16.06
   1   7 -12  227.85   40.32
   1   7 -11   -5.65    6.99
   1   7 -10   43.25   17.08
   1   7  -9  134.01   28.85
   1   7  -8   53.46   18.57
   1   7  -7  325.01   43.80
   1   7  -6   43.03   16.21
   1   7  -5  562.67   56.76
   1   7  -4  422.85   48.16
   1   7  -3  647.38   59.45
   1   7  -2   39.27   14.96
   1   7  -1  148.03   20.51
   1   7  -1  160.33   29.15
   1   7   0   49.81   12.43
   1   7   0   61.96   18.65
   1   7   1  162.97   24.09
   1   7   1  122.24   26.30
   1   7   2   26.73   11.93
   1   7   3   42.58   16.53
   1   7   4  221.72   31.51
   1   7   4  231.47   38.99
   1   7   5  142.80   28.18
   1   7   5  177.68   17.07
   1   7   6  174.60   30.99
   1   7   7  275.17   39.57
   1   7   8   -0.33    5.10
   1   7   9  284.46   42.19
   1   7  10   -3.25    3.56
   1   7  11   59.28   19.47
   1   8  -9   75.92   25.38
   1   8  -8    2.30    4.53
   1   8  -7  582.65   64.57
   1   8  -6   40.76   16.64
   1   8  -5  192.37   35.26
   1   8  -4   70.31   21.49
   1   8  -3  215.87   36.98
   1   8  -2  347.01   47.03
   1   8  -1  490.45   56.82
   1   8   0  292.15   43.56
   1   8   1   38.30   17.93
   1   8   2  336.11   50.41
   1   8   3    3.17    6.51
   1   8   3   -0.64    0.76
   1   8   4  122.07   24.85
   1   8   4   91.56   29.36
   1   8   5   74.56   22.53
   1   8   6   64.02   20.58
   1   8   7   37.44   16.58
   1   8   8  107.29   26.31
   1   8   9  101.92   27.03
   1   9  -5  268.60   47.04
   1   9  -4  147.56   34.52
   1   9  -3  120.82   29.61
   1   9  -2  164.74   36.64
   1   9  -1   16.71   11.90
   1   9   0   40.40   18.97
   1   9   1    1.33    8.91
   1   9   2   70.45   24.63
   1   9   3   14.33    9.22
   1   9   3   26.20   16.55
   1   9   4   42.49   16.97
   1   9   5   23.30   17.43
   1   9   6   59.03   19.57
   1   9   7   72.66   24.27
   2 -10  -4   67.22   19.91
   2 -10  -3   -4.05    2.44
   2  -9  -6   89.28   21.92
   2  -9  -5    0.71    5.38
   2  -9  -4  122.66   23.69
   2  -9  -3   48.17   13.97
   2  -9  -2   87.25   18.71
   2  -9  -1   74.80   16.76
   2  -9   0  266.20   30.43
   2  -9   2   55.48   18.07
   2  -9   3  181.12   32.33
   2  -9   4   -0.81    4.66
   2  -9   5   89.71   25.69
   2  -9   6  152.25   32.93
   2  -9   6  185.19   33.52
   2  -9   7  115.54   28.97
   2  -8  -8   81.64   20.41
   2  -8  -7   79.83   19.61
   2  -8  -6  137.51   26.31
   2  -8  -5   29.36   11.92
   2  -8  -4  512.06   46.62
   2  -8  -3   55.40   12.49
   2  -8  -3   62.41   15.30
   2  -8  -2  294.32   32.56
   2  -8  -2  289.27   30.03
   2  -8  -1  149.41   22.16
   2  -8  -1  140.87   22.23
   2  -8   0   36.08   12.39
   2  -8   0   57.10   12.68
   2  -8   1  118.60   18.10
   2  -8   1   88.47   20.13
   2  -8   2   29.09   11.89
   2  -8   2   35.34    8.72
   2  -8   3   46.38   15.92
   2  -8   4   13.47   10.57
   2  -8   4   42.80   14.36
   2  -8   5  215.88   34.77
   2  -8   6   14.26   11.80
   2  -8   7   49.28   17.22
   2  -8   8  109.48   26.52
   2  -8   9  113.00   26.56
   2  -7 -10   98.02   23.77
   2  -7  -9  171.83   30.80
   2  -7  -8  283.98   37.59
   2  -7  -7    0.03    2.28
   2  -7  -6  179.64   19.90
   2  -7  -6  188.77   29.07
   2  -7  -5   65.86   12.53
   2  -7  -5   62.15   15.54
   2  -7  -4   14.90    6.83
   2  -7  -4   11.85    7.33
   2  -7  -3  357.19   35.07
   2  -7  -3  328.98   28.70
   2  -7  -2  138.66   20.69
   2  -7  -2  113.32   17.52
   2  -7  -1    9.72    6.71
   2  -7  -1    2.34    3.16
   2  -7   0  508.11   37.34
   2  -7   0  458.55   39.67
   2  -7   1  125.47   16.82
   2  -7   1   61.41   10.69
   2  -7   1  108.29   20.20
   2  -7   2  432.51   29.62
   2  -7   2  365.54   41.51
   2  -7   2  328.60   35.82
   2  -7   3  651.91   34.55
   2  -7   3  686.04   58.17
   2  -7   4   16.53    4.67
   2  -7   4   14.81    7.68
   2  -7   5   20.38    8.27
   2  -7   5   35.44   13.72
   2  -7   6  107.63   19.78
   2  -7   6  106.21   24.19
   2  -7   7   55.00   14.72
   2  -7   7   54.42   17.97
   2  -7   8   69.78   20.35
   2  -7   9   16.30   10.83
   2  -7  10  204.69   36.80
   2  -7  11   -7.27    2.90
   2  -6 -11   29.61   12.87
   2  -6 -10  106.59   23.46
   2  -6  -9    8.22    5.85
   2  -6  -8    5.46    5.05
   2  -6  -8   11.62    4.98
   2  -6  -7   13.24    6.97
   2  -6  -7   29.96   11.37
   2  -6  -7   21.10    6.42
   2  -6  -6   84.00   17.04
   2  -6  -6   84.48   12.12
   2  -6  -5  213.12   19.47
   2  -6  -5  206.85   27.01
   2  -6  -4  200.41   19.13
   2  -6  -4  196.82   25.70
   2  -6  -3   84.63   12.99
   2  -6  -3   78.01   15.61
   2  -6  -2   35.59    8.66
   2  -6  -2   37.20   10.16
   2  -6  -1  237.04   24.23
   2  -6  -1  252.44   25.01
   2  -6   0  293.39   25.78
   2  -6   0  261.29   27.14
   2  -6   1  289.56   23.68
   2  -6   1  225.83   30.96
   2  -6   1  245.16   27.10
   2  -6   2   27.53    6.86
   2  -6   2   39.64   13.37
   2  -6   2   15.97    5.98
   2  -6   3   19.14    6.56
   2  -6   3   17.85    4.88
   2  -6   3   17.41   10.41
   2  -6   4   12.44    3.66
   2  -6   4   16.57    8.02
   2  -6   5  350.94   40.31
   2  -6   6  211.43   26.84
   2  -6   6  186.05   29.91
   2  -6   7   54.79   14.67
   2  -6   7   74.35   20.27
   2  -6   8  350.03   42.68
   2  -6   9    3.01    9.33
   2  -6  10   94.25   23.21
   2  -6  11   23.56   11.93
   2  -6  12    9.20    5.41
   2  -6  13  304.37   44.48
   2  -5 -12  171.06   30.50
   2  -5 -11  166.47   29.73
   2  -5 -10   19.98    9.15
   2  -5  -9   89.38   16.70
   2  -5  -9   92.97   14.48
   2  -5  -9   77.89   18.71
   2  -5  -8  588.32   50.71
   2  -5  -8  563.40   34.46
   2  -5  -8  504.92   45.60
   2  -5  -8  482.05   38.72
   2  -5  -7  232.24   29.41
   2  -5  -7  244.07   20.92
   2  -5  -7  230.45   28.66
   2  -5  -7  239.43   26.49
   2  -5  -6  311.77   31.81
   2  -5  -6  338.47   23.01
   2  -5  -6  334.76   33.84
   2  -5  -6  349.09   32.26
   2  -5  -5  412.59   34.09
   2  -5  -5  448.47   26.14
   2  -5  -5  513.83   40.43
   2  -5  -5  568.10   42.51
   2  -5  -4    3.17    5.02
   2  -5  -4    6.66    3.24
   2  -5  -4   13.84    7.45
   2  -5  -3  295.58   27.99
   2  -5  -3  342.10   22.66
   2  -5  -3  326.56   35.08
   2  -5  -2  311.91   27.13
   2  -5  -2  282.85   21.49
   2  -5  -2  281.44   33.81
   2  -5  -1  315.05   26.14
   2  -5  -1  341.48   25.27
   2  -5   0   -0.67    4.15
   2  -5   0    5.94    3.54
   2  -5   0    5.81    4.00
   2  -5   0    1.63    4.01
   2  -5   1 1122.56   45.67
   2  -5   1  959.86   60.97
   2  -5   1  927.33   55.90
   2  -5   2   59.32    8.93
   2  -5   2   89.34   10.78
   2  -5   2   67.42   15.14
   2  -5   3 1335.64   47.99
   2  -5   3 1489.31   58.03
   2  -5   4  264.34   24.81
   2  -5   4  336.47   15.93
   2  -5   4  316.44   35.44
   2  -5   5  140.24   20.79
   2  -5   5  185.80   27.19
   2  -5   6  457.81   38.44
   2  -5   6  407.28   41.55
   2  -5   7  137.31   24.07
   2  -5   8  207.96   30.63
   2  -5   9   16.65    9.59
   2  -5  10  392.48   45.20
   2  -5  11   27.41   12.94
   2  -5  12   44.80   16.29
   2  -5  13   22.01   11.83
   2  -5  14   -2.84    2.22
   2  -4 -13  254.85   37.03
   2  -4 -12   48.95   15.54
   2  -4 -11   63.35   16.34
   2  -4 -10  257.25   33.62
   2  -4  -9   35.53   12.87
   2  -4  -8  185.34   18.76
   2  -4  -8  154.81   24.02
   2  -4  -8  181.36   26.81
   2  -4  -7   23.71    7.59
   2  -4  -7   18.09    9.92
   2  -4  -7   20.38    7.66
   2  -4  -7   13.85    4.93
   2  -4  -6  292.94   29.72
   2  -4  -6  272.14   19.68
   2  -4  -6  246.96   27.84
   2  -4  -6  256.08   24.31
   2  -4  -5  230.52   24.23
   2  -4  -5  246.19   16.90
   2  -4  -5  220.16   25.00
   2  -4  -5  229.73   23.25
   2  -4  -4  939.71   46.48
   2  -4  -4  936.50   35.39
   2  -4  -4  987.95   52.43
   2  -4  -4 1084.50   55.04
   2  -4  -3  848.92   31.99
   2  -4  -3  697.90   42.44
   2  -4  -2   25.13    5.00
   2  -4  -2   31.41    8.25
   2  -4  -1  445.11   25.21
   2  -4  -1  404.84   27.95
   2  -4   0    2.11    1.99
   2  -4   0    0.01    1.36
   2  -4   0    2.64    1.87
   2  -4   1    9.31    5.22
   2  -4   1    9.27    3.63
   2  -4   1    7.52    2.54
   2  -4   1   16.01    6.93
   2  -4   2  310.02   18.90
   2  -4   2  274.15   29.42
   2  -4   2  238.57   16.78
   2  -4   2  250.85   24.66
   2  -4   3    5.30    3.64
   2  -4   3    4.95    2.01
   2  -4   3    7.99    5.13
   2  -4   4  656.79   37.48
   2  -4   4  556.78   43.52
   2  -4   4  676.51   44.74
   2  -4   5  439.80   35.58
   2  -4   5  346.04   30.00
   2  -4   5  421.90   37.65
   2  -4   6  386.65   35.27
   2  -4   6  342.85   35.08
   2  -4   7  355.11   37.06
   2  -4   8 1204.86   73.10
   2  -4   9   -0.27    4.03
   2  -4  10  213.96   32.27
   2  -4  11  127.03   25.33
   2  -4  12   78.05   18.72
   2  -4  13  103.44   24.05
   2  -4  14    6.70    9.06
   2  -4  15  190.29   35.98
   2  -3 -14   22.63   12.49
   2  -3 -13  139.81   27.15
   2  -3 -12  217.72   31.96
   2  -3 -11   85.49   19.27
   2  -3 -11   96.71   14.22
   2  -3 -10  369.27   38.34
   2  -3 -10  380.51   28.07
   2  -3 -10  377.69   27.58
   2  -3  -9  136.79   22.79
   2  -3  -9  122.50   15.37
   2  -3  -9  134.39   15.98
   2  -3  -8  917.95   58.45
   2  -3  -8  956.87   45.15
   2  -3  -8  957.30   44.40
   2  -3  -7  592.35   43.49
   2  -3  -7  541.53   32.17
   2  -3  -7  594.72   32.74
   2  -3  -6 1387.79   50.37
   2  -3  -6 1375.55   67.10
   2  -3  -6 1297.46   52.31
   2  -3  -5  261.58   16.63
   2  -3  -5  233.91   24.50
   2  -3  -5  253.48   20.32
   2  -3  -5  313.70   27.44
   2  -3  -4  149.63   17.36
   2  -3  -4  149.99   10.87
   2  -3  -4  145.54   18.64
   2  -3  -4  169.67   17.34
   2  -3  -3    5.63    4.36
   2  -3  -3    8.57    3.89
   2  -3  -3   13.47    5.78
   2  -3  -3    6.95    2.16
   2  -3  -2  791.46   32.03
   2  -3  -2  953.12   43.73
   2  -3  -2  894.82   26.91
   2  -3  -1  156.13   10.90
   2  -3  -1  203.59   17.54
   2  -3  -1  170.25   21.86
   2  -3  -1  187.90   18.88
   2  -3   0  588.19   29.56
   2  -3   0  572.45   40.66
   2  -3   0  522.41   33.31
   2  -3   1  605.37   29.15
   2  -3   1  678.73   43.08
   2  -3   1  593.56   33.45
   2  -3   2  348.01   23.78
   2  -3   2  386.82   20.22
   2  -3   2  427.84   34.19
   2  -3   3   54.79   11.38
   2  -3   3   28.07   12.00
   2  -3   4   16.79   11.84
   2  -3   5  673.55   42.55
   2  -3   5  810.76   50.37
   2  -3   6  552.37   40.40
   2  -3   6  473.27   39.10
   2  -3   7  107.54   20.07
   2  -3   7  127.49   22.64
   2  -3   8  758.66   54.58
   2  -3   9   19.55    9.12
   2  -3  10  364.78   40.65
   2  -3  11  150.68   27.30
   2  -3  12    5.66    3.35
   2  -3  13  268.86   39.19
   2  -3  14    7.88   10.01
   2  -3  15   -0.33    6.37
   2  -2 -15   96.57   24.13
   2  -2 -14   94.05   22.99
   2  -2 -13   31.96   12.57
   2  -2 -12  253.49   33.98
   2  -2 -12  220.57   25.10
   2  -2 -11   54.44   14.81
   2  -2 -11   57.95   12.55
   2  -2 -11   71.55   11.89
   2  -2 -10  529.91   45.35
   2  -2 -10  537.68   38.17
   2  -2  -9   90.55   16.98
   2  -2  -9   73.39   13.25
   2  -2  -9   97.95   12.25
   2  -2  -8  184.33   23.42
   2  -2  -8  176.19   19.82
   2  -2  -8  194.31   16.31
   2  -2  -8  247.28   29.49
   2  -2  -7  785.72   55.12
   2  -2  -7  735.56   46.12
   2  -2  -7  681.77   39.45
   2  -2  -7  820.63   52.06
   2  -2  -7  715.49   31.51
   2  -2  -6  101.43   17.97
   2  -2  -6  112.40   16.35
   2  -2  -6   93.73   13.29
   2  -2  -6   97.36    9.85
   2  -2  -6  115.09   17.40
   2  -2  -5  221.44   21.84
   2  -2  -5  199.59   18.54
   2  -2  -5  211.11   14.05
   2  -2  -5  221.92   22.29
   2  -2  -4   11.65    3.65
   2  -2  -4   12.88    4.88
   2  -2  -4    9.96    4.57
   2  -2  -4    5.32    3.36
   2  -2  -3  391.35   26.48
   2  -2  -3  409.85   26.34
   2  -2  -3  438.60   25.03
   2  -2  -3  438.81   24.69
   2  -2  -2    6.78    2.71
   2  -2  -2   12.27    4.03
   2  -2  -2    8.56    2.91
   2  -2  -1  553.17   30.22
   2  -2  -1  572.23   26.79
   2  -2   0  322.42   14.49
   2  -2   0  360.58   21.71
   2  -2   0  409.39   29.88
   2  -2   0  329.99   20.28
   2  -2   1   34.97    5.54
   2  -2   1   39.13    5.99
   2  -2   1   46.62    8.12
   2  -2   1   35.08    8.60
   2  -2   2  371.57   22.11
   2  -2   2  507.32   32.62
   2  -2   3 1092.03   45.87
   2  -2   3 1108.62   53.15
   2  -2   4  508.75   31.57
   2  -2   4  332.67   28.42
   2  -2   5  218.52   23.51
   2  -2   6  846.03   50.50
   2  -2   6  987.97   55.18
   2  -2   7   59.83   13.39
   2  -2   7   52.67   13.21
   2  -2   8  233.45   28.72
   2  -2   9  702.18   52.14
   2  -2  10  652.20   52.42
   2  -2  11  379.40   41.50
   2  -2  12   43.47   15.51
   2  -2  13  112.09   24.77
   2  -2  14   46.81   15.42
   2  -2  15  191.97   35.41
   2  -1 -16  156.24   28.51
   2  -1 -15  237.41   36.07
   2  -1 -14   98.59   22.47
   2  -1 -13   67.92   17.84
   2  -1 -13   76.59   17.19
   2  -1 -12  412.48   42.49
   2  -1 -12  395.12   37.57
   2  -1 -12  455.39   27.98
   2  -1 -11    6.81    4.04
   2  -1 -11    6.01    6.38
   2  -1 -11   13.31    7.50
   2  -1 -10  723.04   51.47
   2  -1 -10  649.11   45.55
   2  -1 -10  664.27   29.43
   2  -1  -9 1073.21   61.14
   2  -1  -9 1003.93   36.73
   2  -1  -9 1003.53   55.18
   2  -1  -8  119.62   20.11
   2  -1  -8   95.18   16.64
   2  -1  -8  129.18   21.52
   2  -1  -8   99.91   15.81
   2  -1  -8  108.40    9.37
   2  -1  -7  258.37   27.92
   2  -1  -7  263.81   25.81
   2  -1  -7  244.13   16.54
   2  -1  -7  247.10   23.66
   2  -1  -7  336.15   32.64
   2  -1  -6   35.94   10.67
   2  -1  -6   38.79    9.91
   2  -1  -6   27.28    4.91
   2  -1  -6   34.48   10.88
   2  -1  -5  755.22   43.91
   2  -1  -5  707.71   40.76
   2  -1  -5  819.51   44.30
   2  -1  -5  678.24   37.29
   2  -1  -4  482.11   33.12
   2  -1  -4  430.06   30.07
   2  -1  -4  485.22   30.87
   2  -1  -4  402.75   27.80
   2  -1  -3  748.71   38.90
   2  -1  -3  768.40   39.12
   2  -1  -2  381.15   24.67
   2  -1  -2  371.43   24.41
   2  -1  -1 2598.58   74.06
   2  -1  -1 2569.50   79.09
   2  -1  -1 2365.41   79.41
   2  -1   0    9.13    2.35
   2  -1   0    9.30    3.57
   2  -1   0    9.53    4.21
   2  -1   1  276.24   21.69
   2  -1   1  343.37   17.88
   2  -1   2  997.14   38.68
   2  -1   2 1074.40   46.12
   2  -1   3  206.14   17.33
   2  -1   3  151.19   16.75
   2  -1   4 1439.06   57.38
   2  -1   4 1593.00   64.60
   2  -1   5  201.64   21.31
   2  -1   6 1059.77   54.17
   2  -1   7  427.24   33.39
   2  -1   7  440.65   35.40
   2  -1   8 1717.21   76.97
   2  -1   8 1675.76   79.32
   2  -1   8 1739.68   79.47
   2  -1   9  116.47   18.72
   2  -1   9  137.58   21.77
   2  -1  10  114.16   20.91
   2  -1  10  121.53   22.67
   2  -1  11  182.22   27.40
   2  -1  11  222.87   30.69
   2  -1  12   81.03   20.23
   2  -1  12   56.80   16.43
   2  -1  13  122.01   24.94
   2  -1  13  141.11   26.48
   2  -1  14   37.17   15.25
   2  -1  14   22.28   11.97
   2  -1  15  116.03   26.34
   2  -1  16  189.31   35.31
   2   0 -15    5.16    5.55
   2   0 -14   60.71   15.13
   2   0 -14   73.75   20.04
   2   0 -13    4.91    4.22
   2   0 -13    2.80    3.70
   2   0 -12  671.13   50.47
   2   0 -12  622.51   52.90
   2   0 -12  538.15   38.12
   2   0 -11   29.48    8.04
   2   0 -11   39.90   11.49
   2   0 -11   32.57   11.64
   2   0 -10  394.48   36.67
   2   0 -10  312.63   34.60
   2   0  -9  284.10   29.73
   2   0  -9  341.68   33.81
   2   0  -8  468.99   39.34
   2   0  -8  466.28   35.99
   2   0  -8  618.77   50.54
   2   0  -8  567.35   42.39
   2   0  -7 1302.17   63.95
   2   0  -7 1283.03   61.33
   2   0  -7 1177.20   62.16
   2   0  -7 1135.02   42.99
   2   0  -6   57.86   12.02
   2   0  -6   75.67   15.58
   2   0  -6   35.75    5.47
   2   0  -6   47.94   10.94
   2   0  -5  832.97   43.34
   2   0  -5  956.85   45.64
   2   0  -5  797.55   45.35
   2   0  -5  888.87   25.85
   2   0  -4 1200.13   49.94
   2   0  -4 1170.86   49.44
   2   0  -4 1201.21   53.34
   2   0  -3  717.65   33.00
   2   0  -3  670.81   32.79
   2   0  -3  598.09   33.99
   2   0  -2  157.84   12.64
   2   0  -2  134.47   14.30
   2   0  -1    5.41    2.03
   2   0  -1    5.81    2.91
   2   0  -1    1.18    2.25
   2   0   0 4594.95  113.15
   2   0   0 4791.43  122.47
   2   0   0 4556.25  115.55
   2   0   1 1987.50   61.27
   2   0   1 2058.71   63.23
   2   0   2  342.91   21.26
   2   0   2  288.75   20.50
   2   0   3    1.92    1.99
   2   0   3    0.22    0.74
   2   0   4 2026.67   62.47
   2   0   5  802.70   37.42
   2   0   6 1657.92   62.98
   2   0   7  854.63   45.17
   2   0   8  173.25   20.64
   2   0   8  194.55   24.81
   2   0   9  551.13   40.49
   2   0  10 1534.23   75.84
   2   0  11  231.61   29.10
   2   0  12  107.03   21.32
   2   0  13  568.56   52.03
   2   0  14  101.63   23.54
   2   0  15   58.91   19.99
   2   1 -15   53.59   19.29
   2   1 -14  339.00   45.01
   2   1 -13   46.76   16.80
   2   1 -12  196.01   25.36
   2   1 -12  173.64   30.43
   2   1 -12  123.62   19.75
   2   1 -11  198.14   24.16
   2   1 -11  178.17   28.76
   2   1 -10  739.83   46.20
   2   1 -10  668.15   54.59
   2   1  -9   17.23    7.21
   2   1  -9   30.65    8.85
   2   1  -9   24.97    9.98
   2   1  -8   41.59    8.94
   2   1  -8   34.40   10.39
   2   1  -8   44.53   10.47
   2   1  -8   31.72   11.16
   2   1  -7  849.20   50.40
   2   1  -7  822.28   43.97
   2   1  -7  852.40   38.18
   2   1  -7  788.02   52.73
   2   1  -6   49.22    7.61
   2   1  -6   46.86   11.69
   2   1  -6   51.70    9.59
   2   1  -5 2006.51   74.64
   2   1  -5 1967.78   83.63
   2   1  -5 2090.16   61.92
   2   1  -4   60.01   10.32
   2   1  -4   46.61    8.72
   2   1  -4   47.41    6.98
   2   1  -4   44.98   10.13
   2   1  -3 3315.11   88.93
   2   1  -3 3218.80  107.81
   2   1  -2 1484.62   44.47
   2   1  -2 1678.18   63.15
   2   1  -2 1660.97   64.34
   2   1  -1   69.58    5.39
   2   1  -1   70.40   11.41
   2   1  -1   43.78    8.19
   2   1  -1   55.16    5.92
   2   1   0 5908.50  145.20
   2   1   0 5933.36  130.98
   2   1   0 5339.47  154.17
   2   1   0 5360.66  142.82
   2   1   1 4087.68  110.25
   2   1   1 4074.68  121.87
   2   1   1 4312.93  101.90
   2   1   2 1434.84   43.45
   2   1   2 1497.20   55.49
   2   1   2 1477.68   51.20
   2   1   2 1533.80   61.62
   2   1   3  418.58   20.44
   2   1   3  407.74   29.33
   2   1   4  443.25   23.61
   2   1   4  406.44   28.97
   2   1   5  377.89   24.10
   2   1   5  337.52   26.22
   2   1   6 1933.85   67.32
   2   1   6 1604.80   64.76
   2   1   7  687.51   39.66
   2   1   8  846.75   47.81
   2   1   8  911.69   56.84
   2   1   9 1025.02   56.23
   2   1  10    3.75    3.54
   2   1  11  330.62   34.37
   2   1  12   32.21   11.46
   2   1  13   36.88   12.55
   2   1  14   57.12   16.49
   2   1  15   37.61   15.04
   2   2 -16  100.14   27.89
   2   2 -15    4.30    2.59
   2   2 -14   35.50   15.26
   2   2 -13    5.88    9.23
   2   2 -12  184.64   32.30
   2   2 -12  185.34   23.39
   2   2 -11   58.84   12.95
   2   2 -10   11.25    6.17
   2   2  -9 2429.07   86.74
   2   2  -9 1976.09   76.43
   2   2  -8   13.26    5.86
   2   2  -8   11.06    4.86
   2   2  -7 1519.61   67.75
   2   2  -7 1364.12   58.13
   2   2  -7 1377.88   63.54
   2   2  -6  557.09   32.38
   2   2  -6  606.62   40.25
   2   2  -5 2492.21   80.62
   2   2  -4 1120.67   45.51
   2   2  -4 1064.49   46.32
   2   2  -3   62.85    8.85
   2   2  -3   67.26   10.23
   2   2  -2   23.37    4.80
   2   2  -2   17.38    5.92
   2   2  -2   21.30    5.91
   2   2  -1   18.20    6.10
   2   2  -1    6.41    5.12
   2   2   0   17.22    5.84
   2   2   1 1165.61   46.27
   2   2   2  173.70   14.30
   2   2   2  192.84   15.96
   2   2   3  846.47   36.65
   2   2   3  846.00   34.74
   2   2   4  437.66   27.39
   2   2   5  475.32   30.73
   2   2   6  391.35   29.90
   2   2   6  369.65   31.58
   2   2   7  788.68   45.80
   2   2   7  677.42   47.67
   2   2   8   55.85   11.46
   2   2   8   54.69   14.04
   2   2   8   61.97   12.36
   2   2   9  376.05   33.00
   2   2   9  275.21   24.26
   2   2  10   33.19   10.26
   2   2  11  625.65   48.79
   2   2  12  218.54   29.50
   2   2  13  330.29   38.67
   2   2  14  450.69   47.49
   2   2  15    9.59    4.22
   2   3 -16  149.29   35.94
   2   3 -15  120.44   30.27
   2   3 -14  397.55   55.45
   2   3 -12  134.51   21.90
   2   3 -11  463.33   40.62
   2   3 -10   27.53    9.18
   2   3 -10   37.01   10.26
   2   3  -9    1.44    2.71
   2   3  -9    6.87    6.26
   2   3  -8  131.43   18.86
   2   3  -7  899.60   51.43
   2   3  -7  900.35   50.94
   2   3  -6   92.39   15.06
   2   3  -6   86.43   14.05
   2   3  -5  977.72   50.72
   2   3  -4 1294.33   59.35
   2   3  -3  904.15   42.20
   2   3  -3  858.12   46.28
   2   3  -2 1061.20   53.27
   2   3  -1    6.95    1.60
   2   3  -1    4.16    2.68
   2   3   0  893.16   46.09
   2   3   0  723.90   50.03
   2   3   1  382.81   27.42
   2   3   1  381.58   35.76
   2   3   2   37.28    7.44
   2   3   2   28.09    6.33
   2   3   3    1.69    2.46
   2   3   3    3.46    2.00
   2   3   4  617.28   38.11
   2   3   4  648.22   28.47
   2   3   5  354.87   29.59
   2   3   5  404.57   34.84
   2   3   6   52.17   12.79
   2   3   6   96.40   17.33
   2   3   7 1074.71   57.71
   2   3   7 1013.21   63.08
   2   3   8   15.02    7.79
   2   3   9  531.38   44.95
   2   3   9  449.98   38.65
   2   3  10   29.59    8.41
   2   3  10   62.15   14.92
   2   3  11  191.56   26.94
   2   3  12  458.30   44.44
   2   3  13   16.93    9.82
   2   3  14  244.93   35.54
   2   3  15   -8.35    6.52
   2   4 -12   46.85   13.59
   2   4 -11  153.49   25.04
   2   4 -10   46.42   12.65
   2   4  -9  955.00   60.95
   2   4  -8   56.53   13.81
   2   4  -7  681.49   48.88
   2   4  -6  451.03   35.88
   2   4  -6  466.33   39.06
   2   4  -5  326.75   28.35
   2   4  -5  336.42   32.30
   2   4  -4  238.48   23.86
   2   4  -4  225.34   25.74
   2   4  -3  412.95   35.41
   2   4  -2  655.87   45.12
   2   4  -2  585.06   20.82
   2   4  -1  112.15   10.18
   2   4  -1  118.98   18.96
   2   4   0  683.52   51.11
   2   4   0  703.00   33.27
   2   4   1  151.98   23.82
   2   4   1  149.51   18.25
   2   4   2 2319.46   82.54
   2   4   2 2508.76   98.85
   2   4   3 1091.55   45.52
   2   4   3 1184.77   64.47
   2   4   4  253.02   18.15
   2   4   4  240.01   25.85
   2   4   4  249.23   29.16
   2   4   5  400.36   34.92
   2   4   5  391.30   19.92
   2   4   5  433.04   40.04
   2   4   6  112.31   19.25
   2   4   6  118.75   21.10
   2   4   7   13.02    6.62
   2   4   8  216.28   26.94
   2   4   9  248.83   31.07
   2   4  10   15.74    7.60
   2   4  11  654.82   56.18
   2   4  12  214.08   31.44
   2   4  13  126.77   25.41
   2   4  14  231.64   34.98
   2   5 -12   37.03   13.13
   2   5 -11  166.15   27.67
   2   5 -10   17.17    8.30
   2   5  -9  314.57   37.42
   2   5  -8    3.55    6.06
   2   5  -7  286.45   34.44
   2   5  -6   91.30   19.63
   2   5  -5  214.10   28.83
   2   5  -4  566.02   47.14
   2   5  -3  450.70   41.41
   2   5  -2  342.43   36.38
   2   5  -2  299.67   17.68
   2   5  -1  149.98   24.06
   2   5  -1   78.00    9.94
   2   5   0  418.71   43.78
   2   5   0  469.77   30.02
   2   5   1    2.92    3.07
   2   5   1    1.23    4.67
   2   5   2   57.17   14.72
   2   5   2   46.62   10.29
   2   5   2   50.33   16.36
   2   5   3  188.22   22.85
   2   5   3  181.77   19.26
   2   5   3  204.41   27.79
   2   5   4    5.06    2.74
   2   5   4    6.02    2.41
   2   5   4    5.14    3.27
   2   5   5   82.08   17.51
   2   5   5   98.59   10.58
   2   5   6    2.80    1.54
   2   5   7  560.79   47.30
   2   5   8   18.79    8.76
   2   5   9  449.79   43.71
   2   5  10   28.01   12.61
   2   5  11  158.96   29.26
   2   5  12  174.75   32.55
   2   5  13   34.95   12.99
   2   5  14  161.36   30.06
   2   6 -12  109.03   25.58
   2   6 -11  168.57   31.32
   2   6 -10   18.85   11.12
   2   6  -9  314.92   40.71
   2   6  -8  325.89   40.99
   2   6  -7  325.82   40.37
   2   6  -6  915.99   68.14
   2   6  -5   73.49   18.57
   2   6  -4  278.73   35.96
   2   6  -3   25.18    5.52
   2   6  -3   29.90   10.64
   2   6  -2   28.99    6.07
   2   6  -2   77.87   18.35
   2   6  -1   18.06    6.13
   2   6  -1   21.44   11.82
   2   6   0  123.96   16.80
   2   6   0  120.02   26.02
   2   6   1  119.27   26.96
   2   6   2   98.47   16.91
   2   6   2  107.95   25.42
   2   6   3   88.50   17.33
   2   6   3   96.63   15.76
   2   6   4    9.11    5.82
   2   6   4    6.97    3.93
   2   6   5  283.27   34.66
   2   6   5  243.99   19.06
   2   6   6   29.36   11.54
   2   6   6   35.05    4.26
   2   6   7  256.21   35.37
   2   6   8   25.88   12.51
   2   6   9   88.76   20.76
   2   6  10  153.93   28.27
   2   6  11   40.85   16.79
   2   6  12   46.86   17.79
   2   6  13   60.47   19.89
   2   7 -12   37.74   15.00
   2   7 -11   92.45   26.35
   2   7 -10   27.54   14.28
   2   7  -9  260.93   41.16
   2   7  -8  225.79   37.13
   2   7  -7   14.97   12.04
   2   7  -6  447.01   51.06
   2   7  -5   29.61   12.41
   2   7  -4  449.28   49.88
   2   7  -3  133.69   27.08
   2   7  -2  432.44   49.69
   2   7  -2  337.06   25.20
   2   7  -1  170.34   19.41
   2   7  -1  143.65   29.69
   2   7   0  208.96   37.58
   2   7   1   89.15   16.38
   2   7   1   64.06   20.33
   2   7   2   40.90   11.91
   2   7   2   32.98   10.51
   2   7   2   25.74   13.36
   2   7   3  661.34   53.24
   2   7   3  769.52   49.88
   2   7   3  702.04   71.32
   2   7   4    3.81    5.97
   2   7   4    7.81    4.22
   2   7   5  244.73   35.45
   2   7   5  234.08   19.89
   2   7   6    4.90    3.65
   2   7   7  155.01   29.45
   2   7   8  141.25   28.03
   2   7   9   71.13   19.89
   2   7  10  198.17   34.44
   2   7  11   47.56   17.47
   2   7  12  190.45   36.08
   2   8  -9   33.69   14.97
   2   8  -8  102.16   28.02
   2   8  -7   98.08   25.54
   2   8  -6  154.28   31.98
   2   8  -5    7.36    7.17
   2   8  -4  363.98   49.86
   2   8  -3   62.23   19.53
   2   8  -2  266.52   43.04
   2   8  -1   73.70   23.50
   2   8   0   35.77   16.89
   2   8   1  356.19   54.10
   2   8   2    3.89    4.74
   2   8   2   10.85    8.70
   2   8   3   17.09    7.56
   2   8   3   32.55   11.56
   2   8   3   13.40    9.66
   2   8   4   28.62   11.89
   2   8   5  247.57   38.16
   2   8   6   12.30    9.06
   2   8   7  303.78   43.78
   2   8   8   21.55   13.50
   2   8   9    9.15   11.17
   2   8  10    7.88    5.14
   2   9  -5   18.65   12.25
   2   9  -4   92.26   28.43
   2   9  -3  -12.55   10.96
   2   9  -2   12.07    7.46
   2   9  -1  178.29   39.71
   2   9   0   18.89   14.92
   2   9   1  229.07   46.59
   2   9   1  270.92   37.39
   2   9   2  150.94   26.03
   2   9   2  105.21   31.28
   2   9   3  320.88   42.88
   2   9   4    3.68    8.20
   2   9   5   52.37   19.41
   2   9   6   -0.47    6.06
   2   9   7   73.13   22.70
   2   9   8   -8.96    3.53
   2  10   2   63.26   20.14
   2  10   3   30.29   14.44
   3  -9  -5   25.89   12.22
   3  -9  -4  200.35   31.42
   3  -9  -3   58.50   15.77
   3  -9  -2    2.01    0.50
   3  -9   5   14.91   12.90
   3  -9   6   96.98   25.52
   3  -9   7   26.41   11.81
   3  -8  -7   17.57    9.71
   3  -8  -6  113.99   23.99
   3  -8  -5  283.17   36.35
   3  -8  -4    2.53    2.83
   3  -8  -3  110.82   20.42
   3  -8  -2   37.43   12.56
   3  -8  -1   59.72   14.12
   3  -8   0    0.03    1.26
   3  -8   1  178.49   23.82
   3  -8   1  217.73   27.93
   3  -8   2  230.59   30.59
   3  -8   3   62.66   17.40
   3  -8   3   28.49   13.87
   3  -8   4  341.93   47.31
   3  -8   4  267.93   39.28
   3  -8   5   -1.69    8.72
   3  -8   6   58.92   18.63
   3  -8   7  123.85   28.41
   3  -8   8  111.86   28.23
   3  -8   9    9.61    2.72
   3  -7  -9   34.31   13.76
   3  -7  -8  181.46   30.55
   3  -7  -7  170.74   28.52
   3  -7  -6   31.02   13.80
   3  -7  -5   85.49   18.98
   3  -7  -4   19.59    8.26
   3  -7  -3  238.36   29.82
   3  -7  -2   64.49   14.67
   3  -7  -2   84.12   12.26
   3  -7  -1  243.64   27.25
   3  -7  -1  238.96   23.23
   3  -7   0  140.04   20.31
   3  -7   0  127.92   18.54
   3  -7   1  133.23   18.98
   3  -7   1  112.55   20.22
   3  -7   2   12.28    5.92
   3  -7   2    7.12    6.29
   3  -7   2   26.78   13.33
   3  -7   3   20.33    5.85
   3  -7   3   30.88   14.50
   3  -7   4  139.26   28.67
   3  -7   5   -0.75    5.26
   3  -7   6  331.62   44.46
   3  -7   7   -7.24    4.11
   3  -7   8   36.43   15.95
   3  -7   9   57.40   20.31
   3  -7  10   34.83   14.74
   3  -7  11   22.48   13.22
   3  -6 -10  147.30   27.31
   3  -6  -9   30.22   10.71
   3  -6  -8   61.70   15.96
   3  -6  -7  537.01   49.50
   3  -6  -6    7.64    7.78
   3  -6  -5  189.75   11.80
   3  -6  -5  285.87   32.86
   3  -6  -4   37.76    7.96
   3  -6  -4   57.65   14.20
   3  -6  -4   30.37    4.55
   3  -6  -3    7.68    2.62
   3  -6  -3   13.27    3.98
   3  -6  -3   13.47    7.59
   3  -6  -2  411.35   35.08
   3  -6  -2  360.63   23.16
   3  -6  -1  105.37   16.99
   3  -6  -1   97.20   13.39
   3  -6   0   12.52    6.21
   3  -6   0   31.86    8.32
   3  -6   0   26.08   10.65
   3  -6   1   29.74    8.45
   3  -6   1   33.75    9.90
   3  -6   1   27.66   11.35
   3  -6   2 1027.73   53.76
   3  -6   2 1106.29   51.74
   3  -6   2 1049.18   74.40
   3  -6   3  130.62   13.99
   3  -6   3   90.88   15.63
   3  -6   3   98.28   22.47
   3  -6   4  609.48   56.48
   3  -6   5  395.41   47.12
   3  -6   6  236.07   36.32
   3  -6   7  238.26   37.00
   3  -6   8  103.36   25.06
   3  -6   9   86.92   23.66
   3  -6  10   12.19    8.89
   3  -6  11   23.83   13.32
   3  -6  12    2.28    9.36
   3  -6  13    4.36    4.50
   3  -5 -11   29.53   14.74
   3  -5 -10   97.23   22.08
   3  -5  -9  266.26   34.71
   3  -5  -8  127.11   21.75
   3  -5  -8  103.63   20.76
   3  -5  -7    6.95    5.70
   3  -5  -7    2.36    4.38
   3  -5  -6    5.38    5.30
   3  -5  -6    5.40    4.42
   3  -5  -6    2.05    5.67
   3  -5  -5  802.93   53.41
   3  -5  -5  776.58   42.87
   3  -5  -4   11.98    4.85
   3  -5  -4    8.91    6.15
   3  -5  -3  891.02   52.05
   3  -5  -3  692.31   30.19
   3  -5  -3  906.08   51.48
   3  -5  -2   68.42   13.43
   3  -5  -2   66.14    7.49
   3  -5  -2   65.65   13.70
   3  -5  -1  142.74   18.70
   3  -5  -1   98.11   11.70
   3  -5  -1   96.19   16.38
   3  -5   0  928.84   49.32
   3  -5   0  891.81   62.28
   3  -5   0  808.85   41.26
   3  -5   0  852.44   50.73
   3  -5   1   44.34   10.00
   3  -5   1   48.77    8.92
   3  -5   1   70.65   17.76
   3  -5   2  170.29   17.51
   3  -5   2  190.04   28.74
   3  -5   3 1179.35   44.31
   3  -5   3 1026.08   70.72
   3  -5   4  305.81   28.96
   3  -5   4  336.62   39.84
   3  -5   5   12.49    7.39
   3  -5   5    3.85    1.62
   3  -5   6  496.35   49.75
   3  -5   7  389.03   43.79
   3  -5   8  223.80   33.88
   3  -5   9  279.73   39.95
   3  -5  10    0.35    1.24
   3  -5  11   12.29    5.19
   3  -5  12   26.03   13.64
   3  -5  13   -2.71    6.76
   3  -4 -13   15.97    9.41
   3  -4 -12    8.68    7.84
   3  -4 -11  140.18   27.29
   3  -4 -10  150.12   27.88
   3  -4  -9  338.15   38.76
   3  -4  -8   81.08   17.74
   3  -4  -8   79.09   18.00
   3  -4  -8   82.89   13.89
   3  -4  -7 2931.27  121.15
   3  -4  -7 3153.01  115.58
   3  -4  -7 2950.00  101.41
   3  -4  -6  120.79   21.38
   3  -4  -6  115.39   18.02
   3  -4  -6  114.28   18.87
   3  -4  -5  439.72   37.01
   3  -4  -5  469.96   32.01
   3  -4  -4   87.58   16.32
   3  -4  -4   71.57   10.71
   3  -4  -4   75.47   13.22
   3  -4  -3  536.47   38.64
   3  -4  -3  489.96   24.55
   3  -4  -2   39.44   10.73
   3  -4  -1  147.12    9.86
   3  -4  -1  164.67   19.68
   3  -4  -1  164.96   11.55
   3  -4  -1  176.83   25.40
   3  -4   0  483.03   23.88
   3  -4   0  572.66   34.92
   3  -4   0  598.95   47.49
   3  -4   0  521.76   34.79
   3  -4   1  237.90   18.36
   3  -4   1  237.13   21.95
   3  -4   1  261.81   34.47
   3  -4   1  308.94   29.49
   3  -4   2  477.85   29.70
   3  -4   2  491.82   27.18
   3  -4   2  481.80   43.35
   3  -4   2  469.79   36.20
   3  -4   3  171.39   27.67
   3  -4   3  194.29   26.76
   3  -4   4  594.94   39.36
   3  -4   4  711.44   54.03
   3  -4   5  681.52   45.28
   3  -4   5  811.34   57.75
   3  -4   6  415.51   42.64
   3  -4   7  216.32   30.84
   3  -4   8   50.36   16.73
   3  -4   9  172.84   29.66
   3  -4  10    6.87    7.70
   3  -4  11  213.51   35.62
   3  -4  12  103.16   25.91
   3  -4  13  165.18   32.91
   3  -4  14   -4.76    7.91
   3  -3 -14  137.90   29.09
   3  -3 -13    9.10    5.24
   3  -3 -12  115.17   24.30
   3  -3 -11  260.59   36.16
   3  -3 -11  209.69   24.47
   3  -3 -10   29.33   13.15
   3  -3 -10   22.62    8.55
   3  -3  -9  782.36   58.37
   3  -3  -9  851.42   49.04
   3  -3  -8   53.98   14.44
   3  -3  -8   56.34   11.86
   3  -3  -8   62.19    8.47
   3  -3  -8   55.91   13.86
   3  -3  -7  139.39   22.41
   3  -3  -7  199.14   24.68
   3  -3  -7  150.67   19.47
   3  -3  -7  171.70   16.05
   3  -3  -6   27.76    6.30
   3  -3  -6   39.20   12.30
   3  -3  -6   32.73    9.62
   3  -3  -6   27.84    9.02
   3  -3  -5  878.36   54.83
   3  -3  -5  963.38   39.55
   3  -3  -4   96.12   16.22
   3  -3  -4  126.59   14.88
   3  -3  -4  115.91   12.19
   3  -3  -3  776.27   46.24
   3  -3  -3  739.61   34.55
   3  -3  -2  928.34   48.31
   3  -3  -2  816.79   37.50
   3  -3  -1    8.27    3.79
   3  -3  -1    4.87    3.91
   3  -3  -1   12.64    5.20
   3  -3   0  310.49   15.81
   3  -3   0  298.45   24.18
   3  -3   0  371.18   34.63
   3  -3   0  327.74   25.08
   3  -3   1  168.33   14.13
   3  -3   1  225.23   17.81
   3  -3   1  214.64   25.99
   3  -3   2  263.97   20.14
   3  -3   2  305.79   31.86
   3  -3   3  102.23   13.83
   3  -3   3  158.94   23.48
   3  -3   4    5.16    4.11
   3  -3   5  288.85   27.37
   3  -3   5  323.15   34.67
   3  -3   6    3.02    3.96
   3  -3   6   -0.18    1.85
   3  -3   7  525.67   46.91
   3  -3   8    1.77    5.52
   3  -3   9  918.21   66.13
   3  -3  10  179.62   29.45
   3  -3  11   68.45   18.07
   3  -3  12   35.52   13.85
   3  -3  13    4.45    5.71
   3  -3  14  162.46   35.63
   3  -2 -14    3.83    5.52
   3  -2 -13   21.48   12.24
   3  -2 -12  136.77   26.84
   3  -2 -12   93.53   18.50
   3  -2 -11  364.17   42.11
   3  -2 -11  329.01   33.98
   3  -2 -10   25.55    9.99
   3  -2 -10   23.74   11.80
   3  -2  -9  850.47   59.65
   3  -2  -9  765.28   50.02
   3  -2  -8  141.67   23.24
   3  -2  -8  145.28   23.82
   3  -2  -8  135.66   20.50
   3  -2  -7  549.78   45.41
   3  -2  -7  503.14   41.73
   3  -2  -7  500.13   37.83
   3  -2  -6  494.48   39.95
   3  -2  -6  425.82   36.97
   3  -2  -6  497.76   38.48
   3  -2  -6  438.92   34.22
   3  -2  -5  474.41   37.34
   3  -2  -5  539.17   36.95
   3  -2  -5  507.40   36.22
   3  -2  -4  561.08   39.14
   3  -2  -4  617.14   40.13
   3  -2  -3  184.31   20.87
   3  -2  -3  185.34   20.96
   3  -2  -2  190.58   20.75
   3  -2  -2  215.51   23.64
   3  -2  -1  472.49   29.46
   3  -2  -1  432.95   34.26
   3  -2   0 1743.75   60.11
   3  -2   0 1668.03   47.04
   3  -2   0 1583.61   71.88
   3  -2   1  119.65   11.57
   3  -2   1  123.97   19.12
   3  -2   2  879.58   38.60
   3  -2   2 1066.04   55.33
   3  -2   3 1567.44   58.93
   3  -2   3 1605.70   72.58
   3  -2   4  674.62   38.29
   3  -2   4  644.80   44.63
   3  -2   5  363.04   34.85
   3  -2   6   23.34    9.24
   3  -2   6   27.31   12.40
   3  -2   7  755.80   49.76
   3  -2   7  684.73   51.49
   3  -2   8  267.99   34.20
   3  -2   9   24.32   10.32
   3  -2  10  117.90   24.38
   3  -2  11   47.46   16.91
   3  -2  12   57.08   17.65
   3  -2  13   48.98   17.87
   3  -2  14   66.24   21.60
   3  -2  15   16.74   11.96
   3  -1 -15   -3.17    7.86
   3  -1 -14  134.23   25.90
   3  -1 -13  120.57   24.51
   3  -1 -13   88.45   18.66
   3  -1 -12    1.34    4.32
   3  -1 -12    4.13    4.40
   3  -1 -11  370.45   39.91
   3  -1 -11  239.35   30.08
   3  -1 -10   33.97   12.96
   3  -1 -10   12.86    5.65
   3  -1  -9  293.79   33.52
   3  -1  -9  301.60   31.10
   3  -1  -8   76.38   18.67
   3  -1  -8   62.39   14.86
   3  -1  -8   66.41   14.23
   3  -1  -7  841.31   54.16
   3  -1  -7  744.25   50.54
   3  -1  -7  802.31   50.23
   3  -1  -6   64.44   13.73
   3  -1  -6   40.28   11.29
   3  -1  -6   51.80   12.86
   3  -1  -6   48.09   11.52
   3  -1  -5   15.10    5.84
   3  -1  -5    5.74    3.78
   3  -1  -4  644.62   38.71
   3  -1  -4  633.39   39.34
   3  -1  -4  631.48   41.26
   3  -1  -3   11.73    5.15
   3  -1  -3   11.17    5.01
   3  -1  -2 2504.63   83.40
   3  -1  -2 2673.95   91.94
   3  -1  -2 2559.76   89.02
   3  -1  -1  888.49   48.35
   3  -1  -1  980.34   49.15
   3  -1   0 2297.31   66.31
   3  -1   0 2459.02   87.19
   3  -1   1  693.09   30.98
   3  -1   1  683.76   39.39
   3  -1   2 1416.01   52.07
   3  -1   2 1371.34   60.85
   3  -1   3  477.10   29.44
   3  -1   3  408.31   31.63
   3  -1   4   86.26   13.20
   3  -1   4   78.70   14.18
   3  -1   5 4225.40  136.96
   3  -1   6  629.44   43.14
   3  -1   6  602.97   43.83
   3  -1   7  754.23   49.72
   3  -1   7  716.10   50.68
   3  -1   8  322.59   34.26
   3  -1   9  102.48   20.69
   3  -1  10   80.97   18.37
   3  -1  11  182.10   29.49
   3  -1  12   79.70   19.87
   3  -1  13   20.58   12.16
   3  -1  14  277.69   41.80
   3  -1  15    8.80   10.10
   3   0 -14   63.84   17.37
   3   0 -14   66.45   18.87
   3   0 -13  145.78   25.34
   3   0 -13  115.02   24.43
   3   0 -12   60.61   15.45
   3   0 -12   53.56   16.64
   3   0 -11  427.45   40.24
   3   0 -11  290.55   35.36
   3   0 -10   71.40   15.72
   3   0 -10   63.55    5.60
   3   0 -10   69.23   16.19
   3   0  -9  509.83   41.01
   3   0  -9  411.55   39.90
   3   0  -8   82.64   16.16
   3   0  -8   78.66   16.56
   3   0  -7  274.39   28.90
   3   0  -7  301.89   28.53
   3   0  -7  248.68   28.52
   3   0  -6  641.13   41.33
   3   0  -6  692.11   46.05
   3   0  -5 2421.58   86.65
   3   0  -5 2263.09   85.59
   3   0  -4 1786.82   64.63
   3   0  -4 1427.63   66.07
   3   0  -3  363.76   24.32
   3   0  -3  358.05   29.76
   3   0  -2 2478.86   94.56
   3   0  -2 2557.89   86.31
   3   0  -1  101.97   15.08
   3   0  -1   95.56   12.90
   3   0  -1  122.59   11.98
   3   0   0  225.07   21.80
   3   0   0  248.02   18.36
   3   0   0  211.61   19.34
   3   0   1   14.95    4.82
   3   0   1   14.34    5.18
   3   0   1   12.84    4.66
   3   0   2  184.52   18.00
   3   0   2  220.24   20.07
   3   0   3 2079.78   74.17
   3   0   3 1929.65   74.38
   3   0   4    6.56    4.96
   3   0   4   39.85   12.01
   3   0   5  506.14   29.52
   3   0   5  580.11   38.26
   3   0   6   65.59   12.77
   3   0   6   79.01   11.96
   3   0   7 1008.09   50.65
   3   0   7 1035.52   60.08
   3   0   7 1048.14   58.98
   3   0   8  175.35   20.77
   3   0   8  140.18   21.79
   3   0   9  659.03   44.74
   3   0   9  603.19   48.37
   3   0  10   79.82   16.03
   3   0  11   20.18    7.22
   3   0  12  131.34   25.41
   3   0  12  136.17   23.89
   3   0  13    2.81    4.46
   3   0  13    1.30    1.45
   3   0  14   65.09   19.83
   3   0  14   73.32   18.87
   3   0  15  122.96   28.41
   3   0  15   98.16   23.20
   3   1 -15    1.06    6.06
   3   1 -14    3.36    6.57
   3   1 -13   62.73   18.52
   3   1 -12    3.78    6.79
   3   1 -11   74.57   10.41
   3   1 -11   78.59   20.42
   3   1 -10  146.62   26.78
   3   1 -10  160.97   14.69
   3   1  -9  166.56   26.95
   3   1  -9  168.29   14.57
   3   1  -8  143.06   21.51
   3   1  -8  139.30   12.50
   3   1  -8   96.75   20.21
   3   1  -7  976.54   54.54
   3   1  -7 1040.98   37.91
   3   1  -7  941.58   61.96
   3   1  -6  961.05   58.75
   3   1  -6  732.14   31.46
   3   1  -5    9.32    3.08
   3   1  -5   19.02    8.29
   3   1  -5    6.99    3.22
   3   1  -5   11.40    6.73
   3   1  -4 2667.92   85.65
   3   1  -4 2872.07  106.12
   3   1  -3  149.70   13.83
   3   1  -3  149.38   19.41
   3   1  -3  183.22   22.84
   3   1  -2  139.72   11.74
   3   1  -2  166.97   19.48
   3   1  -1    6.29    6.08
   3   1  -1    0.32    0.87
   3   1  -1    2.17    0.38
   3   1  -1    1.01    1.23
   3   1  -1    0.93    1.83
   3   1   0  102.29   15.31
   3   1   0  106.18   17.28
   3   1   0  129.75   15.10
   3   1   0  121.52   12.32
   3   1   1  681.43   38.73
   3   1   1  734.88   39.30
   3   1   1  602.53   42.39
   3   1   1  591.86   31.49
   3   1   2  477.38   16.35
   3   1   2  419.15   29.67
   3   1   2  504.53   32.87
   3   1   2  475.36   37.45
   3   1   2  514.10   29.63
   3   1   3  681.70   25.65
   3   1   3  738.53   39.34
   3   1   3  670.71   44.89
   3   1   3  725.74   37.39
   3   1   4   25.79    5.01
   3   1   4   16.75    6.85
   3   1   5 2267.49   70.76
   3   1   5 2197.46   89.65
   3   1   6   54.31    9.12
   3   1   7  120.31   15.42
   3   1   7  150.46   22.43
   3   1   8  402.92   31.48
   3   1   9   21.74    7.40
   3   1  10  450.40   37.93
   3   1  11   97.82   18.30
   3   1  12  506.33   45.73
   3   1  13  120.75   22.30
   3   1  14  320.93   39.97
   3   1  15   14.36    7.83
   3   2 -16   97.68   29.46
   3   2 -15   92.37   26.45
   3   2 -14  222.91   38.85
   3   2 -13  259.12   42.13
   3   2 -12   30.20   14.30
   3   2 -11   83.35   13.47
   3   2 -11   61.95   18.49
   3   2 -10   80.47   13.63
   3   2 -10   84.28   21.85
   3   2  -9   20.31    7.02
   3   2  -9   10.90    5.20
   3   2  -8  173.29   23.06
   3   2  -8  194.94   29.91
   3   2  -8  176.26   18.22
   3   2  -7    1.38    3.60
   3   2  -7    2.21    4.13
   3   2  -7    0.51    0.90
   3   2  -7    1.14    2.06
   3   2  -6  722.53   37.52
   3   2  -6  704.12   54.22
   3   2  -6  759.87   50.57
   3   2  -5  145.70   16.22
   3   2  -5  135.73   21.68
   3   2  -5  132.48   20.42
   3   2  -4  393.57   25.28
   3   2  -4  343.50   27.14
   3   2  -4  352.82   35.01
   3   2  -3   46.44   12.52
   3   2  -3   40.56    6.67
   3   2  -3   36.08    9.98
   3   2  -3   31.77    8.72
   3   2  -2 2283.49   64.05
   3   2  -2 2353.68   91.54
   3   2  -2 2329.82   99.55
   3   2  -1 1567.00   42.90
   3   2  -1 1556.10   67.54
   3   2  -1 1415.10   43.15
   3   2  -1 1328.40   73.02
   3   2   0  234.18   22.71
   3   2   0  287.83   26.08
   3   2   0  281.11   16.23
   3   2   0  347.80   34.45
   3   2   1  387.41   17.54
   3   2   1  406.25   30.23
   3   2   1  423.83   22.85
   3   2   1  443.23   39.39
   3   2   2   84.11    7.93
   3   2   2   71.81   15.69
   3   2   2   83.09   12.88
   3   2   3 1196.97   42.49
   3   2   3 1209.90   68.39
   3   2   4   11.12    8.29
   3   2   4   11.86    3.71
   3   2   4   14.82    4.94
   3   2   5  291.71   21.62
   3   2   5  256.21   28.96
   3   2   6  576.59   33.62
   3   2   6  480.37   40.25
   3   2   7  307.03   25.63
   3   2   7  272.57   32.08
   3   2   7  271.39   29.60
   3   2   8  125.16   17.09
   3   2   8   88.11   17.09
   3   2   9   -0.57    2.53
   3   2  10  467.91   38.68
   3   2  11  612.26   47.40
   3   2  12  142.28   23.40
   3   2  13  479.64   46.41
   3   2  14    6.90    7.95
   3   2  15   66.73   18.43
   3   3 -15  188.21   39.63
   3   3 -14    3.27    7.14
   3   3 -13  127.26   30.04
   3   3 -12   14.84   10.57
   3   3 -11  105.06   17.34
   3   3 -11   89.52   26.37
   3   3 -10   93.88   16.24
   3   3 -10  107.03   25.85
   3   3  -9   62.20   12.57
   3   3  -9   33.92   11.28
   3   3  -9   47.34   16.09
   3   3  -8  685.51   60.36
   3   3  -8  669.30   51.88
   3   3  -7   14.14    7.63
   3   3  -7   28.00    8.74
   3   3  -7   24.28   10.83
   3   3  -7   18.96    7.27
   3   3  -6  570.53   37.43
   3   3  -6  461.86   45.96
   3   3  -6  557.78   38.38
   3   3  -6  568.72   48.98
   3   3  -5  126.28   23.11
   3   3  -5  108.39   16.32
   3   3  -4 1224.97   50.80
   3   3  -4 1127.91   58.51
   3   3  -4 1114.07   68.34
   3   3  -3   58.59    9.28
   3   3  -3   77.71   16.77
   3   3  -3   47.01   11.94
   3   3  -2   18.01    4.56
   3   3  -2   23.91    8.79
   3   3  -2   20.33    8.10
   3   3  -1  716.71   48.88
   3   3  -1  851.79   51.08
   3   3   0  542.55   39.34
   3   3   0  690.62   25.20
   3   3   1 6417.66  174.72
   3   3   2  300.71   21.15
   3   3   2  302.86   25.78
   3   3   3 6232.83  159.27
   3   3   3 6445.87  169.70
   3   3   4  793.69   40.90
   3   3   4 1035.16   45.41
   3   3   5  627.61   36.12
   3   3   6   44.89   10.77
   3   3   6   30.94   12.11
   3   3   6   39.90   11.92
   3   3   7    4.10    2.07
   3   3   7   15.71    8.05
   3   3   8  186.63   23.35
   3   3   8  134.45   22.47
   3   3   9   -1.61    4.81
   3   3   9    0.91    3.66
   3   3  10   81.67   17.18
   3   3  10  122.58   19.65
   3   3  11   68.62   16.03
   3   3  12  357.23   38.34
   3   3  13   96.71   20.83
   3   3  14   91.35   20.56
   3   3  15  305.69   40.69
   3   4 -14   35.26   18.23
   3   4 -13  119.96   30.92
   3   4 -12  120.97   30.54
   3   4 -11  194.72   37.63
   3   4 -11  219.46   28.39
   3   4 -10  200.69   36.73
   3   4 -10  203.28   26.88
   3   4  -9  196.12   34.89
   3   4  -9  189.19   26.04
   3   4  -8    9.87    7.62
   3   4  -8   13.01    7.71
   3   4  -7  238.93   28.18
   3   4  -6  207.89   23.34
   3   4  -6  201.06   25.48
   3   4  -5   54.79   11.21
   3   4  -5   48.50   15.61
   3   4  -5   50.76   12.28
   3   4  -4   32.51    8.27
   3   4  -4   64.08   16.50
   3   4  -4   63.56   14.92
   3   4  -3  302.06   32.87
   3   4  -3  413.87   40.31
   3   4  -2  581.99   47.37
   3   4  -2  538.03   45.03
   3   4  -1 1088.14   70.32
   3   4  -1 1181.10   66.52
   3   4   0   12.15    5.65
   3   4   0   26.23   11.82
   3   4   1 2759.43  101.01
   3   4   2  390.37   27.26
   3   4   2  389.24   30.43
   3   4   3  446.36   32.10
   3   4   3  413.09   30.20
   3   4   3  366.24   37.31
   3   4   4  140.36   18.42
   3   4   4  147.08   16.80
   3   4   4  180.94   26.64
   3   4   5  461.79   35.23
   3   4   5  408.34   26.92
   3   4   6  119.58   19.12
   3   4   7   96.69   17.31
   3   4   8  363.06   35.24
   3   4   9   12.00    7.42
   3   4   9    5.21    2.88
   3   4  10  461.23   43.28
   3   4  10  280.19   36.21
   3   4  11   52.19   14.09
   3   4  12   79.13   18.35
   3   4  13  139.86   25.10
   3   4  14   23.63   11.63
   3   5 -12    7.82    2.80
   3   5 -11  112.45   23.21
   3   5 -11  113.54   30.35
   3   5 -10   97.08   20.70
   3   5  -9  393.61   41.47
   3   5  -8 1120.09   71.73
   3   5  -7   14.04    9.94
   3   5  -6  483.36   45.17
   3   5  -5  109.88   21.22
   3   5  -4   10.94    6.63
   3   5  -4   12.16    7.75
   3   5  -3   22.76    9.76
   3   5  -3   20.40   10.30
   3   5  -2    6.10    4.93
   3   5  -2   -0.02    3.29
   3   5  -1  338.38   41.77
   3   5  -1  399.39   39.52
   3   5  -1  442.56   19.27
   3   5   0   44.17   12.56
   3   5   0   48.01    8.57
   3   5   0   53.73   17.72
   3   5   1  526.81   42.00
   3   5   2   58.09   12.57
   3   5   3  348.26   32.29
   3   5   3  815.78   44.34
   3   5   4  291.90   29.96
   3   5   4  304.12   25.55
   3   5   5   25.66    9.40
   3   5   5   29.18    7.52
   3   5   6  771.08   52.12
   3   5   6  771.26   35.24
   3   5   7   81.13   16.79
   3   5   8   61.73   14.91
   3   5   9   -1.97    4.17
   3   5  10  143.70   25.12
   3   5  11   92.09   22.05
   3   5  12   -1.15    5.71
   3   5  13   92.88   21.77
   3   5  14   -0.72    4.11
   3   6 -11   53.46   18.34
   3   6 -10  200.33   33.07
   3   6  -9   14.62    9.19
   3   6  -8  133.94   25.90
   3   6  -7    8.95    8.67
   3   6  -6   24.75   10.71
   3   6  -5  185.62   29.95
   3   6  -4  208.18   33.62
   3   6  -3  197.15   32.08
   3   6  -2   62.53   16.84
   3   6  -2   51.84   17.76
   3   6  -1  479.34   53.41
   3   6  -1  486.61   46.48
   3   6  -1  503.96   24.68
   3   6   0   47.01   13.32
   3   6   0   65.81   10.61
   3   6   0   59.31   18.87
   3   6   1  466.17   42.12
   3   6   1  405.25   49.34
   3   6   1  464.71   33.15
   3   6   2  219.31   26.42
   3   6   3  221.15   26.55
   3   6   3  195.99   23.08
   3   6   4  240.05   29.97
   3   6   4  260.05   24.64
   3   6   5  183.75   26.50
   3   6   5  179.76   19.36
   3   6   6  197.32   28.55
   3   6   6  188.85   16.40
   3   6   7   93.64   20.00
   3   6   8  883.51   64.23
   3   6   9  236.27   32.74
   3   6  10   30.62   13.35
   3   6  11  272.96   39.22
   3   6  12   -6.43    8.41
   3   6  13   75.95   21.09
   3   7 -11   32.18   15.35
   3   7 -10  123.04   28.89
   3   7  -9   -3.83    5.65
   3   7  -8  187.32   34.19
   3   7  -7   38.10   14.47
   3   7  -6  154.73   31.21
   3   7  -5  118.34   26.36
   3   7  -4   -0.02    4.21
   3   7  -3  330.62   46.09
   3   7  -2  196.96   35.54
   3   7  -2  236.35   35.83
   3   7  -1  350.97   50.08
   3   7  -1  277.98   37.53
   3   7   0   74.88   19.87
   3   7   0   70.87   22.84
   3   7   1  436.17   43.47
   3   7   1  417.80   55.14
   3   7   2  382.32   38.23
   3   7   2  297.93   30.51
   3   7   3   80.53   17.61
   3   7   3   73.92   15.60
   3   7   3   96.33   18.45
   3   7   4  410.47   43.50
   3   7   4  426.54   33.81
   3   7   5   90.19   20.62
   3   7   5   92.88   14.62
   3   7   6  722.93   59.29
   3   7   7    8.70    7.83
   3   7   8   65.71   18.35
   3   7   9  111.95   25.82
   3   7  10   14.30    7.72
   3   7  11   56.65   17.77
   3   7  12   29.94   16.01
   3   8  -9    1.80    2.14
   3   8  -8   24.69   15.58
   3   8  -7   17.42   10.57
   3   8  -6  162.85   36.12
   3   8  -5   13.44   11.62
   3   8  -4  143.72   32.97
   3   8  -3   55.70   20.95
   3   8  -2  111.61   25.56
   3   8  -2   90.44   26.60
   3   8  -1  432.31   59.23
   3   8  -1  438.70   49.98
   3   8   0  338.94   42.16
   3   8   0  299.51   50.29
   3   8   1   76.06   19.38
   3   8   1   60.09   22.51
   3   8   2  614.20   52.14
   3   8   3  139.42   24.46
   3   8   3  131.06   22.04
   3   8   4  202.21   32.37
   3   8   5   19.83   11.03
   3   8   6  164.85   30.94
   3   8   7    5.71    4.94
   3   8   8  107.71   25.84
   3   8   9   11.13    8.63
   3   8  10    9.20    8.65
   3   9  -4   36.59   16.28
   3   9  -4   41.25   21.14
   3   9  -3   96.90   26.32
   3   9  -3   70.98   26.08
   3   9  -2    0.12    3.16
   3   9  -2   -3.90    6.32
   3   9  -1   14.06    9.55
   3   9  -1   15.78   11.47
   3   9   0  146.09   29.63
   3   9   0   88.18   32.28
   3   9   1    7.32    3.74
   3   9   1   21.97   16.05
   3   9   2  169.15   30.14
   3   9   3   11.20    8.06
   3   9   4   60.14   19.67
   3   9   5    2.79    5.40
   3   9   6   86.20   24.23
   3   9   7   30.59   15.23
   3   9   8    7.05    7.44
   3  10  -3   22.52   14.66
   3  10  -2    9.69    8.65
   3  10  -1   41.35   17.98
   3  10   2  106.40   24.93
   3  10   3   -7.36    7.36
   3  10   4  121.10   30.32
   4  -9  -4   34.82   13.76
   4  -9  -3    8.20    6.13
   4  -8  -6   51.48   17.87
   4  -8  -5   76.32   21.37
   4  -8  -4  104.37   22.98
   4  -8  -3  151.78   27.78
   4  -8  -2  126.86   23.78
   4  -8  -1   17.95    9.39
   4  -8   0  165.33   26.19
   4  -8   3  138.41   30.69
   4  -8   4   33.89   17.33
   4  -8   5  149.51   33.61
   4  -8   6    8.43    9.77
   4  -8   7   -0.85    7.80
   4  -8   8    8.92   11.98
   4  -7  -8    1.86    1.04
   4  -7  -7  140.18   29.15
   4  -7  -6   75.34   20.34
   4  -7  -5   86.31   21.37
   4  -7  -4  159.17   27.26
   4  -7  -3  100.35   21.32
   4  -7  -2  296.28   35.49
   4  -7  -1   34.92   12.09
   4  -7   0   99.15   19.18
   4  -7   1   31.89    9.65
   4  -7   1   19.70   12.32
   4  -7   2  176.29   20.32
   4  -7   2  126.46   20.37
   4  -7   2  158.27   30.15
   4  -7   3  228.30   38.32
   4  -7   4   20.74   12.13
   4  -7   5  183.16   34.65
   4  -7   6   28.68   16.45
   4  -7   7  246.08   41.72
   4  -7   8   59.84   21.08
   4  -7   9   13.33   13.19
   4  -7  10   66.63   23.24
   4  -6  -9   78.20   21.87
   4  -6  -8    9.69    7.11
   4  -6  -7   78.43   20.76
   4  -6  -6  115.81   24.43
   4  -6  -5   49.18   14.50
   4  -6  -4  273.92   34.91
   4  -6  -3  162.41   26.18
   4  -6  -2  290.17   32.97
   4  -6  -1   61.80   14.85
   4  -6  -1   54.27    6.65
   4  -6   0  442.99   25.00
   4  -6   0  458.90   39.67
   4  -6   0  469.86   28.25
   4  -6   0  531.10   52.62
   4  -6   1  826.75   41.30
   4  -6   1  990.78   52.19
   4  -6   1  983.30   74.49
   4  -6   1  863.41   46.26
   4  -6   2   10.00    4.81
   4  -6   2    2.31    8.64
   4  -6   3  211.14   23.34
   4  -6   3  283.09   40.27
   4  -6   4   80.83   23.26
   4  -6   5  237.85   38.32
   4  -6   6    5.12    5.72
   4  -6   7  188.94   35.26
   4  -6   8   57.49   18.96
   4  -6   9   45.48   17.54
   4  -6  10   34.40   14.45
   4  -6  11  -12.15   10.34
   4  -5 -10   11.19    8.85
   4  -5  -9  213.18   33.99
   4  -5  -8  101.50   23.07
   4  -5  -7  376.79   42.81
   4  -5  -6  479.20   47.00
   4  -5  -5  234.46   31.80
   4  -5  -5  249.12   23.08
   4  -5  -4  647.83   50.51
   4  -5  -4  534.11   35.72
   4  -5  -3   23.50    9.09
   4  -5  -3   14.15    9.53
   4  -5  -2  947.16   59.17
   4  -5  -2  935.51   52.53
   4  -5  -1  460.38   39.27
   4  -5  -1  536.94   51.63
   4  -5  -1  529.49   39.57
   4  -5   0   18.31    4.04
   4  -5   0    8.56    3.73
   4  -5   0   20.93    8.10
   4  -5   0   25.21   11.55
   4  -5   1  558.08   29.80
   4  -5   1  526.51   35.32
   4  -5   1  518.33   50.97
   4  -5   2    4.16    3.79
   4  -5   2    9.76    4.89
   4  -5   3 1202.22   82.35
   4  -5   4   21.59   12.39
   4  -5   4   20.80    7.76
   4  -5   5  548.07   41.56
   4  -5   5  601.71   58.63
   4  -5   6  277.47   41.16
   4  -5   7   95.72   23.09
   4  -5   8  162.40   30.53
   4  -5   9   14.35    9.52
   4  -5  10  200.51   37.13
   4  -5  11   15.59   13.01
   4  -5  12  166.15   34.80
   4  -4 -12   78.78   22.75
   4  -4 -11  269.79   40.50
   4  -4 -10  197.87   33.15
   4  -4  -9  206.61   33.17
   4  -4  -8  485.09   43.03
   4  -4  -8  359.67   42.97
   4  -4  -7  189.26   24.55
   4  -4  -7  151.60   26.97
   4  -4  -7  166.83   13.78
   4  -4  -6   42.73   14.11
   4  -4  -6   49.52    8.44
   4  -4  -5  229.96   30.17
   4  -4  -5  237.52   19.92
   4  -4  -4  920.90   60.59
   4  -4  -4  978.74   45.54
   4  -4  -3   33.55   10.15
   4  -4  -2  778.74   51.26
   4  -4  -1  754.89   46.41
   4  -4  -1  646.95   53.19
   4  -4   0  501.71   34.46
   4  -4   0  439.45   20.27
   4  -4   0  499.05   47.01
   4  -4   1  843.38   43.56
   4  -4   1  811.53   35.43
   4  -4   1  846.78   61.95
   4  -4   2    5.68    2.55
   4  -4   2    6.85    5.90
   4  -4   3   68.54   17.33
   4  -4   4  385.43   31.00
   4  -4   4  447.56   46.20
   4  -4   5   34.87    9.78
   4  -4   5   27.98   11.11
   4  -4   6    1.08    6.30
   4  -4   7   67.74   18.90
   4  -4   8  292.49   41.42
   4  -4   9    5.18    7.07
   4  -4  10  135.18   28.97
   4  -4  11   17.39   11.18
   4  -4  12  199.18   37.02
   4  -4  13   45.65   17.68
   4  -3 -12    8.17    8.96
   4  -3 -11   63.05   19.41
   4  -3 -11   79.57   16.26
   4  -3 -10   53.60   17.48
   4  -3 -10   57.96   14.71
   4  -3  -9   62.42   17.60
   4  -3  -9   57.58   15.05
   4  -3  -8  196.88   28.40
   4  -3  -8  293.42   36.29
   4  -3  -8  285.32   31.11
   4  -3  -7  101.18   22.70
   4  -3  -7   87.00   19.08
   4  -3  -6 1730.78   88.77
   4  -3  -6 1902.86   85.36
   4  -3  -5   25.52   11.71
   4  -3  -4  330.85   34.41
   4  -3  -3  356.13   33.10
   4  -3  -2  384.35   31.97
   4  -3  -2  419.74   38.80
   4  -3  -1  210.28   22.05
   4  -3  -1  177.34   25.81
   4  -3   0   77.19   13.77
   4  -3   0   57.56    6.71
   4  -3   0   85.75   18.66
   4  -3   1 1594.49   53.12
   4  -3   1 1460.06   80.62
   4  -3   2  138.19   14.98
   4  -3   2  118.08   22.09
   4  -3   3 1161.21   52.64
   4  -3   3 1251.11   73.32
   4  -3   4   72.32   18.68
   4  -3   5  576.03   40.18
   4  -3   5  599.11   50.73
   4  -3   6  494.02   39.08
   4  -3   6  414.83   45.16
   4  -3   7   28.36   14.04
   4  -3   8  131.47   25.69
   4  -3   9  149.58   29.13
   4  -3  10   58.82   18.43
   4  -3  11    7.77    7.94
   4  -3  12  118.04   27.09
   4  -3  13  102.61   26.75
   4  -3  14  100.46   25.51
   4  -2 -13  154.98   29.67
   4  -2 -12   16.19   10.54
   4  -2 -12   20.21   10.44
   4  -2 -11   80.13   19.73
   4  -2 -11   62.67   16.11
   4  -2 -10  282.15   37.00
   4  -2 -10  254.71   31.47
   4  -2  -9  161.74   26.84
   4  -2  -9  128.68   21.73
   4  -2  -8  164.61   25.55
   4  -2  -8  145.07   22.33
   4  -2  -7   -0.87    1.55
   4  -2  -7   -2.27    4.53
   4  -2  -6   12.00    7.02
   4  -2  -6   10.85    4.93
   4  -2  -5   30.65    9.34
   4  -2  -5   40.34   11.20
   4  -2  -4  282.51   28.55
   4  -2  -4  296.27   30.68
   4  -2  -3  723.68   45.01
   4  -2  -3  724.40   48.79
   4  -2  -2  249.82   24.37
   4  -2  -2  283.61   29.30
   4  -2  -2  251.48   28.00
   4  -2  -1 3529.00  126.80
   4  -2   0   16.56    3.75
   4  -2   0   19.42    7.60
   4  -2   1 1147.07   44.72
   4  -2   1 1185.05   66.11
   4  -2   2   14.74    5.07
   4  -2   2   -0.32    4.46
   4  -2   3 1926.87   72.88
   4  -2   3 2200.89   93.04
   4  -2   4  328.16   34.02
   4  -2   5   49.45   11.73
   4  -2   5   60.73   14.98
   4  -2   6  820.04   51.23
   4  -2   6  767.12   56.55
   4  -2   7   42.97   13.93
   4  -2   8  155.07   26.44
   4  -2   9  227.50   33.57
   4  -2  10  193.58   33.24
   4  -2  11  110.68   25.73
   4  -2  12   49.74   16.96
   4  -2  13    7.29   10.60
   4  -2  14   41.13   20.48
   4  -1 -14   94.89   22.78
   4  -1 -13   55.27   16.83
   4  -1 -13   36.06   13.53
   4  -1 -12   56.43   16.90
   4  -1 -12   40.18   13.67
   4  -1 -11  244.65   32.74
   4  -1 -11  177.47   27.95
   4  -1 -10   30.22   10.94
   4  -1 -10   22.59   10.97
   4  -1  -9   70.76   16.97
   4  -1  -9   71.16   16.51
   4  -1  -8  316.96   34.93
   4  -1  -8  362.62   37.97
   4  -1  -7  119.58   21.33
   4  -1  -7  118.42   19.82
   4  -1  -7  119.57   21.03
   4  -1  -6 1074.35   62.39
   4  -1  -6 1081.81   66.76
   4  -1  -5  379.50   33.49
   4  -1  -5  345.17   34.16
   4  -1  -4 1016.61   54.94
   4  -1  -4 1028.28   59.93
   4  -1  -3 1721.49   78.84
   4  -1  -2   18.49    8.10
   4  -1  -2   33.54    8.55
   4  -1  -1 1680.35   76.25
   4  -1  -1 1527.91   70.96
   4  -1  -1 1543.35   51.11
   4  -1   0  256.60   27.50
   4  -1   0  261.18   18.91
   4  -1   0  245.07   26.31
   4  -1   1 2595.68   79.94
   4  -1   1 2355.01   94.54
   4  -1   2   33.03    7.42
   4  -1   2   28.35    8.34
   4  -1   3 1139.69   53.27
   4  -1   3 1098.64   60.74
   4  -1   4 1446.50   72.08
   4  -1   5  331.03   30.45
   4  -1   5  410.14   36.91
   4  -1   6  598.05   43.70
   4  -1   6  479.43   43.15
   4  -1   7    1.80    2.07
   4  -1   8  636.75   53.10
   4  -1   9    2.14    5.08
   4  -1  10    5.37    6.10
   4  -1  11   42.81   16.25
   4  -1  12   52.98   16.45
   4  -1  13  172.84   33.08
   4  -1  14   39.61   16.28
   4   0 -14   11.04    5.36
   4   0 -13   62.37   17.64
   4   0 -12  141.09   26.36
   4   0 -11   26.88   11.74
   4   0 -10   47.58   14.55
   4   0  -9  125.25   22.83
   4   0  -8  145.20   23.66
   4   0  -7   34.49   10.56
   4   0  -7   26.19    9.44
   4   0  -6 1236.96   62.83
   4   0  -6 1124.22   67.60
   4   0  -5  198.82   26.27
   4   0  -4  252.11   23.74
   4   0  -4  252.58   29.31
   4   0  -3 1788.58   62.30
   4   0  -3 1782.06   82.43
   4   0  -2  206.24   24.91
   4   0  -2  206.49   20.62
   4   0  -1 1033.63   51.39
   4   0  -1 1003.74   56.21
   4   0  -1  961.70   43.51
   4   0   0 1346.55   66.22
   4   0   0 1420.05   56.04
   4   0   0 1199.22   58.17
   4   0   1 1702.31   76.13
   4   0   1 1700.87   65.39
   4   0   2  373.88   32.61
   4   0   2  440.63   30.73
   4   0   2  335.01   29.45
   4   0   3  612.22   40.06
   4   0   4  300.08   29.63
   4   0   5  107.02   18.15
   4   0   5  128.59   20.03
   4   0   6 1161.09   64.72
   4   0   6 1025.87   62.27
   4   0   7   14.25    8.68
   4   0   8   66.06   15.59
   4   0   9  219.46   30.67
   4   0  10  618.75   53.97
   4   0  11  124.78   25.39
   4   0  12   43.05   16.12
   4   0  13  413.41   49.75
   4   0  14   20.79   12.40
   4   1 -15  110.94   27.80
   4   1 -14  146.33   30.69
   4   1 -13   70.49   21.32
   4   1 -12   22.70   11.32
   4   1 -11   10.20    6.79
   4   1 -10  246.60   35.01
   4   1  -9  132.63   24.28
   4   1  -8  308.81   36.79
   4   1  -7   71.17   14.63
   4   1  -7   86.09   18.84
   4   1  -6  159.33   24.52
   4   1  -5  296.47   25.50
   4   1  -5  293.93   32.50
   4   1  -4  590.67   34.32
   4   1  -4  584.52   44.72
   4   1  -3  794.84   37.48
   4   1  -3  698.28   49.41
   4   1  -3  823.93   56.53
   4   1  -2   13.57    3.88
   4   1  -2   17.06    7.27
   4   1  -2   18.34    5.10
   4   1  -2   12.24    5.22
   4   1  -1 2275.89   95.45
   4   1  -1 2559.60  107.81
   4   1  -1 2364.78   79.51
   4   1  -1 2429.23   86.53
   4   1   0   49.58    9.87
   4   1   0   58.48   12.97
   4   1   0   63.66   10.48
   4   1   0   54.79   14.47
   4   1   1  121.49   17.99
   4   1   1  125.34   17.03
   4   1   1  125.80   15.69
   4   1   1   93.63   18.78
   4   1   2  959.10   53.68
   4   1   2  887.93   59.72
   4   1   2  941.09   47.12
   4   1   3  427.08   34.06
   4   1   3  359.82   37.00
   4   1   3  392.44   31.22
   4   1   4  831.24   50.84
   4   1   4  773.56   47.44
   4   1   5   -2.14    2.82
   4   1   5   -3.28    1.23
   4   1   5    1.09    2.81
   4   1   6   36.96   10.50
   4   1   6   36.88   11.64
   4   1   6   22.50    6.44
   4   1   7   28.26   10.03
   4   1   7   17.42    5.33
   4   1   8  210.54   22.54
   4   1   8  240.14   29.22
   4   1   9   46.93   14.14
   4   1   9   54.07   12.22
   4   1  10   16.18    9.85
   4   1  10    2.87    3.33
   4   1  11  847.46   56.63
   4   1  11  810.04   64.18
   4   1  12   81.15   21.31
   4   1  12  100.65   19.81
   4   1  13  211.35   30.54
   4   1  13  192.07   33.17
   4   1  14   48.07   17.15
   4   1  14   71.30   19.21
   4   1  15   36.16   14.45
   4   2 -15   65.93   23.71
   4   2 -14   51.68   18.90
   4   2 -13    8.81    6.65
   4   2 -12  119.51   27.71
   4   2 -11   22.49   11.66
   4   2 -10    7.92    9.12
   4   2  -9  264.15   23.16
   4   2  -9  305.81   41.17
   4   2  -8  201.60   20.30
   4   2  -8  235.20   34.33
   4   2  -7   44.95   11.59
   4   2  -7   38.88   13.49
   4   2  -7   29.19    8.14
   4   2  -7   34.59   12.22
   4   2  -6  170.35   21.32
   4   2  -6  154.66   25.48
   4   2  -5  483.93   44.77
   4   2  -5  478.38   45.23
   4   2  -4   24.49   11.34
   4   2  -4   19.40    6.08
   4   2  -4   24.87    9.77
   4   2  -3  395.06   24.61
   4   2  -3  487.23   41.20
   4   2  -3  468.76   43.32
   4   2  -2  148.84   12.38
   4   2  -2  127.88   20.21
   4   2  -2  158.13   25.20
   4   2  -1  247.38   12.99
   4   2  -1  342.06   31.98
   4   2  -1  326.31   35.99
   4   2  -1  344.60   21.13
   4   2   0 1387.66   69.45
   4   2   0 1328.08   76.95
   4   2   0 1377.63   51.05
   4   2   1 3853.49  128.73
   4   2   1 3881.42  107.99
   4   2   2 2728.31   98.68
   4   2   2 2631.15  102.21
   4   2   2 2410.35  109.52
   4   2   2 2501.09   85.46
   4   2   3  235.87   12.84
   4   2   3  279.51   27.04
   4   2   3  259.78   28.91
   4   2   3  271.50   33.11
   4   2   3  293.04   24.87
   4   2   4 1964.15   58.74
   4   2   4 2123.52   82.41
   4   2   4 2101.35   91.93
   4   2   4 2102.19   79.01
   4   2   5    8.48    7.71
   4   2   5    0.40    2.04
   4   2   5    0.75    3.23
   4   2   6  496.93   29.68
   4   2   6  419.06   41.90
   4   2   7  179.84   18.73
   4   2   7  139.33   23.54
   4   2   8   12.71    5.45
   4   2   9  311.08   29.16
   4   2  10   41.65   11.49
   4   2  11  250.92   29.50
   4   2  12    4.72    2.61
   4   2  13  394.41   42.24
   4   2  14   42.82   14.66
   4   2  15  195.80   31.71
   4   3 -14   86.25   25.98
   4   3 -13   18.06   11.90
   4   3 -12  258.97   43.68
   4   3 -11   25.05   12.29
   4   3 -10  528.32   38.76
   4   3 -10  519.61   58.50
   4   3  -9   86.40   22.74
   4   3  -9   44.66   11.49
   4   3  -9   48.11   14.46
   4   3  -8   69.84   18.03
   4   3  -8   70.85   14.58
   4   3  -7   86.67   19.43
   4   3  -7   80.09   15.83
   4   3  -7   91.53   17.18
   4   3  -7   77.56   20.19
   4   3  -6   69.76   18.04
   4   3  -6   62.53   12.20
   4   3  -6   75.13   19.33
   4   3  -6   58.74   14.36
   4   3  -5    4.88    6.67
   4   3  -5    8.75    7.82
   4   3  -5    3.11    5.00
   4   3  -4   27.44   13.52
   4   3  -4   29.59    7.23
   4   3  -4   30.67   11.38
   4   3  -4   29.66   10.72
   4   3  -3  293.01   20.30
   4   3  -3  317.52   35.24
   4   3  -3  214.60   32.54
   4   3  -2    3.69    2.30
   4   3  -2    7.00    4.26
   4   3  -2    5.75    5.60
   4   3  -1 2154.10   59.83
   4   3  -1 2192.33   93.14
   4   3  -1 2027.85   56.21
   4   3  -1 2023.94  106.85
   4   3   0 2012.12   88.19
   4   3   0 2311.45   97.16
   4   3   0 2139.59   64.10
   4   3   0 2130.25  109.32
   4   3   1  413.25   21.21
   4   3   1  510.45   39.69
   4   3   1  405.15   37.02
   4   3   1  564.99   29.43
   4   3   1  500.34   49.86
   4   3   2 3246.37   89.17
   4   3   2 3402.85  119.90
   4   3   2 3682.22  132.82
   4   3   2 3750.83  103.11
   4   3   2 3281.36  142.75
   4   3   3    9.50    8.63
   4   3   3    7.04    2.82
   4   3   3   11.51    6.74
   4   3   3   15.30    6.74
   4   3   4  847.93   37.53
   4   3   4  733.38   45.11
   4   3   4  806.51   57.67
   4   3   5   31.55   11.39
   4   3   5   26.21    6.96
   4   3   5   24.83    7.52
   4   3   6  149.21   16.91
   4   3   6  118.75   23.82
   4   3   7  224.19   21.87
   4   3   7  160.40   27.10
   4   3   8   96.30   21.46
   4   3   8  108.05   15.87
   4   3   9  344.35   31.39
   4   3   9  250.03   33.81
   4   3  10   94.19   17.13
   4   3  10   58.97   14.42
   4   3  11  306.33   33.12
   4   3  12   36.90   11.74
   4   3  13   39.69   12.90
   4   3  14    8.29    5.22
   4   3  15    4.49    3.43
   4   4 -13   42.65   19.16
   4   4 -12   20.33   12.86
   4   4 -11   21.92   13.58
   4   4 -10  362.85   36.91
   4   4 -10  244.13   42.11
   4   4  -9   70.67   22.22
   4   4  -9   73.10   17.40
   4   4  -8  729.35   53.21
   4   4  -8  830.78   73.66
   4   4  -7  111.46   20.94
   4   4  -7  216.71   35.85
   4   4  -6  101.30   15.81
   4   4  -6  101.36   20.40
   4   4  -6  106.93   23.90
   4   4  -5  279.66   25.48
   4   4  -5  245.71   31.96
   4   4  -5  326.39   40.99
   4   4  -4   11.98    9.17
   4   4  -4    5.75    5.20
   4   4  -3  260.72   34.78
   4   4  -3  340.64   38.79
   4   4  -2  263.42   20.29
   4   4  -2  269.72   33.55
   4   4  -1  214.83   28.30
   4   4   0  317.80   32.83
   4   4   0  274.66   16.41
   4   4   1  188.20   24.08
   4   4   1  238.34   17.64
   4   4   2 1368.03   55.47
   4   4   2 1407.79   70.21
   4   4   3   31.38    7.71
   4   4   3   29.87    8.70
   4   4   4 1189.33   54.03
   4   4   4 1268.78   61.62
   4   4   5  197.82   20.88
   4   4   5  340.81   28.96
   4   4   6  422.11   34.20
   4   4   7  120.82   18.53
   4   4   8   69.50   14.79
   4   4   9  259.61   28.61
   4   4  10    3.47    3.74
   4   4  11  186.07   26.10
   4   4  12   20.20    9.56
   4   4  13  155.34   26.91
   4   4  14    7.90    6.89
   4   4  15  116.25   25.28
   4   5 -11   28.39   15.55
   4   5 -10  179.98   29.39
   4   5 -10  191.96   39.09
   4   5  -9  111.88   29.74
   4   5  -9  124.07   24.04
   4   5  -8   77.59   23.22
   4   5  -8   69.81   17.70
   4   5  -7   19.20   10.11
   4   5  -7   23.61    9.96
   4   5  -6   67.14   20.90
   4   5  -6   36.85   13.65
   4   5  -5  163.00   20.42
   4   5  -5  149.78   29.53
   4   5  -5  111.29   23.59
   4   5  -4    2.82    4.93
   4   5  -4    2.18    4.48
   4   5  -4    0.09    4.19
   4   5  -3  103.58   14.69
   4   5  -3  108.72   23.40
   4   5  -3   74.70   20.02
   4   5  -2  310.32   40.38
   4   5  -2  317.95   38.75
   4   5  -1  193.79   29.02
   4   5   0  877.06   60.25
   4   5   0  834.15   30.71
   4   5   1   16.64    7.49
   4   5   2   85.36   13.06
   4   5   2   94.24   17.39
   4   5   3   50.44   11.15
   4   5   3   54.90   13.07
   4   5   4   18.13    7.35
   4   5   4    3.55    4.17
   4   5   5   30.22    9.22
   4   5   5   29.72    8.48
   4   5   6   97.48   17.94
   4   5   6  108.87   15.38
   4   5   7  727.71   49.38
   4   5   8   42.04   12.68
   4   5   9  744.42   55.58
   4   5  10   71.22   16.88
   4   5  11  148.05   24.93
   4   5  12  114.71   22.43
   4   5  13   27.02   14.62
   4   5  14   79.67   20.47
   4   6 -10   53.11   20.43
   4   6  -9   16.40    7.95
   4   6  -9   35.84   13.91
   4   6  -8   12.69   10.22
   4   6  -8    7.42    7.66
   4   6  -7  187.82   32.64
   4   6  -7  345.76   50.26
   4   6  -6   69.77   22.15
   4   6  -6   40.74   16.52
   4   6  -5  182.29   33.73
   4   6  -5  215.58   37.31
   4   6  -4  223.03   36.76
   4   6  -4  329.80   45.17
   4   6  -3  407.98   50.45
   4   6  -3  473.48   52.19
   4   6  -2  118.52   25.01
   4   6  -2   67.09   19.84
   4   6  -1  133.98   30.49
   4   6  -1  137.37   26.20
   4   6   0  247.67   33.25
   4   6   0  220.81   16.13
   4   6   1    5.26    5.28
   4   6   1    9.80    4.80
   4   6   2  386.86   33.47
   4   6   2  348.27   35.24
   4   6   3   12.04    6.75
   4   6   3   18.30    7.85
   4   6   4  477.26   41.55
   4   6   4  652.57   45.52
   4   6   5  298.17   32.27
   4   6   5  348.90   30.51
   4   6   6   93.80   18.71
   4   6   6  129.68   17.13
   4   6   7  488.22   43.72
   4   6   8   15.28    8.76
   4   6   9  138.19   25.06
   4   6  10   98.52   23.99
   4   6  11   58.51   18.63
   4   6  12   52.52   16.38
   4   6  13   22.50   12.12
   4   7  -9   70.26   23.77
   4   7  -8   11.23   11.89
   4   7  -8   -3.44    3.36
   4   7  -7    3.45    1.03
   4   7  -7   -1.91    3.12
   4   7  -6   10.87    9.66
   4   7  -6   19.86   13.90
   4   7  -5  122.87   29.81
   4   7  -5   94.97   26.51
   4   7  -4    8.97    6.46
   4   7  -4   -6.65    7.71
   4   7  -3  232.90   41.39
   4   7  -3  263.40   41.11
   4   7  -2  571.88   64.73
   4   7  -2  724.51   65.97
   4   7  -1    2.48    5.91
   4   7  -1    4.88    6.64
   4   7   0  826.36   65.74
   4   7   1   63.72   16.79
   4   7   2  270.12   30.92
   4   7   2  274.86   33.14
   4   7   3  171.76   26.55
   4   7   3  233.98   28.60
   4   7   4  135.02   23.64
   4   7   4  182.82   24.48
   4   7   5  233.89   31.87
   4   7   5  230.01   26.00
   4   7   6   70.37   17.28
   4   7   7  107.64   22.36
   4   7   8   26.81   13.37
   4   7   9  174.96   30.58
   4   7  10   27.40   12.62
   4   7  11   41.60   15.51
   4   7  12  172.40   33.56
   4   8  -8   -5.92    5.13
   4   8  -7   59.69   22.59
   4   8  -6   14.93   12.14
   4   8  -6    4.11    7.12
   4   8  -5  141.85   33.73
   4   8  -5  172.01   38.81
   4   8  -4   55.25   20.36
   4   8  -4   38.83   21.88
   4   8  -3   75.13   22.65
   4   8  -3   56.95   22.49
   4   8  -2  155.17   32.11
   4   8  -2  135.87   34.40
   4   8  -1   32.62   14.20
   4   8  -1   27.26   17.19
   4   8   0  150.09   28.69
   4   8   1   97.15   22.59
   4   8   2  292.90   35.68
   4   8   2  276.37   35.26
   4   8   3   19.52   10.36
   4   8   3   41.21   13.11
   4   8   4   11.22    8.19
   4   8   5  128.72   25.13
   4   8   6   -2.20    6.58
   4   8   7  126.35   26.59
   4   8   8    1.57    5.05
   4   8   9    3.19    7.22
   4   8  10    3.09    4.27
   4   9  -4   38.99   17.65
   4   9  -3   19.15   11.59
   4   9  -2   49.26   18.24
   4   9  -2   55.87   25.33
   4   9  -1   16.00   12.63
   4   9   0  134.36   29.56
   4   9   1   21.10   10.82
   4   9   2   56.11   18.11
   4   9   3   60.86   20.28
   4   9   4   45.84   16.14
   4   9   5   28.67   11.97
   4   9   6    3.20    0.80
   4  10  -2  102.03   28.86
   4  10  -1   15.56   10.08
   5  -8  -5   54.53   19.82
   5  -8  -4   27.86   12.20
   5  -8  -3  137.45   27.43
   5  -8  -2   70.78   18.27
   5  -8   2    3.31    3.09
   5  -8   3   24.01   12.23
   5  -8   4    1.42    2.55
   5  -7  -7   21.27   11.65
   5  -7  -6   60.84   19.31
   5  -7  -5   68.42   19.62
   5  -7  -4   15.66    9.31
   5  -7  -3  105.53   22.61
   5  -7  -2  173.39   27.05
   5  -7  -1  262.28   31.76
   5  -7   0    1.60    4.50
   5  -7   1  210.60   25.18
   5  -7   1  202.80   36.77
   5  -7   2   -6.59    4.03
   5  -7   3   50.93   18.84
   5  -7   4   19.72   12.36
   5  -7   5   30.75   16.60
   5  -7   6  191.61   39.00
   5  -7   7   13.00    9.61
   5  -6  -8   15.94   10.37
   5  -6  -7   60.45   18.70
   5  -6  -6   35.67   14.47
   5  -6  -5   75.71   20.44
   5  -6  -4  217.03   32.50
   5  -6  -3  270.79   34.31
   5  -6  -2   91.82   19.07
   5  -6  -1  584.84   45.99
   5  -6   0  137.22   20.46
   5  -6   0  111.59   26.99
   5  -6   1   52.50   17.55
   5  -6   2  275.88   42.10
   5  -6   3  356.63   49.24
   5  -6   4  150.85   33.03
   5  -6   5   34.52   15.73
   5  -6   6  161.69   35.17
   5  -6   7   52.14   19.27
   5  -6   8  281.26   46.90
   5  -6   9  109.49   30.41
   5  -5  -9   45.84   17.57
   5  -5  -8  190.20   34.44
   5  -5  -7   12.83    9.21
   5  -5  -6   47.34   15.83
   5  -5  -5  174.01   29.56
   5  -5  -4   79.39   18.12
   5  -5  -3  551.38   46.90
   5  -5  -2  204.41   26.65
   5  -5  -1  415.22   36.46
   5  -5  -1  498.60   51.45
   5  -5   0   89.89   16.10
   5  -5   0   93.06   22.41
   5  -5   1  716.39   32.45
   5  -5   1  697.41   64.57
   5  -5   2  165.86   16.95
   5  -5   2  157.36   29.49
   5  -5   3   17.79   10.30
   5  -5   4  209.97   23.58
   5  -5   4  244.77   38.70
   5  -5   5   17.22   11.57
   5  -5   6   39.63   16.22
   5  -5   7    3.88    8.12
   5  -5   8   57.29   20.94
   5  -5   9   92.85   25.46
   5  -5  10  167.95   33.89
   5  -5  11  186.41   38.21
   5  -4 -10   90.45   23.85
   5  -4  -9    5.16    7.69
   5  -4  -8   99.36   23.34
   5  -4  -7  488.68   49.16
   5  -4  -6  423.64   44.53
   5  -4  -5  226.78   31.47
   5  -4  -4   19.10    8.70
   5  -4  -3  444.51   39.97
   5  -4  -2  247.91   28.57
   5  -4  -1  447.07   36.90
   5  -4  -1  432.90   46.94
   5  -4   0  204.59   31.59
   5  -4   1  102.24   11.36
   5  -4   1  116.51   25.13
   5  -4   2   44.81    8.46
   5  -4   2   43.71   14.33
   5  -4   3  877.10   70.24
   5  -4   4  196.79   22.48
   5  -4   4  196.34   33.41
   5  -4   5   95.26   17.04
   5  -4   5   67.27   21.60
   5  -4   6  458.94   52.00
   5  -4   7  112.64   25.98
   5  -4   8   22.38   12.83
   5  -4   9   65.48   21.20
   5  -4  10   42.50   18.06
   5  -4  11  217.82   39.91
   5  -4  12   16.32   13.20
   5  -3 -11   50.19   17.80
   5  -3 -11   45.13   13.53
   5  -3 -10  369.56   45.49
   5  -3 -10  334.91   38.38
   5  -3  -9  111.05   23.89
   5  -3  -9  103.45   21.00
   5  -3  -8   63.02   17.09
   5  -3  -8   76.55   18.11
   5  -3  -7   13.03    6.46
   5  -3  -7    9.01    6.96
   5  -3  -6  209.56   29.42
   5  -3  -6  228.27   30.61
   5  -3  -5   84.47   17.68
   5  -3  -4   27.75    9.20
   5  -3  -3  152.06   22.07
   5  -3  -2  272.64   28.64
   5  -3  -2  280.79   33.93
   5  -3  -1  239.78   31.66
   5  -3   0  207.15   13.59
   5  -3   0  300.32   39.81
   5  -3   1  650.15   32.20
   5  -3   1  621.03   54.16
   5  -3   2  605.45   34.84
   5  -3   2  574.08   52.57
   5  -3   3  189.91   30.51
   5  -3   4  191.78   22.39
   5  -3   4  166.56   27.65
   5  -3   5   35.14   10.15
   5  -3   5   51.87   15.95
   5  -3   6   12.15   10.13
   5  -3   7   31.33   15.29
   5  -3   8   17.87   11.03
   5  -3   9  272.22   41.06
   5  -3  10    4.71    2.24
   5  -3  11  196.86   36.43
   5  -3  12   12.74    9.78
   5  -2 -12  229.92   35.93
   5  -2 -12  188.24   30.64
   5  -2 -11   77.98   21.69
   5  -2 -11   61.29   17.34
   5  -2 -10   42.29   15.23
   5  -2 -10   40.57   13.63
   5  -2  -9    8.88    7.63
   5  -2  -9    6.50    5.94
   5  -2  -8   96.45   20.71
   5  -2  -8   99.79   20.48
   5  -2  -7   67.48   17.23
   5  -2  -7   57.86   15.30
   5  -2  -6   40.87   13.05
   5  -2  -6   54.35   15.45
   5  -2  -5  884.62   58.76
   5  -2  -5  846.38   61.05
   5  -2  -4  880.40   55.81
   5  -2  -4  818.49   59.32
   5  -2  -3  299.05   34.58
   5  -2  -2  904.59   59.76
   5  -2  -1  172.16   25.42
   5  -2   0  294.09   20.08
   5  -2   0  315.31   35.18
   5  -2   1  268.68   21.34
   5  -2   1  275.20   33.18
   5  -2   2  594.93   36.06
   5  -2   2  596.47   50.13
   5  -2   3    4.24    4.29
   5  -2   4 1354.58   64.86
   5  -2   4 1150.97   73.46
   5  -2   5   22.77    8.12
   5  -2   5   21.00   10.98
   5  -2   6  723.36   59.23
   5  -2   7  391.82   44.88
   5  -2   8   41.02   14.78
   5  -2   9   87.22   22.27
   5  -2  10    2.47    3.69
   5  -2  11  145.22   30.63
   5  -2  12    3.18    6.63
   5  -2  13  130.57   29.81
   5  -1 -13    0.97    4.74
   5  -1 -12  190.94   32.38
   5  -1 -11   40.76   14.31
   5  -1 -10  154.77   28.26
   5  -1  -9   45.87   20.30
   5  -1  -8  112.31   22.70
   5  -1  -7  274.92   35.07
   5  -1  -6    5.08    5.33
   5  -1  -5   35.65   11.48
   5  -1  -4   51.52   13.84
   5  -1  -3  334.54   35.85
   5  -1  -2  596.27   48.95
   5  -1  -2  579.55   43.99
   5  -1  -1   79.88   16.61
   5  -1  -1   76.89   10.53
   5  -1  -1   80.98   16.15
   5  -1   0 1691.03   84.77
   5  -1   0 1600.49   61.59
   5  -1   0 1572.42   79.93
   5  -1   1   29.98    7.67
   5  -1   1    6.76    5.91
   5  -1   2  605.44   38.38
   5  -1   2  607.07   46.37
   5  -1   3   12.48    6.32
   5  -1   4  199.92   23.96
   5  -1   4  208.03   28.44
   5  -1   5  512.92   40.83
   5  -1   5  401.05   40.61
   5  -1   6   99.56   20.58
   5  -1   7  256.29   33.59
   5  -1   8  183.73   29.53
   5  -1   9  361.31   44.23
   5  -1  10   39.53   16.39
   5  -1  11  524.34   57.75
   5  -1  12   73.98   21.17
   5  -1  13   68.14   22.94
   5   0 -14  189.09   35.52
   5   0 -13   94.88   24.66
   5   0 -12   79.81   21.90
   5   0 -11   42.34   16.68
   5   0 -10  206.10   33.71
   5   0  -9   67.12   18.79
   5   0  -8   82.77   20.05
   5   0  -7  255.98   30.88
   5   0  -7  242.34   33.69
   5   0  -6   36.66   10.61
   5   0  -6   49.60   15.49
   5   0  -5 1319.31   79.54
   5   0  -4  382.91   40.24
   5   0  -3  475.75   43.79
   5   0  -2  506.31   43.99
   5   0  -2  503.90   37.40
   5   0  -1   90.00   17.85
   5   0  -1   78.07   12.53
   5   0  -1   78.71   15.00
   5   0   0   25.49    7.60
   5   0   0   14.77    8.09
   5   0   0   20.23    8.50
   5   0   1   67.56   15.37
   5   0   1   83.21   14.03
   5   0   1   67.99   13.72
   5   0   2  208.50   25.22
   5   0   3  176.19   21.93
   5   0   3  177.31   24.15
   5   0   4  265.22   28.90
   5   0   4  227.30   28.26
   5   0   5   31.76   10.18
   5   0   5   18.45    8.38
   5   0   6  164.58   25.63
   5   0   7   74.94   18.00
   5   0   8  179.91   28.72
   5   0   9  528.66   51.93
   5   0  10    2.62    1.72
   5   0  11  157.62   30.82
   5   0  12  130.72   28.50
   5   0  13   74.21   24.12
   5   1 -14   17.36   13.10
   5   1 -13    3.97    8.36
   5   1 -12   77.68   21.57
   5   1 -11  103.01   24.06
   5   1 -10   10.84    7.09
   5   1  -9  246.18   35.74
   5   1  -8   41.59   14.97
   5   1  -7  251.13   28.33
   5   1  -7  268.37   35.56
   5   1  -6   86.30   15.19
   5   1  -6   74.63   17.76
   5   1  -5   12.22    5.60
   5   1  -4  377.63   27.62
   5   1  -4  342.23   38.65
   5   1  -3    1.10    2.11
   5   1  -3    3.96    7.09
   5   1  -2  194.42   27.35
   5   1  -2  192.99   20.36
   5   1  -1   61.26   15.57
   5   1  -1   58.32   11.15
   5   1   0  700.73   51.17
   5   1   0  687.70   43.21
   5   1   1  391.02   37.23
   5   1   1  316.39   28.32
   5   1   2  577.92   45.58
   5   1   2  575.67   43.31
   5   1   2  504.95   38.08
   5   1   3  166.63   23.73
   5   1   3  175.66   24.09
   5   1   3  150.70   21.00
   5   1   4   53.62   14.05
   5   1   4   50.53   13.09
   5   1   5  140.08   22.56
   5   1   6  251.58   31.33
   5   1   7  237.48   31.21
   5   1   8    6.56    5.92
   5   1   9  141.92   25.63
   5   1  10  341.48   33.30
   5   1  10  428.14   46.11
   5   1  11  380.12   37.20
   5   1  11  353.19   44.25
   5   1  12  234.53   31.16
   5   1  12  220.47   36.33
   5   1  13   20.91   11.87
   5   2 -14  202.90   39.13
   5   2 -13   96.84   26.41
   5   2 -12   55.33   19.51
   5   2 -11  174.59   33.01
   5   2 -10   42.79   16.11
   5   2  -9  343.54   44.54
   5   2  -8   44.81   15.66
   5   2  -7  152.25   21.75
   5   2  -7  168.88   29.50
   5   2  -6  308.05   28.81
   5   2  -6  433.63   45.52
   5   2  -5    0.34    4.22
   5   2  -4   19.73    6.14
   5   2  -4   32.25   11.74
   5   2  -3    1.55    0.78
   5   2  -3    1.76    3.38
   5   2  -2  294.34   16.32
   5   2  -2  345.89   37.74
   5   2  -2  340.61   40.94
   5   2  -2  354.16   24.00
   5   2  -1   13.91    8.42
   5   2  -1    6.80    5.31
   5   2  -1   15.07    6.48
   5   2   0 1278.45   73.91
   5   2   0 1182.80   79.76
   5   2   0 1301.75   56.36
   5   2   0 1277.43   68.47
   5   2   1   31.53   12.12
   5   2   1   40.81   11.60
   5   2   1   35.66   11.83
   5   2   1   41.88    9.82
   5   2   2  297.39   31.93
   5   2   2  272.35   37.27
   5   2   2  287.52   32.26
   5   2   2  272.16   25.31
   5   2   3  660.30   48.92
   5   2   3  753.70   54.95
   5   2   4  189.46   25.00
   5   2   4  161.57   22.16
   5   2   5  255.42   17.46
   5   2   5  320.99   32.23
   5   2   6   95.89   17.99
   5   2   6   84.89   11.29
   5   2   7  323.87   24.96
   5   2   7  324.80   35.10
   5   2   8   17.43    9.26
   5   2   8    2.74    2.86
   5   2   9  469.30   35.50
   5   2   9  523.56   48.68
   5   2  10   45.84   15.10
   5   2  10   62.39   13.24
   5   2  11   47.60   15.52
   5   2  11   50.83   12.66
   5   2  12  171.73   31.22
   5   2  12  201.39   27.97
   5   2  13   15.63   11.32
   5   2  13    8.04    5.39
   5   2  14   45.86   14.77
   5   2  15   23.70   12.58
   5   3 -13   59.68   21.45
   5   3 -12    9.09    7.74
   5   3 -11  224.58   40.60
   5   3 -10   11.18    9.44
   5   3  -9  350.86   48.28
   5   3  -8  143.29   30.33
   5   3  -7  214.26   25.36
   5   3  -7  206.94   34.31
   5   3  -6   71.54   14.04
   5   3  -6   96.66   22.61
   5   3  -5   74.41   18.68
   5   3  -4  526.78   32.97
   5   3  -4  721.48   58.10
   5   3  -3    5.10    3.88
   5   3  -3    5.44    4.00
   5   3  -2  218.77   15.84
   5   3  -2  251.29   31.94
   5   3  -1   61.29    6.27
   5   3  -1   94.14   19.28
   5   3  -1   84.11   10.14
   5   3   0  177.17   26.08
   5   3   0  160.57   15.59
   5   3   1  525.89   45.51
   5   3   1  469.63   30.65
   5   3   2  662.74   49.52
   5   3   2  582.20   37.50
   5   3   3  428.45   16.44
   5   3   3  430.48   38.43
   5   3   3  391.61   31.99
   5   3   4   19.11    7.10
   5   3   4   15.59    3.36
   5   3   4   26.57    9.46
   5   3   5  746.88   32.89
   5   3   5  684.41   48.21
   5   3   5  718.81   47.50
   5   3   6   26.71    8.92
   5   3   6   19.97    5.65
   5   3   7  477.28   31.09
   5   3   8  340.29   28.09
   5   3   9  370.82   31.50
   5   3  10  223.04   26.15
   5   3  11  207.88   26.26
   5   3  12   49.16   13.24
   5   3  13  270.35   34.60
   5   3  14  162.45   27.53
   5   3  15    5.72    2.25
   5   4 -11  248.41   44.42
   5   4 -10   17.93   12.83
   5   4  -9  500.99   60.28
   5   4  -8    3.33    5.94
   5   4  -7  129.14   28.42
   5   4  -6  137.87   19.56
   5   4  -6  273.87   40.13
   5   4  -5   58.65   11.82
   5   4  -5   48.77   17.36
   5   4  -4   65.83   18.29
   5   4  -3   38.55    7.51
   5   4  -3   30.66   12.46
   5   4  -2  717.69   32.61
   5   4  -2  678.42   56.21
   5   4  -1    9.36    2.99
   5   4  -1    8.06    7.22
   5   4   0  403.94   19.79
   5   4   0  362.74   37.88
   5   4   1   17.62    4.18
   5   4   1   26.04   10.69
   5   4   1   20.66    5.29
   5   4   2   41.64    9.50
   5   4   2   45.55    7.13
   5   4   2   56.80   15.18
   5   4   3   22.09    7.13
   5   4   3   14.88    4.45
   5   4   3   15.96    7.92
   5   4   4   33.85    9.59
   5   4   4   25.48    6.59
   5   4   4   32.05   10.23
   5   4   5   30.62    7.72
   5   4   5   38.31   10.85
   5   4   6   60.34   10.65
   5   4   7  466.96   32.81
   5   4   8  186.03   21.20
   5   4   9  323.85   30.40
   5   4  10  363.71   34.39
   5   4  11  201.11   26.24
   5   4  12  209.42   28.22
   5   4  13   -0.72    1.98
   5   4  14   91.44   20.75
   5   5 -10    6.48    6.87
   5   5  -9   19.22   11.04
   5   5  -8  190.72   31.66
   5   5  -8  217.11   40.60
   5   5  -7   13.45    8.80
   5   5  -7   22.58   12.02
   5   5  -6  506.54   52.71
   5   5  -6  701.79   68.72
   5   5  -5   24.50    8.80
   5   5  -5   23.19   13.11
   5   5  -4  964.38   49.47
   5   5  -4 1072.74   80.07
   5   5  -3   39.58   15.29
   5   5  -2  295.45   38.32
   5   5  -1  249.62   20.45
   5   5  -1  283.99   36.21
   5   5   0    5.95    4.87
   5   5   0    4.80    2.57
   5   5   1    4.77    3.73
   5   5   1   12.04    6.28
   5   5   1   15.95    4.97
   5   5   2   14.57    5.74
   5   5   2   11.43    5.79
   5   5   2   11.67    8.22
   5   5   3   17.43    6.72
   5   5   3    1.97    3.56
   5   5   3   12.92    7.58
   5   5   4   33.43    9.12
   5   5   4   34.36   10.41
   5   5   5  145.04   18.28
   5   5   5  163.77   22.78
   5   5   6  216.26   24.75
   5   5   6  263.68   28.09
   5   5   7  301.77   30.89
   5   5   8  358.31   33.69
   5   5   9   60.35   13.74
   5   5  10  226.46   27.85
   5   5  11    9.69    7.33
   5   5  12  111.14   21.45
   5   6  -9   14.71   13.64
   5   6  -8  132.27   32.66
   5   6  -8   97.43   24.83
   5   6  -7   78.06   24.73
   5   6  -7   60.44   19.26
   5   6  -6   43.79   18.28
   5   6  -6   36.26   16.00
   5   6  -5   28.39   13.30
   5   6  -5   37.41   15.64
   5   6  -4  388.35   50.13
   5   6  -3   75.95   20.86
   5   6  -2  285.58   41.02
   5   6  -1  269.29   36.97
   5   6   0   62.93   17.13
   5   6   1  313.49   28.44
   5   6   1  251.20   33.36
   5   6   1  245.46   18.73
   5   6   2   15.02    5.62
   5   6   2   -0.19    2.46
   5   6   2    8.41    6.60
   5   6   3   59.09   13.21
   5   6   3  104.53   21.02
   5   6   4   55.72   13.34
   5   6   4   82.03   17.40
   5   6   5   93.28   17.21
   5   6   5  108.36   18.88
   5   6   6    7.15    5.80
   5   6   6   11.89    6.28
   5   6   7    4.11    3.42
   5   6   8  287.01   34.02
   5   6   9    8.29    7.14
   5   6  10  292.27   34.79
   5   7  -8   13.79   12.82
   5   7  -7    9.16   12.16
   5   7  -7   25.32   14.99
   5   7  -6  193.77   40.38
   5   7  -6  367.33   54.11
   5   7  -5   20.52   13.61
   5   7  -5   15.18   11.24
   5   7  -4  167.72   34.74
   5   7  -3  265.43   41.46
   5   7  -2  339.83   46.21
   5   7  -1   67.36   19.37
   5   7   0   32.00   12.62
   5   7   1  167.14   22.77
   5   7   1  104.38   22.07
   5   7   2   -2.93    3.87
   5   7   2    0.46    2.41
   5   7   3  105.17   19.74
   5   7   3  135.55   24.52
   5   7   4   34.13   11.47
   5   7   4   61.64   15.65
   5   7   5  108.98   20.30
   5   7   6  197.31   28.51
   5   7   7   41.05   12.96
   5   8  -7   18.79   14.81
   5   8  -6   56.40   23.26
   5   8  -5   17.90   12.66
   5   8  -5    7.95    9.33
   5   8  -4  130.42   31.46
   5   8  -3    8.23   10.12
   5   8  -2   11.75    8.35
   5   8  -1  206.91   36.54
   5   8   0   -1.31    0.90
   5   8   1   95.75   22.16
   5   8   2   30.10   11.89
   5   8   3  113.37   23.22
   5   9  -3  276.78   47.68
   5   9  -2    0.90    7.32
   5   9  -1    8.45    5.91
   5   9   0   -1.53    3.77
   5   9   1   -0.26    4.43
   6  -8  -3  285.91   38.90
   6  -7  -5   14.26    7.58
   6  -7  -4   18.33   11.50
   6  -7  -3   10.10    6.25
   6  -7  -2  162.88   27.41
   6  -7   1   22.67   13.94
   6  -7   2  147.22   33.31
   6  -7   3   51.94   26.18
   6  -7   4   60.65   23.78
   6  -6  -6   38.03   15.66
   6  -6  -5  110.93   24.92
   6  -6  -4  131.65   25.32
   6  -6  -3  172.51   28.17
   6  -6  -2   31.57   12.69
   6  -6   0  271.45   43.34
   6  -6   1   30.56   15.34
   6  -6   2  203.17   38.59
   6  -6   3   44.09   18.92
   6  -6   4  123.34   32.41
   6  -6   5  190.04   39.29
   6  -6   6   37.10   16.38
   6  -6   7  136.95   33.69
   6  -5  -8   35.10   16.36
   6  -5  -7  175.71   31.35
   6  -5  -6   58.30   18.01
   6  -5  -5  103.57   22.61
   6  -5  -4   77.52   19.22
   6  -5  -3   44.51   13.04
   6  -5  -1   40.14   20.03
   6  -5   0  179.70   33.47
   6  -5   1    6.22    1.69
   6  -5   2   84.41   24.37
   6  -5   3  114.02   27.97
   6  -5   4  375.79   50.89
   6  -5   5  125.96   29.86
   6  -5   6   28.20   16.29
   6  -5   7  129.44   32.56
   6  -5   8   15.69   11.77
   6  -5   9  171.55   37.32
   6  -4  -9  257.53   39.47
   6  -4  -8   47.44   17.39
   6  -4  -7  144.48   27.36
   6  -4  -6   70.37   18.78
   6  -4  -5    9.28    8.04
   6  -4  -4  274.95   34.40
   6  -4  -1   15.36   11.09
   6  -4   0  153.19   28.61
   6  -4   1   59.15   18.96
   6  -4   2  714.37   66.17
   6  -4   3   13.92   10.63
   6  -4   4    0.86    6.96
   6  -4   5  136.82   30.55
   6  -4   6   -0.38    6.26
   6  -4   7   67.70   20.23
   6  -4   8   14.73   11.13
   6  -4   9  166.76   34.19
   6  -4  10    6.05   12.18
   6  -3 -10   36.66   14.93
   6  -3 -10   29.63   12.13
   6  -3  -9   18.10   10.70
   6  -3  -9   13.71    7.62
   6  -3  -8    6.08    6.83
   6  -3  -8    7.08    8.03
   6  -3  -7   16.76    7.21
   6  -3  -7   21.87   11.60
   6  -3  -6  430.47   44.46
   6  -3  -2  224.15   32.64
   6  -3  -1   88.29   21.01
   6  -3   0   17.23    4.11
   6  -3   0   44.63   14.70
   6  -3   1  134.98   15.17
   6  -3   1  151.42   27.81
   6  -3   2   34.90    8.34
   6  -3   2   33.84   12.31
   6  -3   3  186.76   31.77
   6  -3   4  468.73   37.68
   6  -3   4  401.39   48.15
   6  -3   5  430.80   38.83
   6  -3   5  423.61   49.13
   6  -3   6    6.18    8.76
   6  -3   7  570.17   60.22
   6  -3   8  113.79   28.32
   6  -3   9   97.58   27.20
   6  -3  10   96.53   26.28
   6  -3  11   29.11   14.76
   6  -2 -11  125.06   27.88
   6  -2 -10    2.41    7.17
   6  -2  -9  387.29   46.76
   6  -2  -8  104.20   23.43
   6  -2  -7  121.49   25.65
   6  -2  -6   30.57   11.66
   6  -2  -5   87.05   20.77
   6  -2  -4  117.47   23.94
   6  -2  -3    0.95    2.59
   6  -2  -2  157.75   26.36
   6  -2  -1  126.79   24.39
   6  -2   0  283.76   21.68
   6  -2   0  283.23   36.34
   6  -2   1   63.99   11.58
   6  -2   1   91.17   20.81
   6  -2   2   40.69   13.25
   6  -2   3  537.78   52.17
   6  -2   4  214.62   26.13
   6  -2   4  252.53   35.03
   6  -2   5  340.93   34.46
   6  -2   5  426.92   46.40
   6  -2   6  223.72   34.58
   6  -2   7  175.10   31.62
   6  -2   8   28.18   12.82
   6  -2   9  336.34   46.44
   6  -2  10  198.35   37.04
   6  -2  11   33.12   16.28
   6  -2  12  128.06   32.64
   6  -1 -12   46.44   16.58
   6  -1 -11  184.34   34.24
   6  -1 -10   42.20   15.44
   6  -1  -9   17.76   11.57
   6  -1  -8   94.37   22.16
   6  -1  -7   93.24   22.13
   6  -1  -6  583.75   55.32
   6  -1  -5  187.88   30.40
   6  -1  -4 1200.07   80.27
   6  -1  -3   35.72   13.44
   6  -1  -2  407.89   43.85
   6  -1  -2  416.93   39.51
   6  -1  -1   42.35   13.10
   6  -1  -1   37.73   10.80
   6  -1   0   41.95    9.78
   6  -1   0   64.43   16.42
   6  -1   1  158.20   25.92
   6  -1   2    0.96    4.95
   6  -1   3   62.11   14.27
   6  -1   3   85.78   18.94
   6  -1   4  145.56   21.90
   6  -1   4   87.68   20.89
   6  -1   5  335.25   40.06
   6  -1   6   12.16    6.85
   6  -1   7  620.82   57.88
   6  -1   8  300.50   41.39
   6  -1   9  527.33   55.40
   6  -1  10  146.78   29.72
   6  -1  11   -0.78    2.61
   6  -1  12   75.55   22.38
   6   0 -13   39.33   17.27
   6   0 -12    5.03    8.77
   6   0 -11   81.62   23.31
   6   0 -10   99.58   26.62
   6   0  -9  116.11   26.15
   6   0  -8  358.94   45.98
   6   0  -7   23.90    9.55
   6   0  -7   12.66    9.03
   6   0  -6  578.70   55.79
   6   0  -5  104.48   22.95
   6   0  -4   34.45   12.49
   6   0  -3    2.41    4.45
   6   0  -2  475.82   47.21
   6   0  -2  464.71   39.43
   6   0  -1    5.14    1.55
   6   0  -1    6.83    5.72
   6   0   0   62.14   16.98
   6   0   0   66.49   16.24
   6   0   1  504.57   47.89
   6   0   1  466.56   42.80
   6   0   2  145.92   22.67
   6   0   2  129.59   21.18
   6   0   3  163.39   24.16
   6   0   3  176.87   26.61
   6   0   4   31.97   10.85
   6   0   4   25.27   11.26
   6   0   5   32.61   11.98
   6   0   6   96.79   21.46
   6   0   7   98.57   20.28
   6   0   8   49.51   16.30
   6   0   9   16.95   11.77
   6   0  10  516.42   56.81
   6   0  11   -4.26    2.25
   6   0  12  239.82   41.25
   6   1 -13  130.31   31.92
   6   1 -12    9.28   10.63
   6   1 -11   29.28   12.57
   6   1 -10  129.33   29.17
   6   1  -9   32.83   14.88
   6   1  -8  395.84   49.24
   6   1  -7   52.28   14.53
   6   1  -7   56.14   18.37
   6   1  -6  330.50   32.19
   6   1  -6  232.17   35.61
   6   1  -5  133.39   27.60
   6   1  -4  326.79   41.10
   6   1  -3   89.55   20.95
   6   1  -2   45.90   14.52
   6   1  -2   43.55   10.10
   6   1  -1  369.14   41.44
   6   1  -1  381.06   34.17
   6   1   0  241.79   31.99
   6   1   0  218.95   26.22
   6   1   0  164.85   24.94
   6   1   1    8.31    5.74
   6   1   1    5.09    3.94
   6   1   1    8.45    6.06
   6   1   2    1.53    2.53
   6   1   2    1.19    1.20
   6   1   2   -1.55    3.55
   6   1   3  285.28   34.56
   6   1   3  230.63   29.19
   6   1   4  124.97   21.71
   6   1   5  202.06   28.10
   6   1   6  141.83   25.02
   6   1   7   84.16   20.21
   6   1   8  372.59   43.79
   6   1   9   12.18    6.07
   6   1  10  117.62   26.39
   6   1  11   91.44   23.76
   6   1  12    2.64    8.80
   6   2 -12   24.62   13.87
   6   2 -11  113.25   28.09
   6   2 -10  132.39   30.00
   6   2  -9   50.01   17.94
   6   2  -8  477.54   53.96
   6   2  -7  139.63   28.88
   6   2  -6  196.89   22.90
   6   2  -6  253.12   37.28
   6   2  -5  116.97   16.15
   6   2  -5  128.80   27.20
   6   2  -4   28.16    7.06
   6   2  -4   43.61   15.47
   6   2  -3  182.83   30.79
   6   2  -2   35.45   13.72
   6   2  -2   41.89    9.84
   6   2  -1  102.71   21.88
   6   2  -1  109.71   15.85
   6   2   0   39.85   13.81
   6   2   0   51.46   11.67
   6   2   1 1064.99   70.79
   6   2   1 1181.05   59.88
   6   2   2   92.32   20.39
   6   2   2   90.96   17.08
   6   2   3  310.23   36.45
   6   2   3  255.36   29.31
   6   2   4  228.17   30.71
   6   2   4  254.74   29.49
   6   2   5  114.95   20.84
   6   2   6  533.34   47.46
   6   2   7   12.04    7.55
   6   2   8  660.29   57.58
   6   2   9   59.65   18.14
   6   2  10  194.52   33.01
   6   2  11    8.56    3.00
   6   2  12  154.43   32.97
   6   3 -11    6.78    1.85
   6   3 -10  305.43   46.48
   6   3  -9  170.10   34.08
   6   3  -8  139.77   30.21
   6   3  -7   27.73   13.87
   6   3  -6  265.34   39.33
   6   3  -5  163.80   30.44
   6   3  -4  107.58   13.06
   6   3  -4  156.55   29.77
   6   3  -3  230.92   16.48
   6   3  -3  286.83   39.18
   6   3  -2  134.98   26.10
   6   3  -1  464.69   49.16
   6   3  -1  495.54   31.06
   6   3   0   34.44   13.59
   6   3   0   33.18    8.84
   6   3   1   45.67   14.51
   6   3   1   25.47    8.15
   6   3   2   15.44    8.42
   6   3   2   10.04    3.66
   6   3   3   42.77   14.22
   6   3   3   50.80   12.46
   6   3   4   90.14   19.48
   6   3   4   75.81   16.96
   6   3   5   37.42   11.94
   6   3   5   35.76   11.71
   6   3   6  407.38   23.32
   6   3   6  367.41   38.82
   6   3   7   39.34   13.59
   6   3   7   35.10    7.66
   6   3   8  417.78   29.99
   6   3   8  508.59   47.91
   6   3   9   29.75   12.34
   6   3   9   34.29    9.51
   6   3  10  447.75   36.39
   6   3  10  420.14   47.19
   6   3  11   19.47   11.71
   6   3  12  121.14   27.64
   6   4 -10   38.36   18.98
   6   4  -9   72.78   22.05
   6   4  -8  248.13   42.32
   6   4  -7  119.29   29.03
   6   4  -6  155.62   31.50
   6   4  -5  296.43   41.59
   6   4  -4  150.36   29.29
   6   4  -3  687.95   61.63
   6   4  -2    2.12    1.73
   6   4  -2    3.36    6.44
   6   4  -1  263.21   37.74
   6   4   0   22.86   10.44
   6   4   0   10.96    4.22
   6   4   1   11.62    8.81
   6   4   1    6.08    4.99
   6   4   2    4.72    3.16
   6   4   2    6.66    4.79
   6   4   3    8.86    5.89
   6   4   3   12.75    6.48
   6   4   4   42.02    4.68
   6   4   4   40.63   13.62
   6   4   4   28.71    9.79
   6   4   5   11.13    5.28
   6   4   5    4.15    2.64
   6   4   5    5.08    4.26
   6   4   6  603.73   30.59
   6   4   6  635.99   49.34
   6   4   7    8.05    3.93
   6   4   7   17.39    5.76
   6   4   8  401.54   42.72
   6   4   9   89.72   20.82
   6   4  10   63.30   18.64
   6   4  11  129.23   27.67
   6   4  12   30.33   11.89
   6   5  -8   15.41   11.98
   6   5  -7  116.26   28.81
   6   5  -6   15.49   12.08
   6   5  -5  386.69   50.77
   6   5  -4    5.37    5.95
   6   5  -3  134.94   27.89
   6   5  -2    7.12    6.82
   6   5  -1  198.63   32.83
   6   5   0   18.65    4.84
   6   5   0   45.81   15.96
   6   5   1  134.23   25.91
   6   5   1  102.39   12.85
   6   5   2   35.75   13.19
   6   5   2   50.91   10.47
   6   5   3    2.00    3.32
   6   5   3    5.74    5.24
   6   5   4   52.24   12.64
   6   5   4   61.09   16.05
   6   5   5    7.40    5.62
   6   5   5    6.42    6.30
   6   5   6   76.50   16.85
   6   5   6   72.51   16.19
   6   5   7  117.88   22.39
   6   5   8  151.79   26.88
   6   6  -7  114.42   30.41
   6   6  -6    2.89    6.79
   6   6  -5  323.56   47.87
   6   6  -4   12.18   10.35
   6   6  -3  620.44   63.42
   6   6  -2   13.92   10.39
   6   6  -1  145.19   28.44
   6   6   0   78.60   20.59
   6   6   1   10.25    7.91
   6   6   2  212.21   33.12
   6   6   3   58.60   16.44
   6   6   4  563.60   51.07
   6   6   4  767.46   48.28
   6   6   5    2.30    6.21
   6   6   5    6.96    6.00
   6   6   6  440.83   41.91
   6   6   6  467.76   41.77
   6   7  -5   38.37   18.15
   6   7  -4   -2.68    4.59
   6   7  -3   19.69   14.20
   6   7  -2   51.51   17.47
   6   7  -1   36.98   13.13
   6   7   0  158.62   30.09
   6   7   1   58.81   18.13
   6   7   2  475.47   51.49
   6   7   3   13.51    7.83
   6   7   4  317.07   38.44
   6   8  -3   52.23   18.37
   6   8  -2   78.68   23.62
   6   8  -1   -0.09    4.32
   6   8   0    2.17    3.87
   6   8   1   -4.05    2.10
   6   8   2   74.42   19.77
   6   9  -1   16.39   12.52
   6   9   0   58.02   19.82
   7  -6   0   10.41    9.77
   7  -6   1  184.86   38.85
   7  -6   2   79.72   27.02
   7  -6   3  406.98   59.58
   7  -5  -1   17.50   11.85
   7  -5   0   53.16   18.94
   7  -5   1  224.82   40.80
   7  -5   2   20.69   14.64
   7  -5   3   54.78   19.80
   7  -5   4  147.93   34.11
   7  -5   5   92.01   27.94
   7  -5   6  150.43   36.78
   7  -4  -1  376.54   48.31
   7  -4   0   10.35    8.63
   7  -4   1  102.97   26.31
   7  -4   2   60.75   18.03
   7  -4   3  226.96   39.98
   7  -4   4   68.30   21.49
   7  -4   5   50.11   20.19
   7  -4   6  301.53   47.76
   7  -4   7    1.22    8.47
   7  -4   8  212.68   41.89
   7  -3  -2    1.81    5.19
   7  -3  -1   54.01   17.12
   7  -3   0    2.93    3.81
   7  -3   1  191.35   33.85
   7  -3   2  109.26   26.04
   7  -3   3  121.44   27.90
   7  -3   4  531.82   60.40
   7  -3   5   40.41   16.97
   7  -3   6  243.37   41.44
   7  -3   7   25.31   14.43
   7  -3   8  183.25   35.90
   7  -3   9   39.40   17.56
   7  -2 -11   18.49   11.58
   7  -2 -10   96.63   26.10
   7  -2  -9   73.97   21.91
   7  -2  -8   50.79   18.64
   7  -2  -7   41.65   16.21
   7  -2  -6  381.94   48.13
   7  -2  -5  176.19   32.67
   7  -2  -4  292.09   41.19
   7  -2  -2   70.94   18.57
   7  -2  -1  616.08   56.97
   7  -2   0   81.39   20.30
   7  -2   1  131.45   26.69
   7  -2   2  538.11   55.42
   7  -2   3  128.60   20.58
   7  -2   3  108.44   25.71
   7  -2   4  497.85   54.97
   7  -2   5    7.84    9.37
   7  -2   6  617.67   61.63
   7  -2   7   19.75   13.12
   7  -2   8  459.35   56.25
   7  -2   9   24.73   14.64
   7  -2  10   40.21   18.93
   7  -1 -12    9.31    2.90
   7  -1 -11   12.56    9.41
   7  -1 -10   45.78   16.58
   7  -1  -9   -0.78    3.67
   7  -1  -8  397.81   50.65
   7  -1  -7  427.24   51.72
   7  -1  -6  201.23   35.33
   7  -1  -5  164.63   31.30
   7  -1  -4   89.86   22.72
   7  -1  -3  142.08   28.54
   7  -1  -2  145.32   28.29
   7  -1  -2  186.36   28.85
   7  -1  -1  220.77   34.97
   7  -1  -1  246.65   33.66
   7  -1   0   98.60   21.35
   7  -1   1  214.84   32.48
   7  -1   2  337.98   34.33
   7  -1   2  319.84   40.84
   7  -1   3   13.35    7.05
   7  -1   3   18.12    8.84
   7  -1   4  298.63   39.05
   7  -1   5  210.68   33.59
   7  -1   6   93.72   22.81
   7  -1   7   73.27   21.76
   7  -1   8   25.21   11.85
   7  -1   9   44.33   18.85
   7  -1  10   54.02   20.92
   7  -1  11   92.71   27.25
   7   0 -12   32.94   17.33
   7   0 -11   -2.47    5.20
   7   0 -10  120.77   30.04
   7   0  -9  125.45   28.82
   7   0  -8   17.52   11.29
   7   0  -7  139.38   29.72
   7   0  -6   25.54   12.09
   7   0  -5  521.12   56.07
   7   0  -4  171.39   31.55
   7   0  -3  715.81   64.51
   7   0  -2   25.81   12.37
   7   0  -2   19.58    9.13
   7   0  -1  480.53   51.74
   7   0  -1  424.84   42.40
   7   0   0   50.87   13.46
   7   0   0   60.04   18.45
   7   0   0   80.68   19.14
   7   0   1   49.75   14.12
   7   0   1   63.86   17.89
   7   0   1   45.78   14.02
   7   0   2  259.27   32.22
   7   0   2  298.75   36.99
   7   0   3    1.62    4.63
   7   0   4  256.98   35.02
   7   0   5   25.10   13.13
   7   0   6  213.48   33.49
   7   0   7   26.55   12.89
   7   0   8   73.33   21.75
   7   0   9  247.83   39.44
   7   0  10   19.60   10.85
   7   0  11   52.70   19.73
   7   1 -11   10.31    7.42
   7   1 -10   19.63   13.01
   7   1  -9  166.80   35.27
   7   1  -8   75.88   23.98
   7   1  -7  369.44   50.78
   7   1  -6    9.03    9.01
   7   1  -5  108.02   26.09
   7   1  -4   75.03   20.77
   7   1  -3   14.83   10.87
   7   1  -2   17.84    8.70
   7   1  -2   39.85   11.88
   7   1  -1  180.68   31.65
   7   1  -1  154.92   23.86
   7   1   0  479.76   51.56
   7   1   0  386.79   39.07
   7   1   1  114.68   24.27
   7   1   1   97.27   19.35
   7   1   2  808.07   66.50
   7   1   2  914.32   62.11
   7   1   3    2.87    4.69
   7   1   4  476.78   46.87
   7   1   5  126.02   24.35
   7   1   6  263.99   36.45
   7   1   7  317.98   41.00
   7   1   8    7.08    6.73
   7   1   9   94.29   25.07
   7   1  10  135.05   29.77
   7   1  11   95.25   27.69
   7   2 -10   73.86   24.09
   7   2  -9   28.74   15.99
   7   2  -8   35.83   16.83
   7   2  -7  119.95   29.34
   7   2  -6   20.04   12.07
   7   2  -5  259.51   41.53
   7   2  -4    3.42    5.50
   7   2  -3  590.18   60.32
   7   2  -2  281.57   40.44
   7   2  -1   90.05   22.95
   7   2  -1   86.53   15.90
   7   2   0  773.87   65.71
   7   2   0  764.89   51.30
   7   2   1   29.80   13.34
   7   2   1   25.26    8.73
   7   2   2  277.49   38.35
   7   2   2  302.80   32.32
   7   2   3    2.89    0.37
   7   2   3   -0.06    4.08
   7   2   4  516.62   46.71
   7   2   5  123.45   23.63
   7   2   6   96.45   21.31
   7   2   7  403.26   45.36
   7   2   8   16.49   11.44
   7   2   9  289.08   42.08
   7   2  10   -4.04    2.79
   7   2  11   17.43   12.29
   7   3  -9   60.16   22.76
   7   3  -8   10.06    6.67
   7   3  -7  115.75   28.49
   7   3  -6   34.58   15.75
   7   3  -5  290.73   44.97
   7   3  -4  111.13   27.00
   7   3  -3  343.27   46.92
   7   3  -2  296.70   42.37
   7   3  -1   82.81   21.17
   7   3  -1   59.70   11.87
   7   3   0  162.68   29.77
   7   3   0  178.68   21.78
   7   3   1   49.57   17.09
   7   3   1   40.98   10.93
   7   3   2  513.09   52.41
   7   3   2  454.71   38.32
   7   3   3  103.32   23.68
   7   3   3   65.49   15.66
   7   3   4  255.00   36.02
   7   3   4  179.00   26.35
   7   3   5  308.75   35.19
   7   3   6  174.04   28.04
   7   3   7  184.66   30.49
   7   3   8    7.08    5.26
   7   3   9  131.08   27.18
   7   3  10   33.69   15.48
   7   3  11   93.70   25.34
   7   4  -8   27.88   16.52
   7   4  -7   35.69   15.78
   7   4  -6    1.96    4.18
   7   4  -5  255.00   42.25
   7   4  -4   23.76   11.97
   7   4  -3   68.96   20.94
   7   4  -2  351.35   47.33
   7   4  -1   37.07   15.66
   7   4   0  409.24   49.76
   7   4   1    6.19    6.42
   7   4   1    1.97    3.68
   7   4   2   67.04   19.07
   7   4   2   57.27   12.83
   7   4   3   28.35   12.32
   7   4   3   28.88    8.85
   7   4   4   99.20   22.49
   7   4   4  105.86   19.03
   7   4   5  113.77   23.66
   7   4   5  109.06   21.30
   7   4   6    6.72    4.39
   7   4   7  146.33   26.86
   7   4   8    2.20    7.40
   7   4   9   36.56   14.49
   7   4  10   29.80   15.14
   7   4  11   43.77   18.73
   7   5  -6   70.55   23.10
   7   5  -5   37.37   14.55
   7   5  -4  153.19   33.18
   7   5  -3  100.42   27.42
   7   5  -2  139.92   31.17
   7   5  -1   15.54   11.19
   7   5   0  185.43   34.61
   7   5   1   97.81   24.68
   7   5   2  319.74   43.29
   7   5   3  373.33   44.93
   7   5   4  322.45   41.60
   7   5   4  253.26   29.74
   7   5   5  511.99   50.75
   7   5   5  397.74   40.60
   7   5   6   25.69   10.17
   7   5   7  174.72   29.71
   7   5   8   -1.47    2.79
   7   5   9   37.38   14.88
   7   5  10   83.33   21.11
   7   5  11   12.13    8.81
   7   6  -5   23.99   14.10
   7   6  -4    8.80    9.80
   7   6  -3   -2.06    6.01
   7   6  -2   43.31   17.80
   7   6  -1    4.61    9.19
   7   6   0  230.59   39.07
   7   6   1  154.38   31.44
   7   6   2  389.97   48.56
   7   6   3  713.60   63.87
   7   6   4   54.11   17.31
   7   6   5  542.97   53.73
   7   6   9   10.60    9.48
   7   6  10   38.71   15.25
   7   7  -3   -2.25    4.98
   7   7  -2   95.71   27.83
   7   7  -1    8.02    7.62
   7   7   0   85.33   24.93
   7   7   1  121.73   28.79
   7   7   2   83.08   23.07
   7   7   3  220.86   35.83
   7   8  -1   20.29   12.22
   7   8   0   26.19   13.57
   7   8   1   79.59   24.37
   8  -5   0  139.28   32.28
   8  -5   1   18.16   11.68
   8  -4  -1   51.98   18.70
   8  -4   0  130.77   29.66
   8  -4   1   31.78   14.82
   8  -4   2  248.80   43.51
   8  -4   3   11.12    6.19
   8  -4   4   23.34   14.26
   8  -4   5   35.68   13.96
   8  -3  -1  120.06   27.37
   8  -3   0  409.22   51.88
   8  -3   1  117.90   29.08
   8  -3   2  121.17   29.17
   8  -3   3  346.62   51.13
   8  -3   4  139.73   33.27
   8  -3   5  100.14   27.57
   8  -3   6   25.06   14.55
   8  -3   7  170.73   37.05
   8  -2 -10   25.90   11.95
   8  -2  -9  104.99   28.46
   8  -2  -8    2.43    5.77
   8  -2  -7  272.11   44.42
   8  -2  -6   -1.13    4.23
   8  -2  -2  261.07   38.13
   8  -2  -1   26.77   12.08
   8  -2   0  367.24   47.97
   8  -2   1    2.26    9.55
   8  -2   2  257.59   40.93
   8  -2   3   98.33   26.14
   8  -2   4   20.07   12.33
   8  -2   5  240.76   41.75
   8  -2   6    5.61    7.66
   8  -2   7   60.90   21.19
   8  -2   8   22.29   13.07
   8  -1  -9   71.15   23.05
   8  -1  -8   51.11   20.89
   8  -1  -7   29.24   14.55
   8  -1  -6   96.18   26.79
   8  -1  -5  372.27   51.63
   8  -1  -4  129.62   29.57
   8  -1  -3  179.54   35.11
   8  -1  -2  372.99   49.45
   8  -1  -2  413.06   45.07
   8  -1  -1   28.99   13.07
   8  -1   0  477.81   51.28
   8  -1   1  195.10   33.88
   8  -1   2  211.59   35.17
   8  -1   3  143.27   29.66
   8  -1   4   45.00   16.89
   8  -1   5   41.06   16.24
   8  -1   6   94.09   24.87
   8  -1   7   72.27   22.46
   8  -1   8   18.90   11.08
   8  -1   9   47.63   18.20
   8   0  -9   96.40   27.22
   8   0  -8    1.31    1.62
   8   0  -7  185.77   37.84
   8   0  -6   98.19   25.88
   8   0  -5   -2.63    6.68
   8   0  -4   53.70   19.65
   8   0  -3   24.50   12.97
   8   0  -2  128.95   28.70
   8   0  -2  102.23   21.70
   8   0  -1   24.62   12.97
   8   0  -1   28.25   11.85
   8   0   0  175.07   33.31
   8   0   0  135.91   26.24
   8   0   1  153.24   28.72
   8   0   2  238.07   35.81
   8   0   3  191.40   32.63
   8   0   4  357.74   44.96
   8   0   5  262.68   38.61
   8   0   6   15.44   10.97
   8   0   7   30.41   14.89
   8   0   8   45.78   17.35
   8   0   9   54.41   21.95
   8   0  10  101.03   27.64
   8   1  -8   26.79   15.48
   8   1  -7   19.86   13.35
   8   1  -6    8.85    9.59
   8   1  -5   22.46   11.47
   8   1  -4  112.08   28.01
   8   1  -3   10.45    8.46
   8   1  -2  386.65   51.46
   8   1  -2  419.85   40.06
   8   1  -1  571.22   62.13
   8   1  -1  402.53   41.22
   8   1   0  389.14   50.29
   8   1   0  379.09   41.29
   8   1   1  227.69   38.13
   8   1   1  213.68   31.55
   8   1   2  102.66   22.56
   8   1   3  255.17   36.54
   8   1   4   21.92   11.02
   8   1   5  298.83   40.62
   8   1   6   -2.89    6.31
   8   1   7  188.09   34.74
   8   1   8   85.11   24.08
   8   1   9   56.75   20.11
   8   1  10   67.13   21.75
   8   2  -7  127.27   32.76
   8   2  -6   74.09   24.77
   8   2  -5   76.69   24.14
   8   2  -4  145.43   32.47
   8   2  -3   51.76   19.26
   8   2  -2   84.98   24.23
   8   2  -1  120.99   27.83
   8   2  -1   95.73   17.06
   8   2   0   13.42    9.32
   8   2   0   31.77   11.38
   8   2   1  624.24   63.59
   8   2   1  526.18   47.34
   8   2   2   94.82   25.03
   8   2   2   77.94   18.94
   8   2   3  502.52   55.92
   8   2   3  565.75   50.85
   8   2   4    4.53    9.33
   8   2   5  260.83   36.79
   8   2   6  119.69   25.86
   8   2   7   82.93   21.38
   8   2   8  145.79   29.72
   8   2   9    9.12   11.35
   8   2  10   69.91   22.34
   8   3  -6   23.44   13.27
   8   3  -5   47.24   19.00
   8   3  -4  238.86   42.60
   8   3  -3   18.17   14.23
   8   3  -2  425.25   55.46
   8   3  -1  319.65   46.01
   8   3   0  177.84   33.93
   8   3   1  137.06   30.15
   8   3   1  155.23   23.00
   8   3   2   14.93   11.12
   8   3   2    0.73    4.57
   8   3   3  125.96   27.48
   8   3   3   97.19   19.80
   8   3   4    2.57    2.85
   8   3   4   -7.42    5.01
   8   3   5  122.49   24.18
   8   3   6   18.54    9.80
   8   3   7   42.15   16.10
   8   3   8   21.03   11.49
   8   3   9   32.98   14.76
   8   3  10   86.24   25.19
   8   4  -5    5.44    7.77
   8   4  -4  118.31   31.40
   8   4  -3   70.98   23.58
   8   4  -2   17.68   10.49
   8   4  -1  125.65   29.87
   8   4   0   24.43   13.71
   8   4   1  187.07   35.36
   8   4   2    1.02    4.96
   8   4   3  433.48   52.89
   8   4   4   96.69   23.61
   8   4   4   78.99   18.40
   8   4   5   97.66   21.60
   8   4   6   94.02   21.12
   8   4   7   69.39   20.20
   8   4   8   13.49    9.70
   8   4   9   -0.82    5.76
   8   4  10   24.10   10.70
   8   5  -3   11.13   11.56
   8   5  -2   -5.67    6.92
   8   5  -1   53.41   20.62
   8   5   0    8.39   10.30
   8   5   1  399.54   51.87
   8   5   2   26.01   13.60
   8   5   3  400.28   50.89
   8   5   4  161.63   31.05
   8   5   5  132.87   27.34
   8   6  -2   29.66   16.39
   8   6  -1  101.00   28.05
   8   6   0   -0.51    2.67
   8   6   1  176.41   35.02
   8   6   2  117.28   28.04
   8   6   3  265.78   41.65
   8   6   4  233.52   38.66
   8   7   0    6.24    2.82
   8   7   1  154.38   34.01
   8   7   2   26.23   13.15
   8   7   3   68.34   21.12
   9  -3  -1   76.52   22.63
   9  -3   0   59.56   20.17
   9  -3   1   89.12   24.68
   9  -3   2    2.81    7.12
   9  -3   3  106.21   30.69
   9  -2  -1  215.16   37.31
   9  -2   0   28.81   13.70
   9  -2   1  257.80   43.26
   9  -2   2   15.47   11.31
   9  -2   3   43.90   17.11
   9  -2   4   17.96   14.31
   9  -2   5  127.23   33.06
   9  -1  -5   18.21   12.00
   9  -1  -4    3.85    8.18
   9  -1  -1   94.99   24.00
   9  -1   0    9.07    7.79
   9  -1   1   46.80   17.18
   9  -1   2   23.54   13.69
   9  -1   3  248.63   42.33
   9  -1   4   47.21   19.37
   9  -1   5  104.82   29.23
   9  -1   6    7.94    9.64
   9  -1   7    1.67    3.97
   9   0  -5   47.44   20.77
   9   0  -4    2.76    9.45
   9   0  -3  170.06   37.04
   9   0  -2   53.18   20.11
   9   0  -1  237.43   42.18
   9   0  -1  198.86   31.80
   9   0   0    7.02    6.42
   9   0   1   80.81   20.94
   9   0   2   34.94   14.81
   9   0   3   77.73   22.06
   9   0   4   48.40   19.02
   9   0   5  114.90   29.33
   9   0   6   61.54   20.60
   9   0   7   39.46   18.25
   9   0   8   99.58   27.05
   9   1  -4   24.32   14.55
   9   1  -3   36.35   16.85
   9   1  -2   92.00   27.23
   9   1  -1   41.52   17.90
   9   1  -1   61.73   18.11
   9   1   0   88.05   25.55
   9   1   0   99.66   22.54
   9   1   1   63.48   21.55
   9   1   1   52.48   16.61
   9   1   2   18.09   10.51
   9   1   3   84.10   23.11
   9   1   4   64.90   20.83
   9   1   5   22.56   11.57
   9   1   6  276.40   41.97
   9   1   7   31.04   13.96
   9   1   8   77.27   24.53
   9   2  -3  270.72   46.56
   9   2  -2   14.45   13.43
   9   2  -1  210.23   41.19
   9   2   0   64.85   22.34
   9   2   1  119.03   29.44
   9   2   2   42.41   17.03
   9   2   2   40.42   13.94
   9   2   3    7.15    8.60
   9   2   4   56.89   17.00
   9   2   5   10.90    9.49
   9   2   6   42.46   15.10
   9   2   7   -6.06    4.61
   9   2   8  121.80   29.36
   9   3  -2   39.21   18.25
   9   3  -1   58.86   21.35
   9   3   0   -3.39    7.93
   9   3   1   -1.80   10.47
   9   3   2   58.79   20.49
   9   3   3    3.17    5.00
   9   3   5   14.78   11.18
   9   3   6   68.17   21.77
   9   3   7    1.61    6.31
   9   3   8   48.34   17.44
   9   3   9   15.19   12.19
   9   4  -1   47.92   20.87
   9   4   0  124.37   30.75
   9   4   1   91.30   26.40
   9   4   2   38.92   17.83
   9   4   3   -2.82    6.44
   9   4   4   52.17   18.92
   9   5   1   -3.36    3.26
   9   5   2  131.04   31.25
   9   5   3    7.72    8.28
   9   5   4  188.94   36.63
  10  -2   0   40.30   19.17
  10  -2   1   25.35   14.17
  10  -1  -1    2.48    5.86
  10  -1   0   48.55   18.29
  10  -1   1    4.99    2.97
  10  -1   2   61.37   22.16
  10  -1   3    3.41    9.81
  10  -1   4   61.49   22.86
  10   0   1   -2.54    2.82
  10   0   2   25.61   13.49
  10   0   3    3.58    4.18
  10   0   4   87.12   26.27
  10   0   5   69.02   24.00
  10   1   4   18.45   17.79
  10   1   5  185.63   38.29
  10   1   6    1.13    1.73
   0   0   0    0.00    0.00


TITL 20180428a in P1
REM P1 (#1 in standard setting)
CELL 0.71073   7.422955   7.667718  12.312432  87.7834  86.4427  86.7233
ZERR   13.00   0.000524   0.000611   0.000833   0.0060   0.0056   0.0061
LATT -1
SFAC C H O Fe
UNIT 13.00 13.00 13.00 13.00
TREF
HKLF 4
END
_computing_structure_solution     'SHELXT 2014/5 (Sheldrick, 2014)'
;
_shelx_hkl_checksum              66602
_olex2_submission_special_instructions 'No special instructions were received'
_oxdiff_exptl_absorpt_empirical_details
;
Empirical correction (ABSPACK) includes:
- Absorption correction using spherical harmonics
- Frame scaling
;
_oxdiff_exptl_absorpt_empirical_full_max 1.537
_oxdiff_exptl_absorpt_empirical_full_min 0.734
loop_
_space_group_symop_operation_xyz
'x, y, z'
'-x, -y, -z'
loop_
_atom_site_label
_atom_site_type_symbol
_atom_site_fract_x
_atom_site_fract_y
_atom_site_fract_z
_atom_site_U_iso_or_equiv
_atom_site_adp_type
_atom_site_occupancy
_atom_site_site_symmetry_order
_atom_site_calc_flag
_atom_site_refinement_flags_posn
Fe1 Fe 0.69677(4) 0.53171(4) 0.78258(3) 0.01577(13) Uani 1 1 d .
O14 O 0.9792(2) 0.9084(2) 0.11927(14) 0.0256(4) Uani 1 1 d .
O13 O 0.7916(2) 1.1184(3) 0.05202(14) 0.0272(4) Uani 1 1 d .
H13 H 0.8615 1.1102 -0.0020 0.041 Uiso 1 1 calc GR
O15 O 0.7085(3) 1.1001(3) 0.45734(15) 0.0394(5) Uani 1 1 d .
C2 C 0.8192(3) 0.7533(3) 0.72730(19) 0.0181(5) Uani 1 1 d .
C3 C 0.7602(3) 0.7646(3) 0.83949(19) 0.0194(5) Uani 1 1 d .
H3 H 0.6792 0.8498 0.8687 0.023 Uiso 1 1 calc R
C6 C 0.9431(3) 0.6044(3) 0.7191(2) 0.0215(5) Uani 1 1 d .
H6 H 1.0040 0.5660 0.6554 0.026 Uiso 1 1 calc R
C17 C 0.4253(3) 0.5080(3) 0.8119(2) 0.0221(5) Uani 1 1 d .
H17 H 0.3444 0.5860 0.8483 0.027 Uiso 1 1 calc R
C20 C 0.6301(3) 0.2785(3) 0.7777(2) 0.0233(5) Uani 1 1 d .
H20 H 0.7078 0.1803 0.7871 0.028 Uiso 1 1 calc R
C18 C 0.4712(3) 0.5118(3) 0.6984(2) 0.0209(5) Uani 1 1 d .
H18 H 0.4271 0.5931 0.6472 0.025 Uiso 1 1 calc R
C4 C 0.8455(3) 0.6244(4) 0.8992(2) 0.0231(5) Uani 1 1 d .
H4 H 0.8302 0.6019 0.9739 0.028 Uiso 1 1 calc R
C12 C 0.8501(3) 1.0128(3) 0.13030(19) 0.0185(5) Uani 1 1 d .
C19 C 0.5971(3) 0.3689(4) 0.6772(2) 0.0236(6) Uani 1 1 d .
H19 H 0.6491 0.3394 0.6092 0.028 Uiso 1 1 calc R
C7 C 0.7693(3) 0.8829(3) 0.63818(19) 0.0191(5) Uani 1 1 d .
H7A H 0.8453 0.9814 0.6401 0.023 Uiso 1 1 calc R
H7B H 0.6452 0.9261 0.6530 0.023 Uiso 1 1 calc R
C16 C 0.5239(3) 0.3645(4) 0.8607(2) 0.0238(5) Uani 1 1 d .
H16 H 0.5193 0.3327 0.9345 0.029 Uiso 1 1 calc R
C9 C 0.7541(3) 0.9498(3) 0.43701(19) 0.0208(5) Uani 1 1 d .
C10 C 0.7851(3) 0.8926(3) 0.32099(19) 0.0192(5) Uani 1 1 d .
H10A H 0.7078 0.7978 0.3100 0.023 Uiso 1 1 calc R
H10B H 0.9096 0.8481 0.3094 0.023 Uiso 1 1 calc R
C5 C 0.9581(3) 0.5246(4) 0.8245(2) 0.0235(5) Uani 1 1 d .
H5 H 1.0292 0.4246 0.8416 0.028 Uiso 1 1 calc R
C11 C 0.7476(3) 1.0384(4) 0.23752(19) 0.0225(5) Uani 1 1 d .
H11A H 0.6192 1.0469 0.2261 0.027 Uiso 1 1 calc R
H11B H 0.7787 1.1481 0.2662 0.027 Uiso 1 1 calc R
C8 C 0.7873(4) 0.8125(3) 0.5244(2) 0.0242(5) Uani 1 1 d .
H8A H 0.9080 0.7591 0.5117 0.029 Uiso 1 1 calc R
H8B H 0.7021 0.7222 0.5198 0.029 Uiso 1 1 calc R
loop_
_atom_site_aniso_label
_atom_site_aniso_U_11
_atom_site_aniso_U_22
_atom_site_aniso_U_33
_atom_site_aniso_U_23
_atom_site_aniso_U_13
_atom_site_aniso_U_12
Fe1 0.01591(19) 0.0161(2) 0.01546(19) -0.00240(14) -0.00152(13) -0.00050(14)
O14 0.0297(10) 0.0235(10) 0.0213(9) 0.0036(7) 0.0069(7) 0.0077(8)
O13 0.0306(10) 0.0342(11) 0.0139(8) 0.0062(8) 0.0034(7) 0.0137(8)
O15 0.0728(15) 0.0227(11) 0.0199(10) -0.0002(8) 0.0043(10) 0.0140(10)
C2 0.0169(11) 0.0216(13) 0.0160(11) -0.0003(9) -0.0008(9) -0.0039(10)
C3 0.0260(12) 0.0149(12) 0.0184(12) -0.0059(9) -0.0022(9) -0.0051(10)
C6 0.0157(11) 0.0254(14) 0.0228(13) -0.0007(10) 0.0015(9) 0.0005(10)
C17 0.0177(11) 0.0198(13) 0.0287(14) -0.0024(11) 0.0014(10) -0.0023(10)
C20 0.0242(12) 0.0155(12) 0.0307(14) -0.0030(10) -0.0042(10) -0.0015(10)
C18 0.0197(11) 0.0201(13) 0.0243(13) 0.0009(10) -0.0086(10) -0.0056(10)
C4 0.0267(13) 0.0286(14) 0.0153(11) 0.0013(10) -0.0080(10) -0.0064(11)
C12 0.0192(11) 0.0182(12) 0.0177(11) -0.0008(9) 0.0009(9) 0.0005(10)
C19 0.0226(12) 0.0255(14) 0.0242(13) -0.0092(11) -0.0041(10) -0.0050(11)
C7 0.0242(12) 0.0170(12) 0.0161(11) -0.0025(9) 0.0013(9) -0.0024(10)
C16 0.0241(12) 0.0237(14) 0.0236(13) 0.0051(10) -0.0010(10) -0.0062(11)
C9 0.0215(12) 0.0229(13) 0.0178(12) -0.0010(10) 0.0019(9) -0.0022(10)
C10 0.0230(12) 0.0197(12) 0.0151(11) -0.0013(9) -0.0002(9) -0.0045(10)
C5 0.0185(12) 0.0271(14) 0.0252(13) 0.0028(11) -0.0068(10) -0.0017(10)
C11 0.0231(12) 0.0271(14) 0.0162(12) -0.0001(10) 0.0016(9) 0.0042(11)
C8 0.0315(13) 0.0216(13) 0.0189(12) -0.0008(10) 0.0009(10) 0.0005(11)
loop_
_atom_type_symbol
_atom_type_description
_atom_type_scat_dispersion_real
_atom_type_scat_dispersion_imag
_atom_type_scat_source
C C 0.0033 0.0016 'International Tables Vol C Tables 4.2.6.8 and 6.1.1.4'
H H 0.0000 0.0000 'International Tables Vol C Tables 4.2.6.8 and 6.1.1.4'
Fe Fe 0.3463 0.8444 'International Tables Vol C Tables 4.2.6.8 and 6.1.1.4'
O O 0.0106 0.0060 'International Tables Vol C Tables 4.2.6.8 and 6.1.1.4'
loop_
_geom_angle_atom_site_label_1
_geom_angle_atom_site_label_2
_geom_angle_atom_site_label_3
_geom_angle
C3 Fe1 C2 40.96(9)
C3 Fe1 C6 68.40(10)
C3 Fe1 C17 108.08(10)
C3 Fe1 C20 161.53(10)
C3 Fe1 C18 121.09(10)
C3 Fe1 C4 40.82(10)
C3 Fe1 C19 156.35(11)
C3 Fe1 C16 125.06(10)
C3 Fe1 C5 68.62(10)
C6 Fe1 C2 40.85(10)
C6 Fe1 C17 163.54(11)
C17 Fe1 C2 126.03(10)
C20 Fe1 C2 155.61(10)
C20 Fe1 C6 120.11(10)
C20 Fe1 C17 68.43(10)
C20 Fe1 C18 68.91(10)
C20 Fe1 C4 123.91(11)
C20 Fe1 C16 40.56(10)
C20 Fe1 C5 106.28(11)
C18 Fe1 C2 108.12(10)
C18 Fe1 C6 126.21(10)
C18 Fe1 C17 40.66(10)
C4 Fe1 C2 69.09(10)
C4 Fe1 C6 68.55(10)
C4 Fe1 C17 120.05(10)
C4 Fe1 C18 155.49(10)
C4 Fe1 C16 106.40(11)
C19 Fe1 C2 120.96(10)
C19 Fe1 C6 108.10(10)
C19 Fe1 C17 68.28(10)
C19 Fe1 C20 40.91(11)
C19 Fe1 C18 40.82(10)
C19 Fe1 C4 161.69(11)
C19 Fe1 C16 68.43(11)
C19 Fe1 C5 124.99(10)
C16 Fe1 C2 162.85(10)
C16 Fe1 C6 154.48(11)
C16 Fe1 C17 40.75(10)
C16 Fe1 C18 68.72(10)
C5 Fe1 C2 69.08(10)
C5 Fe1 C6 40.80(10)
C5 Fe1 C17 154.50(11)
C5 Fe1 C18 162.86(10)
C5 Fe1 C4 40.80(10)
C5 Fe1 C16 119.03(11)
C12 O13 H13 109.5
C3 C2 Fe1 69.05(14)
C3 C2 C7 125.6(2)
C6 C2 Fe1 69.44(14)
C6 C2 C3 106.8(2)
C6 C2 C7 127.5(2)
C7 C2 Fe1 129.90(17)
Fe1 C3 H3 126.3
C2 C3 Fe1 69.99(14)
C2 C3 H3 125.6
C4 C3 Fe1 69.73(14)
C4 C3 C2 108.8(2)
C4 C3 H3 125.6
Fe1 C6 H6 126.9
C2 C6 Fe1 69.70(13)
C2 C6 H6 125.7
C5 C6 Fe1 69.34(14)
C5 C6 C2 108.7(2)
C5 C6 H6 125.7
Fe1 C17 H17 126.7
C18 C17 Fe1 69.53(13)
C18 C17 H17 125.8
C18 C17 C16 108.3(2)
C16 C17 Fe1 69.48(14)
C16 C17 H17 125.8
Fe1 C20 H20 126.1
C19 C20 Fe1 69.54(15)
C19 C20 H20 126.1
C16 C20 Fe1 69.87(15)
C16 C20 H20 126.1
C16 C20 C19 107.8(2)
Fe1 C18 H18 126.1
C17 C18 Fe1 69.81(14)
C17 C18 H18 126.3
C17 C18 C19 107.4(2)
C19 C18 Fe1 69.42(14)
C19 C18 H18 126.3
Fe1 C4 H4 126.5
C3 C4 Fe1 69.45(14)
C3 C4 H4 126.1
C3 C4 C5 107.8(2)
C5 C4 Fe1 69.54(14)
C5 C4 H4 126.1
O14 C12 O13 124.1(2)
O14 C12 C11 122.5(2)
O13 C12 C11 113.3(2)
Fe1 C19 H19 126.4
C20 C19 Fe1 69.55(14)
C20 C19 H19 125.8
C18 C19 Fe1 69.76(14)
C18 C19 C20 108.3(2)
C18 C19 H19 125.8
C2 C7 H7A 108.5
C2 C7 H7B 108.5
C2 C7 C8 115.0(2)
H7A C7 H7B 107.5
C8 C7 H7A 108.5
C8 C7 H7B 108.5
Fe1 C16 H16 126.3
C17 C16 Fe1 69.78(14)
C17 C16 H16 126.0
C20 C16 Fe1 69.56(14)
C20 C16 C17 108.1(2)
C20 C16 H16 126.0
O15 C9 C10 121.3(2)
O15 C9 C8 122.3(2)
C8 C9 C10 116.4(2)
C9 C10 H10A 108.9
C9 C10 H10B 108.9
C9 C10 C11 113.2(2)
H10A C10 H10B 107.8
C11 C10 H10A 108.9
C11 C10 H10B 108.9
Fe1 C5 H5 126.0
C6 C5 Fe1 69.86(14)
C6 C5 H5 126.0
C4 C5 Fe1 69.66(14)
C4 C5 C6 107.9(2)
C4 C5 H5 126.0
C12 C11 C10 113.4(2)
C12 C11 H11A 108.9
C12 C11 H11B 108.9
C10 C11 H11A 108.9
C10 C11 H11B 108.9
H11A C11 H11B 107.7
C7 C8 H8A 108.9
C7 C8 H8B 108.9
C9 C8 C7 113.4(2)
C9 C8 H8A 108.9
C9 C8 H8B 108.9
H8A C8 H8B 107.7
loop_
_geom_bond_atom_site_label_1
_geom_bond_atom_site_label_2
_geom_bond_distance
Fe1 C2 2.046(2)
Fe1 C3 2.033(2)
Fe1 C6 2.042(2)
Fe1 C17 2.043(2)
Fe1 C20 2.035(3)
Fe1 C18 2.039(2)
Fe1 C4 2.037(2)
Fe1 C19 2.035(2)
Fe1 C16 2.039(3)
Fe1 C5 2.036(2)
O14 C12 1.217(3)
O13 H13 0.8200
O13 C12 1.313(3)
O15 C9 1.213(3)
C2 C3 1.427(3)
C2 C6 1.427(3)
C2 C7 1.501(3)
C3 H3 0.9300
C3 C4 1.419(4)
C6 H6 0.9300
C6 C5 1.421(4)
C17 H17 0.9300
C17 C18 1.418(3)
C17 C16 1.421(4)
C20 H20 0.9300
C20 C19 1.422(4)
C20 C16 1.412(4)
C18 H18 0.9300
C18 C19 1.421(4)
C4 H4 0.9300
C4 C5 1.420(4)
C12 C11 1.496(3)
C19 H19 0.9300
C7 H7A 0.9700
C7 H7B 0.9700
C7 C8 1.516(3)
C16 H16 0.9300
C9 C10 1.511(3)
C9 C8 1.498(4)
C10 H10A 0.9700
C10 H10B 0.9700
C10 C11 1.515(3)
C5 H5 0.9300
C11 H11A 0.9700
C11 H11B 0.9700
C8 H8A 0.9700
C8 H8B 0.9700
loop_
_geom_torsion_atom_site_label_1
_geom_torsion_atom_site_label_2
_geom_torsion_atom_site_label_3
_geom_torsion_atom_site_label_4
_geom_torsion
Fe1 C2 C3 C4 59.08(17)
Fe1 C2 C6 C5 -58.53(18)
Fe1 C2 C7 C8 -66.5(3)
Fe1 C3 C4 C5 59.19(18)
Fe1 C6 C5 C4 -59.48(18)
Fe1 C17 C18 C19 59.46(17)
Fe1 C17 C16 C20 -59.23(17)
Fe1 C20 C19 C18 -59.17(18)
Fe1 C20 C16 C17 59.36(18)
Fe1 C18 C19 C20 59.04(18)
Fe1 C4 C5 C6 59.60(18)
O14 C12 C11 C10 -15.6(4)
O13 C12 C11 C10 167.0(2)
O15 C9 C10 C11 -1.9(3)
O15 C9 C8 C7 -3.5(4)
C2 C3 C4 Fe1 -59.24(17)
C2 C3 C4 C5 -0.1(3)
C2 C6 C5 Fe1 58.76(18)
C2 C6 C5 C4 -0.7(3)
C2 C7 C8 C9 -174.3(2)
C3 C2 C6 Fe1 59.22(16)
C3 C2 C6 C5 0.7(3)
C3 C2 C7 C8 -157.9(2)
C3 C4 C5 Fe1 -59.13(17)
C3 C4 C5 C6 0.5(3)
C6 C2 C3 Fe1 -59.47(17)
C6 C2 C3 C4 -0.4(3)
C6 C2 C7 C8 27.2(4)
C17 C18 C19 Fe1 -59.71(17)
C17 C18 C19 C20 -0.7(3)
C18 C17 C16 Fe1 58.85(17)
C18 C17 C16 C20 -0.4(3)
C19 C20 C16 Fe1 -59.40(18)
C19 C20 C16 C17 0.0(3)
C7 C2 C3 Fe1 124.8(2)
C7 C2 C3 C4 -176.1(2)
C7 C2 C6 Fe1 -125.2(3)
C7 C2 C6 C5 176.3(2)
C16 C17 C18 Fe1 -58.82(17)
C16 C17 C18 C19 0.6(3)
C16 C20 C19 Fe1 59.61(18)
C16 C20 C19 C18 0.4(3)
C9 C10 C11 C12 154.4(2)
C10 C9 C8 C7 175.0(2)
C8 C9 C10 C11 179.6(2)
