#------------------------------------------------------------------------------
#$Date: 2019-11-12 04:19:33 +0200 (Tue, 12 Nov 2019) $
#$Revision: 227529 $
#$URL: file:///home/coder/svn-repositories/cod/cif/4/03/34/4033449.cif $
#------------------------------------------------------------------------------
#
# This file is available in the Crystallography Open Database (COD),
# http://www.crystallography.net/
#
# All data on this site have been placed in the public domain by the
# contributors.
#
data_4033449
loop_
_publ_author_name
'Shukla, Gaurav'
'Srivastava, Abhijeet'
'Yadav, Dhananjay'
'Singh, Maya Shankar'
_publ_section_title
;
 Copper-Catalyzed One-Pot Cross-Dehydrogenative Thienannulation:
 Chemoselective Access to Naphtho[2,1-b]thiophene-4,5-diones and
 Subsequent Transformation to Benzo[a]thieno[3,2-c]phenazines.
;
_journal_issue                   4
_journal_name_full               'The Journal of organic chemistry'
_journal_page_first              2173
_journal_page_last               2181
_journal_paper_doi               10.1021/acs.joc.7b03092
_journal_volume                  83
_journal_year                    2018
_chemical_formula_moiety         'C20 H14 O4 S2'
_chemical_formula_sum            'C20 H14 O4 S2'
_chemical_formula_weight         382.43
_space_group_crystal_system      triclinic
_space_group_IT_number           2
_space_group_name_Hall           '-P 1'
_space_group_name_H-M_alt        'P -1'
_symmetry_space_group_name_Hall  '-P 1'
_symmetry_space_group_name_H-M   'P -1'
_atom_sites_solution_hydrogens   geom
_audit_creation_method           SHELXL-2016/6
_cell_angle_alpha                94.382(5)
_cell_angle_beta                 96.169(5)
_cell_angle_gamma                111.538(5)
_cell_formula_units_Z            2
_cell_length_a                   8.198(5)
_cell_length_b                   8.834(5)
_cell_length_c                   12.549(5)
_cell_measurement_reflns_used    3092
_cell_measurement_temperature    100(2)
_cell_measurement_theta_max      25.498
_cell_measurement_theta_min      2.498
_cell_volume                     833.8(8)
_computing_cell_refinement       'Bruker SMART'
_computing_data_collection       'Bruker SMART APEX'
_computing_data_reduction        'Bruker SAINT PLUS'
_computing_molecular_graphics    'Ortep-3 for Windows (Farrugia, 1997)'
_computing_publication_material  'WinGX publication routines (Farrugia, 1999)'
_computing_structure_refinement  'SHELXL-2016/6 (Sheldrick, 2016)'
_computing_structure_solution    'SIR97(Altomare, et. al. 1999)'
_diffrn_ambient_temperature      100(2)
_diffrn_measured_fraction_theta_full 0.998
_diffrn_measured_fraction_theta_max 0.998
_diffrn_measurement_device_type  'CCD area detector'
_diffrn_measurement_method       'phi and omega scans'
_diffrn_radiation_type           MoK\a
_diffrn_radiation_wavelength     0.71069
_diffrn_reflns_av_R_equivalents  0.0391
_diffrn_reflns_av_unetI/netI     0.0366
_diffrn_reflns_Laue_measured_fraction_full 0.998
_diffrn_reflns_Laue_measured_fraction_max 0.998
_diffrn_reflns_limit_h_max       9
_diffrn_reflns_limit_h_min       -9
_diffrn_reflns_limit_k_max       10
_diffrn_reflns_limit_k_min       -10
_diffrn_reflns_limit_l_max       15
_diffrn_reflns_limit_l_min       -15
_diffrn_reflns_number            10527
_diffrn_reflns_point_group_measured_fraction_full 0.998
_diffrn_reflns_point_group_measured_fraction_max 0.998
_diffrn_reflns_theta_full        25.240
_diffrn_reflns_theta_max         25.498
_diffrn_reflns_theta_min         2.498
_diffrn_source                   'fine-focus sealed tube'
_exptl_absorpt_coefficient_mu    0.344
_exptl_absorpt_correction_T_max  0.997
_exptl_absorpt_correction_T_min  0.814
_exptl_absorpt_correction_type   empirical
_exptl_absorpt_process_details   SADABS
_exptl_crystal_colour            white
_exptl_crystal_density_diffrn    1.523
_exptl_crystal_density_method    'not measured'
_exptl_crystal_description       block
_exptl_crystal_F_000             396
_exptl_crystal_size_max          0.60
_exptl_crystal_size_mid          0.50
_exptl_crystal_size_min          0.01
_refine_diff_density_max         0.328
_refine_diff_density_min         -0.332
_refine_diff_density_rms         0.057
_refine_ls_extinction_coef       0.025(2)
_refine_ls_extinction_expression Fc^*^=kFc[1+0.001xFc^2^\l^3^/sin(2\q)]^-1/4^
_refine_ls_extinction_method     'SHELXL-2016/6 (Sheldrick 2016)'
_refine_ls_goodness_of_fit_ref   1.052
_refine_ls_hydrogen_treatment    constr
_refine_ls_matrix_type           full
_refine_ls_number_parameters     237
_refine_ls_number_reflns         3092
_refine_ls_number_restraints     0
_refine_ls_restrained_S_all      1.052
_refine_ls_R_factor_all          0.0428
_refine_ls_R_factor_gt           0.0344
_refine_ls_shift/su_max          0.000
_refine_ls_shift/su_mean         0.000
_refine_ls_structure_factor_coef Fsqd
_refine_ls_weighting_details
'w=1/[\s^2^(Fo^2^)+(0.0415P)^2^+0.5132P] where P=(Fo^2^+2Fc^2^)/3'
_refine_ls_weighting_scheme      calc
_refine_ls_wR_factor_gt          0.0854
_refine_ls_wR_factor_ref         0.0899
_reflns_Friedel_coverage         0.000
_reflns_number_gt                2667
_reflns_number_total             3092
_reflns_threshold_expression     'I > 2\s(I)'
_cod_data_source_file            jo7b03092_si_002.cif
_cod_data_source_block           shelx
_cod_depositor_comments          'Adding full bibliography for 4033449.cif.'
_cod_database_code               4033449
_shelx_shelxl_version_number     2016/6
_shelx_space_group_comment
;
The symmetry employed for this shelxl refinement is uniquely defined
by the following loop, which should always be used as a source of
symmetry information in preference to the above space-group names.
They are only intended as comments.
;
_shelx_estimated_absorpt_t_min   0.814
_shelx_estimated_absorpt_t_max   0.997
_shelx_res_file
;
TITL 14sepa_0m in P -1
    shelx.res
    created by SHELXL-2016/6 at 11:40:55 on 02-Mar-2017
CELL  0.71069   8.1980   8.8340  12.5490   94.382   96.169  111.538
ZERR     2.00   0.0050   0.0050   0.0050    0.005    0.005    0.005
LATT   1
SFAC  C    H    O    S
UNIT  40 28 8 4
MERG   2
OMIT    -3.00  51.00
FMAP   2
PLAN    5
ACTA
LIST   1
L.S.   4
TEMP    20.00
WGHT    0.041500    0.513200
EXTI    0.025222
FVAR       0.21312
S1    4    0.747164    0.460931    0.067494    11.00000    0.01792    0.01574 =
         0.01618    0.00431    0.00489    0.00435
S2    4    0.822499    0.417794    0.298756    11.00000    0.01744    0.01913 =
         0.01615    0.00310    0.00073    0.00209
O2    3    0.308748    0.256783   -0.279505    11.00000    0.03247    0.02589 =
         0.01406    0.00343    0.00309    0.01487
O4    3    0.417117    0.074712    0.412335    11.00000    0.03470    0.01687 =
         0.01321    0.00494    0.00900    0.01040
O1    3    0.629216    0.465659   -0.166277    11.00000    0.02515    0.02123 =
         0.02064    0.01022    0.00937    0.00957
O3    3    0.450358   -0.042874    0.214481    11.00000    0.02693    0.01523 =
         0.01960    0.00468    0.00857    0.01051
C5    1    0.530402    0.216572    0.147422    11.00000    0.01532    0.01387 =
         0.01470    0.00076    0.00423    0.00705
C12   1    0.561958    0.325909   -0.014891    11.00000    0.01424    0.01449 =
         0.01582    0.00085    0.00307    0.00669
C7    1    0.436175    0.170550    0.329829    11.00000    0.01546    0.01505 =
         0.01396    0.00533    0.00357    0.00313
C16   1    0.295275    0.073689   -0.027637    11.00000    0.01568    0.01598 =
         0.01630    0.00153    0.00539    0.00905
C18   1    0.039343   -0.180815   -0.050725    11.00000    0.01758    0.01563 =
         0.03156    0.00387    0.00737    0.00615
AFIX  43
H18   2   -0.029144   -0.273498   -0.022142    11.00000   -1.20000
AFIX   0
C13   1    0.528790    0.353858   -0.125053    11.00000    0.02047    0.01650 =
         0.01726    0.00408    0.00827    0.01258
C6    1    0.468958    0.101465    0.229375    11.00000    0.01290    0.01784 =
         0.01338    0.00157    0.00199    0.00664
C9    1    0.371566    0.299986    0.467919    11.00000    0.02097    0.01796 =
         0.01772   -0.00192    0.00693    0.00514
AFIX  43
H9    2    0.345801    0.376451    0.510862    11.00000   -1.20000
AFIX   0
C4    1    0.687362    0.353853    0.174938    11.00000    0.01764    0.01610 =
         0.01419    0.00405    0.00591    0.00768
C11   1    0.457823    0.199553    0.035707    11.00000    0.01656    0.01390 =
         0.01356    0.00230    0.00618    0.00930
C14   1    0.353047    0.233847   -0.188344    11.00000    0.02357    0.01901 =
         0.01511    0.00166    0.00717    0.01490
C15   1    0.244516    0.093920   -0.135630    11.00000    0.01790    0.01709 =
         0.01813    0.00169    0.00613    0.00991
C19   1   -0.009706   -0.159740   -0.155513    11.00000    0.01612    0.02092 =
         0.02849   -0.00435    0.00003    0.00656
AFIX  43
H19   2   -0.110442   -0.237387   -0.197442    11.00000   -1.20000
AFIX   0
C17   1    0.189079   -0.065977    0.012536    11.00000    0.01799    0.01848 =
         0.01874    0.00431    0.00507    0.00856
AFIX  43
H17   2    0.219112   -0.082547    0.083069    11.00000   -1.20000
AFIX   0
C10   1    0.379464    0.158059    0.495481    11.00000    0.03165    0.02146 =
         0.01255    0.00046    0.00916    0.00601
AFIX  43
H10   2    0.361507    0.121979    0.562554    11.00000   -1.20000
AFIX   0
C1    1    1.092135    0.738792    0.452623    11.00000    0.03037    0.03037 =
         0.02273    0.00249   -0.00153   -0.00024
AFIX 137
H1A   2    1.056607    0.820768    0.422857    11.00000   -1.50000
H1B   2    1.187311    0.789985    0.511271    11.00000   -1.50000
H1C   2    0.993415    0.660353    0.478664    11.00000   -1.50000
AFIX   0
C8    1    0.410112    0.309824    0.360974    11.00000    0.01554    0.01481 =
         0.01636    0.00155    0.00107    0.00459
AFIX  43
H8    2    0.416405    0.394688    0.320026    11.00000   -1.20000
AFIX   0
C2    1    1.153715    0.652532    0.366060    11.00000    0.01724    0.02502 =
         0.03366    0.00799   -0.00112    0.00155
AFIX  23
H2A   2    1.182227    0.565420    0.395561    11.00000   -1.20000
H2B   2    1.261322    0.730067    0.346026    11.00000   -1.20000
AFIX   0
C20   1    0.092816   -0.021825   -0.197230    11.00000    0.02256    0.02440 =
         0.01709   -0.00095    0.00041    0.01266
AFIX  43
H20   2    0.059870   -0.006200   -0.267524    11.00000   -1.20000
AFIX   0
C3    1    1.016865    0.579772    0.265187    11.00000    0.01569    0.02161 =
         0.02501    0.00397    0.00512    0.00312
AFIX  23
H3A   2    1.067258    0.535220    0.210198    11.00000   -1.20000
H3B   2    0.982850    0.664695    0.236765    11.00000   -1.20000
AFIX   0
HKLF    4




REM  14sepa_0m in P -1
REM R1 =  0.0344 for    2667 Fo > 4sig(Fo)  and  0.0428 for all    3092 data
REM    237 parameters refined using      0 restraints

END

WGHT      0.0414      0.5139

REM Highest difference peak  0.328,  deepest hole -0.332,  1-sigma level  0.057
Q1    1   0.6349  0.4035  0.0200  11.00000  0.05    0.33
Q2    1   0.6942  0.4009  0.1209  11.00000  0.05    0.32
Q3    1   0.8076  0.5208  0.3387  11.00000  0.05    0.27
Q4    1   0.7179  0.4009  0.2455  11.00000  0.05    0.27
Q5    1   1.0668  0.6219  0.3251  11.00000  0.05    0.25
;
_shelx_res_checksum              62675
_shelx_hkl_file
;
  -1   0   0  101.67    4.59
  -1   0   0  114.85    4.57
  -2   0   0   11.29    0.51
  -2   0   0   10.83    0.57
  -2   0   0   11.67    0.52
   2   0   0   11.27    0.52
   2   0   0   10.98    0.58
   2   0   0   11.46    0.50
  -3   0   0    0.46    0.08
  -3   0   0    0.62    0.17
  -3   0   0    0.34    0.07
   3   0   0    0.44    0.08
   3   0   0    0.15    0.16
   3   0   0    0.36    0.05
  -4   0   0    6.76    0.36
  -4   0   0    6.39    0.49
  -4   0   0    6.68    0.37
   4   0   0    7.42    0.33
   4   0   0    6.21    0.38
  -5   0   0   14.12    0.68
  -5   0   0   12.95    0.87
   5   0   0   13.40    0.72
   5   0   0   14.59    0.64
  -6   0   0    0.43    0.30
  -6   0   0    0.21    0.16
   6   0   0    0.19    0.17
   6   0   0    0.14    0.12
  -7   0   0    3.92    0.41
  -7   0   0    5.04    0.65
   7   0   0    5.07    0.46
  -8   0   0    1.60    0.57
   8   0   0    1.01    0.35
  -9   0   0   -0.24    0.70
   9   0   0   -0.62    0.57
   9   0   0    0.86    0.43
 -10   0   0    1.58    0.85
  10   0   0    1.75    0.61
  10   0   0    1.34    0.84
  10  -1   0    5.53    0.73
  10  -1   0    6.42    1.00
 -10   1   0    5.61    1.05
   9  -1   0    4.15    0.56
  -9   1   0    4.42    0.72
   8  -1   0    3.38    0.45
  -8   1   0    3.36    0.60
   7  -1   0    5.06    0.34
   7  -1   0    5.59    0.50
  -7   1   0    6.42    0.40
  -7   1   0    5.93    0.71
   6  -1   0    2.79    0.21
   6  -1   0    2.63    0.31
  -6   1   0    2.26    0.43
  -6   1   0    2.87    0.25
   5  -1   0   12.23    0.69
   5  -1   0   13.37    0.60
  -5   1   0   13.74    0.61
  -5   1   0   11.67    0.78
   4  -1   0    6.54    0.31
   4  -1   0    5.42    0.37
   4  -1   0    6.56    0.47
  -4   1   0    6.32    0.31
  -4   1   0    6.11    0.45
  -4   1   0    6.64    0.36
   3  -1   0    1.31    0.10
   3  -1   0    1.33    0.20
   3  -1   0    1.14    0.15
  -3   1   0    1.38    0.14
  -3   1   0    1.24    0.21
  -3   1   0    1.42    0.09
   2  -1   0   32.83    1.40
   2  -1   0   33.18    1.43
   2  -1   0   33.42    1.45
  -2   1   0   31.85    1.42
  -2   1   0   31.83    1.45
  -2   1   0   33.13    1.39
   1  -1   0   17.30    0.84
   1  -1   0   18.71    0.84
   1  -1   0   19.84    0.84
  -1   1   0   19.84    0.85
  -1   1   0   19.75    0.84
   0  -1   0    4.56    0.21
   0  -1   0    4.60    0.21
   0  -1   0    3.80    0.22
   0   1   0    4.86    0.21
  -1  -1   0   26.07    1.16
  -1  -1   0   26.22    1.18
  -1  -1   0   26.65    1.20
   1   1   0   26.97    1.20
   1   1   0   27.24    1.16
   1   1   0   26.93    1.16
   1   1   0   27.83    1.18
  -2  -1   0  435.10   18.00
  -2  -1   0  431.37   17.94
  -2  -1   0  415.97   17.91
   2   1   0  396.13   17.91
   2   1   0  442.01   17.93
   2   1   0  413.31   17.91
   2   1   0  450.61   17.99
  -3  -1   0    6.04    0.33
  -3  -1   0    5.84    0.35
   3   1   0    5.90    0.44
   3   1   0    6.37    0.32
   3   1   0    5.70    0.32
   3   1   0    6.01    0.32
  -4  -1   0    2.66    0.23
  -4  -1   0    2.39    0.25
  -4  -1   0    2.47    0.34
   4   1   0    2.46    0.22
   4   1   0    2.88    0.20
   4   1   0    3.05    0.24
  -5  -1   0    2.46    0.28
  -5  -1   0    2.14    0.36
   5   1   0    2.44    0.21
   5   1   0    2.18    0.25
  -6  -1   0    4.21    0.58
   6   1   0    4.03    0.38
   6   1   0    5.20    0.32
  -7  -1   0    5.65    0.76
  -7  -1   0    4.01    0.48
   7   1   0    4.69    0.47
  -8  -1   0    1.47    0.66
   8   1   0    1.22    0.61
  -9  -1   0    3.47    0.86
   9   1   0    4.47    0.81
   9   1   0    4.65    0.57
  10  -2   0    1.65    0.69
 -10   2   0    2.15    0.89
   9  -2   0   -0.38    0.38
  -9   2   0    0.76    0.54
   8  -2   0    5.01    0.57
  -8   2   0    6.02    0.80
  -8   2   0    6.07    0.43
   7  -2   0    3.77    0.46
   7  -2   0    4.00    0.33
  -7   2   0    4.47    0.32
  -7   2   0    3.67    0.56
   6  -2   0   24.31    1.08
   6  -2   0   22.44    1.18
  -6   2   0   25.14    1.07
  -6   2   0   22.48    1.31
   5  -2   0   17.86    0.81
   5  -2   0   16.70    0.88
  -5   2   0   16.27    0.95
  -5   2   0   18.28    0.78
   4  -2   0    3.06    0.32
   4  -2   0    3.12    0.27
   4  -2   0    3.59    0.23
  -4   2   0    3.58    0.19
  -4   2   0    3.43    0.28
   3  -2   0   26.91    1.22
   3  -2   0   26.07    1.23
   3  -2   0   26.63    1.19
  -3   2   0   26.66    1.21
  -3   2   0   27.80    1.17
  -3   2   0   26.78    1.25
   2  -2   0  157.38    6.67
   2  -2   0  154.01    6.66
   2  -2   0  159.36    6.65
  -2   2   0  162.25    6.67
  -2   2   0  151.90    6.65
  -2   2   0  159.36    6.66
   1  -2   0  312.23   13.41
   1  -2   0  312.18   13.37
  -1   2   0  327.79   13.41
  -1   2   0  319.14   13.38
  -1   2   0  321.46   13.42
   0  -2   0    0.69    0.11
   0  -2   0    0.70    0.11
   0  -2   0    0.80    0.08
   0   2   0    0.58    0.10
   0   2   0    0.79    0.08
   0   2   0    0.88    0.12
   0   2   0    0.79    0.09
  -1  -2   0   93.89    4.08
  -1  -2   0   90.53    4.03
  -1  -2   0   93.96    4.07
   1   2   0   92.21    4.07
   1   2   0   97.98    4.08
   1   2   0   98.88    4.09
   1   2   0   93.87    4.03
   1   2   0   99.66    4.08
  -2  -2   0   21.09    1.02
  -2  -2   0   21.74    1.06
  -2  -2   0   20.83    0.97
   2   2   0   23.43    1.02
   2   2   0   22.46    0.98
   2   2   0   21.31    0.97
   2   2   0   21.99    1.07
  -3  -2   0    9.28    0.52
  -3  -2   0    8.92    0.58
   3   2   0    7.82    0.61
   3   2   0    9.27    0.48
   3   2   0    7.59    0.47
   3   2   0    9.67    0.47
  -4  -2   0   40.51    2.03
  -4  -2   0   43.25    1.94
   4   2   0   40.56    1.87
   4   2   0   45.01    1.89
  -5  -2   0    0.65    0.20
  -5  -2   0    0.93    0.34
   5   2   0    0.25    0.13
   5   2   0    0.79    0.17
  -6  -2   0   -0.29    0.40
  -6  -2   0    0.74    0.25
   6   2   0   -0.24    0.21
   6   2   0   -0.18    0.33
   6   2   0   -0.11    0.17
  -7  -2   0    3.65    0.69
  -7  -2   0    3.39    0.43
   7   2   0    3.93    0.68
   7   2   0    3.29    0.40
   7   2   0    3.70    0.46
  -8  -2   0    0.30    0.66
   8   2   0   -0.04    0.32
   8   2   0    0.80    0.65
  -9  -2   0    4.53    1.04
   9   2   0    5.20    0.61
   9   2   0    3.94    0.90
  10  -3   0   13.69    1.10
 -10   3   0   12.94    1.31
   9  -3   0    0.58    0.44
  -9   3   0   -0.30    0.54
   8  -3   0   18.71    1.11
  -8   3   0   18.30    1.28
   7  -3   0    2.60    0.34
   7  -3   0    2.35    0.36
  -7   3   0    3.04    0.23
  -7   3   0    3.06    0.49
   6  -3   0    3.00    0.30
   6  -3   0    3.14    0.34
  -6   3   0    2.70    0.41
  -6   3   0    2.92    0.20
   5  -3   0    1.77    0.27
   5  -3   0    1.81    0.22
  -5   3   0    1.78    0.29
  -5   3   0    1.84    0.15
   4  -3   0    7.17    0.42
   4  -3   0    7.49    0.46
   4  -3   0    6.59    0.45
  -4   3   0    6.99    0.44
  -4   3   0    7.62    0.38
  -4   3   0    7.02    0.48
   3  -3   0    1.50    0.19
   3  -3   0    1.72    0.18
   3  -3   0    1.81    0.19
  -3   3   0    1.85    0.21
  -3   3   0    1.60    0.17
  -3   3   0    1.66    0.20
   2  -3   0    0.22    0.10
   2  -3   0    0.17    0.11
   2  -3   0    0.33    0.06
  -2   3   0    0.21    0.09
  -2   3   0    0.40    0.11
  -2   3   0    0.28    0.07
   1  -3   0  152.97    6.31
   1  -3   0  141.86    6.22
   1  -3   0  143.93    6.27
  -1   3   0  148.60    6.28
  -1   3   0  149.16    6.31
  -1   3   0  157.14    6.32
  -1   3   0  141.51    6.21
   0  -3   0    2.08    0.15
   0  -3   0    2.15    0.22
   0  -3   0    1.75    0.21
   0   3   0    2.08    0.22
   0   3   0    1.76    0.17
   0   3   0    1.90    0.16
   0   3   0    1.83    0.15
   0   3   0    1.41    0.19
  -1  -3   0   68.31    3.06
  -1  -3   0   69.37    3.04
  -1  -3   0   69.63    3.00
   1   3   0   69.59    3.01
   1   3   0   70.14    3.04
   1   3   0   68.94    3.06
   1   3   0   72.76    3.08
   1   3   0   70.88    3.05
  -2  -3   0    4.98    0.39
   2   3   0    4.53    0.42
   2   3   0    5.65    0.39
   2   3   0    4.91    0.31
   2   3   0    4.63    0.39
  -3  -3   0   20.52    1.11
  -3  -3   0   20.55    0.98
  -3  -3   0   20.78    1.05
   3   3   0   21.11    0.98
   3   3   0   22.67    1.04
   3   3   0   21.32    1.06
   3   3   0   20.82    1.11
  -4  -3   0   30.31    1.49
  -4  -3   0   30.85    1.59
   4   3   0   29.83    1.57
   4   3   0   31.77    1.41
   4   3   0   31.36    1.48
  -5  -3   0   14.12    0.93
  -5  -3   0   12.96    0.79
   5   3   0   12.05    0.89
   5   3   0   12.89    0.78
   5   3   0   13.46    0.70
  -6  -3   0    8.62    0.67
  -6  -3   0    9.23    0.84
   6   3   0    8.11    0.55
   6   3   0    8.97    0.87
   6   3   0    8.42    0.68
  -7  -3   0    8.49    1.04
  -7  -3   0    5.90    0.72
   7   3   0    6.23    0.68
   7   3   0    7.83    0.99
   7   3   0    6.87    0.56
  -8  -3   0    0.42    0.75
   8   3   0    2.12    0.45
   8   3   0    3.10    0.85
  10  -4   0    5.57    0.73
 -10   4   0    5.17    0.92
   9  -4   0    4.50    0.59
  -9   4   0    6.23    0.82
   8  -4   0   26.90    1.42
  -8   4   0   25.59    1.19
  -8   4   0   27.06    1.57
   7  -4   0   18.82    0.99
   7  -4   0   19.24    1.08
  -7   4   0   18.54    0.87
  -7   4   0   19.98    1.18
   6  -4   0    0.70    0.21
   6  -4   0    0.33    0.22
  -6   4   0    0.55    0.27
  -6   4   0    0.46    0.10
   5  -4   0   10.05    0.64
   5  -4   0   11.06    0.62
   5  -4   0   10.77    0.64
  -5   4   0   10.07    0.55
  -5   4   0   11.05    0.66
   4  -4   0    0.12    0.17
   4  -4   0   -0.14    0.12
   4  -4   0    0.11    0.14
  -4   4   0    0.04    0.15
   3  -4   0    1.33    0.14
   3  -4   0    1.16    0.20
   3  -4   0    0.92    0.17
  -3   4   0    1.08    0.20
  -3   4   0    1.04    0.18
   2  -4   0    6.44    0.42
   2  -4   0    6.35    0.29
   2  -4   0    5.11    0.37
  -2   4   0    6.15    0.31
  -2   4   0    6.34    0.45
  -2   4   0    6.25    0.39
   1  -4   0   49.85    2.22
   1  -4   0   50.27    2.16
   1  -4   0   50.57    2.27
  -1   4   0   51.54    2.28
  -1   4   0   49.72    2.13
  -1   4   0   52.40    2.16
  -1   4   0   45.40    2.25
  -1   4   0   52.77    2.23
   0   4   0   -0.21    0.10
   0   4   0    0.01    0.12
   0   4   0   -0.03    0.17
   0   4   0   -0.01    0.14
   0   4   0   -0.11    0.07
  -1  -4   0   51.92    2.31
  -1  -4   0   50.59    2.39
  -1  -4   0   55.41    2.35
   1   4   0   49.21    2.39
   1   4   0   52.21    2.35
   1   4   0   52.32    2.34
   1   4   0   58.22    2.49
   1   4   0   53.92    2.33
  -2  -4   0    2.47    0.32
  -2  -4   0    2.74    0.35
  -2  -4   0    2.85    0.23
   2   4   0    2.73    0.32
   2   4   0    3.39    0.40
   2   4   0    2.55    0.31
  -3  -4   0   31.58    1.44
  -3  -4   0   31.67    1.55
  -3  -4   0   31.33    1.57
   3   4   0   31.77    1.55
   3   4   0   32.80    1.58
   3   4   0   31.85    1.44
  -4  -4   0    0.74    0.29
  -4  -4   0    1.04    0.34
   4   4   0    0.57    0.26
   4   4   0    0.98    0.17
   4   4   0    1.04    0.29
  -5  -4   0    8.64    0.79
  -5  -4   0    9.14    0.69
   5   4   0    9.61    0.81
   5   4   0    9.47    0.56
   5   4   0    9.19    0.68
  -6  -4   0   27.07    1.58
  -6  -4   0   27.44    1.43
   6   4   0   23.89    1.39
   6   4   0   26.83    1.61
   6   4   0   26.37    1.30
  -7  -4   0   -0.13    0.57
   7   4   0    0.30    0.30
   7   4   0    0.97    0.65
  -8  -4   0    0.45    0.84
   8   4   0    0.55    0.43
   8   4   0    0.01    0.82
  10  -5   0    4.77    0.69
 -10   5   0    4.61    0.82
   9  -5   0    1.65    0.48
  -9   5   0    1.42    0.59
   8  -5   0    4.65    0.64
  -8   5   0    4.37    0.31
  -8   5   0    3.64    0.59
   7  -5   0    6.07    0.60
  -7   5   0    6.67    0.67
  -7   5   0    5.85    0.37
   6  -5   0    3.28    0.39
  -6   5   0    3.04    0.27
  -6   5   0    2.82    0.39
   5  -5   0    7.14    0.53
   5  -5   0    9.30    0.51
  -5   5   0    7.65    0.48
  -5   5   0    7.43    0.54
   4  -5   0   26.35    1.10
   4  -5   0   21.77    1.19
  -4   5   0   26.34    1.17
  -4   5   0   22.63    1.17
   3  -5   0   12.34    0.55
   3  -5   0   11.44    0.65
  -3   5   0   10.61    0.67
  -3   5   0   12.76    0.60
   2  -5   0    0.88    0.17
   2  -5   0    0.86    0.10
  -2   5   0    0.85    0.10
  -2   5   0    0.71    0.21
   1  -5   0    0.86    0.15
  -1   5   0    1.06    0.14
  -1   5   0    0.91    0.09
  -1   5   0    0.59    0.18
   0  -5   0    0.06    0.09
   0   5   0   -0.01    0.17
   0   5   0    0.04    0.08
   0   5   0   -0.08    0.15
  -1  -5   0   56.06    2.47
   1   5   0   56.28    2.52
   1   5   0   54.49    2.58
   1   5   0   58.51    2.50
  -2  -5   0   17.57    0.86
  -2  -5   0   17.65    0.99
  -2  -5   0   18.12    0.95
   2   5   0   16.80    0.97
   2   5   0   17.68    0.93
  -3  -5   0    6.57    0.59
  -3  -5   0    6.89    0.43
  -3  -5   0    7.31    0.60
   3   5   0    6.73    0.42
   3   5   0    6.32    0.60
   3   5   0    6.38    0.57
  -4  -5   0    6.05    0.59
  -4  -5   0    5.73    0.64
  -4  -5   0    6.01    0.42
   4   5   0    5.59    0.41
   4   5   0    5.26    0.61
   4   5   0    5.42    0.63
  -5  -5   0    6.44    0.72
  -5  -5   0    7.35    0.80
   5   5   0    6.26    0.80
   5   5   0    6.50    0.48
   5   5   0    7.20    0.68
  -6  -5   0   26.38    1.63
   6   5   0   25.50    1.62
   6   5   0   25.27    1.28
   6   5   0   23.42    1.44
  -7  -5   0    2.96    0.81
   7   5   0    2.45    0.77
   7   5   0    3.51    0.46
  10  -6   0    0.50    0.56
 -10   6   0    1.96    0.73
   9  -6   0    7.15    0.76
  -9   6   0    8.29    1.02
   8  -6   0    6.26    0.67
  -8   6   0    6.62    0.79
  -8   6   0    7.23    0.44
   7  -6   0    9.93    0.77
  -7   6   0   10.71    0.83
  -7   6   0   10.16    0.58
   6  -6   0    1.92    0.31
  -6   6   0    1.98    0.37
  -6   6   0    2.43    0.30
   5  -6   0   -0.01    0.19
   5  -6   0   -0.14    0.14
  -5   6   0   -0.06    0.22
  -5   6   0   -0.15    0.18
   4  -6   0    1.52    0.26
   4  -6   0    1.16    0.13
  -4   6   0    1.25    0.20
  -4   6   0    1.14    0.25
   3  -6   0    3.52    0.34
   3  -6   0    3.81    0.22
  -3   6   0    4.07    0.27
  -3   6   0    3.23    0.40
   2  -6   0   29.16    1.29
   2  -6   0   28.45    1.40
  -2   6   0   26.68    1.45
  -2   6   0   31.45    1.28
  -2   6   0   31.10    1.30
   1  -6   0    0.00    0.14
  -1   6   0    0.06    0.19
  -1   6   0    0.06    0.15
  -1   6   0   -0.01    0.05
   0  -6   0    7.09    0.45
   0   6   0    6.99    0.49
   0   6   0    7.30    0.40
   0   6   0    6.99    0.55
  -1  -6   0    7.30    0.46
   1   6   0    7.49    0.58
   1   6   0    6.57    0.57
   1   6   0    6.77    0.46
  -2  -6   0   16.58    0.83
   2   6   0   16.58    0.99
   2   6   0   15.29    0.88
  -3  -6   0   28.10    1.28
   3   6   0   26.18    1.26
   3   6   0   26.27    1.43
   3   6   0   25.43    1.38
  -4  -6   0    1.52    0.27
  -4  -6   0    2.36    0.46
   4   6   0    1.68    0.45
   4   6   0    1.52    0.25
   4   6   0    1.96    0.46
  -5  -6   0    3.35    0.59
   5   6   0    1.41    0.29
   5   6   0    2.08    0.56
   5   6   0    1.30    0.50
   6   6   0    5.50    0.72
   6   6   0    4.93    0.83
   6   6   0    5.20    0.56
  10  -7   0    0.70    0.58
 -10   7   0    1.60    0.82
   9  -7   0   17.44    1.25
  -9   7   0   18.71    1.08
  -9   7   0   17.51    1.30
   8  -7   0    6.04    0.68
  -8   7   0    6.14    0.48
  -8   7   0    6.10    0.70
   7  -7   0    1.06    0.66
  -7   7   0    0.96    0.38
  -7   7   0    0.93    0.25
   6  -7   0    4.12    0.49
  -6   7   0    4.00    0.44
  -6   7   0    4.33    0.50
   5  -7   0    0.20    0.13
   5  -7   0    0.23    0.23
  -5   7   0    0.23    0.20
  -5   7   0    0.50    0.25
   4  -7   0   13.59    0.62
   4  -7   0   12.73    0.80
  -4   7   0   13.80    0.69
  -4   7   0   12.66    0.81
   3  -7   0    9.04    0.60
   3  -7   0    9.70    0.47
  -3   7   0    7.78    0.68
  -3   7   0    9.51    0.47
   2  -7   0    1.56    0.24
  -2   7   0    1.26    0.14
  -2   7   0    1.09    0.16
  -2   7   0    1.19    0.33
   1  -7   0   -0.14    0.16
  -1   7   0    0.65    0.29
  -1   7   0    0.00    0.19
  -1   7   0    0.00    0.07
   0  -7   0    0.25    0.18
   0   7   0    0.46    0.33
   0   7   0    0.43    0.27
   0   7   0    0.58    0.14
  -1  -7   0   55.79    2.51
   1   7   0   57.71    2.69
   1   7   0   54.56    2.48
  -2  -7   0    4.88    0.42
   2   7   0    4.92    0.47
   2   7   0    4.66    0.57
  -3  -7   0    2.30    0.31
   3   7   0    2.03    0.28
   3   7   0    2.83    0.48
   3   7   0    2.71    0.41
  -4  -7   0   -0.11    0.24
   4   7   0    0.21    0.40
   4   7   0   -0.21    0.24
   4   7   0   -0.09    0.46
   5   7   0   23.20    1.48
   5   7   0   23.79    1.24
   5   7   0   23.35    1.53
  10  -8   0    1.34    0.66
   9  -8   0    9.12    1.00
  -9   8   0    9.79    0.65
  -9   8   0   10.04    1.27
   8  -8   0    2.87    0.55
  -8   8   0    2.22    0.34
  -8   8   0    3.09    0.54
   7  -8   0   20.59    1.25
  -7   8   0   20.67    1.11
  -7   8   0   20.02    1.20
   6  -8   0    0.29    0.37
  -6   8   0    1.19    0.31
  -6   8   0    1.37    0.35
   5  -8   0   12.49    0.84
  -5   8   0   12.63    0.70
  -5   8   0   11.60    0.83
   4  -8   0    0.10    0.22
  -4   8   0   -0.12    0.29
   3  -8   0    0.21    0.23
  -3   8   0    0.10    0.36
   2  -8   0   13.30    0.81
  -2   8   0   14.75    0.95
   1  -8   0    5.42    0.45
  -1   8   0    4.52    0.60
  -1   8   0    4.77    0.27
   0  -8   0   24.80    1.26
   0   8   0   23.52    1.40
   0   8   0   26.95    1.15
  -1  -8   0   -0.04    0.22
   1   8   0    0.04    0.19
   1   8   0    0.38    0.40
   2   8   0    5.69    0.55
   2   8   0    6.00    0.71
  -3  -8   0    4.60    0.51
   3   8   0    3.76    0.49
   3   8   0    3.98    0.70
   3   8   0    4.00    0.48
  -4  -8   0    2.69    0.43
   4   8   0    2.94    0.41
   4   8   0    3.09    0.64
   9  -9   0    3.11    0.61
  -9   9   0    3.02    0.43
   8  -9   0   10.10    1.01
  -8   9   0   10.50    0.76
   7  -9   0    9.01    0.79
  -7   9   0    8.38    0.72
   6  -9   0    6.43    0.69
  -6   9   0    5.54    0.58
   5  -9   0   30.62    1.59
  -5   9   0   29.86    1.61
   4  -9   0    1.44    0.36
  -4   9   0    1.00    0.36
  -3   9   0    5.93    0.76
   2  -9   0    3.64    0.64
  -2   9   0    4.87    0.67
  -1   9   0   11.54    0.94
   0  -9   0    1.31    0.32
   0   9   0    0.75    0.52
  -1  -9   0    0.39    0.30
   1   9   0    1.03    0.49
  -2  -9   0   14.96    0.96
   2   9   0   15.15    0.92
   2   9   0   17.01    1.30
  -3  -9   0    0.27    0.38
   3   9   0    1.04    0.37
   3   9   0    1.13    0.70
   8 -10   0    1.76    0.59
  -8  10   0    1.88    0.45
   7 -10   0   10.76    0.90
  -7  10   0   11.22    0.91
   6 -10   0    6.10    0.70
  -6  10   0    5.42    0.65
   5 -10   0    0.81    0.41
  -5  10   0    0.29    0.44
   4 -10   0    3.26    0.49
  -4  10   0    3.17    0.59
   3 -10   0   11.84    0.83
  -3  10   0   11.55    0.97
   2 -10   0    2.00    0.39
  -2  10   0    1.37    0.61
   1 -10   0    0.35    0.36
  -1  10   0    0.14    0.51
   0 -10   0    2.39    0.44
   0  10   0    2.68    0.62
  -1 -10   0    0.13    0.38
   1  10   0    1.13    0.72
   7 -11   0    4.26    0.71
  -7  11   0    3.64    0.65
   6 -11   0    4.33    0.60
  -6  11   0    2.86    0.62
   5 -11   0    9.27    0.91
  -5  11   0    6.88    0.83
   4 -11   0    0.12    0.40
  -4  11   0    0.22    0.53
   3 -11   0    2.02    0.49
  -3  11   0    3.35    0.73
   2 -11   0   -0.21    0.36
  -2  11   0    0.69    0.66
   1 -11   0   -0.19    0.39
  -1  11   0   -0.51    0.62
  -1  11  -1    0.82    0.75
   1 -11   1   -0.53    0.39
  -2  11  -1    7.55    1.01
   2 -11   1    8.93    0.78
  -3  11  -1    0.15    0.66
   3 -11   1   -0.08    0.38
  -4  11  -1    6.12    0.81
   4 -11   1    6.61    0.78
  -5  11  -1   -0.53    0.48
   5 -11   1   -0.21    0.40
  -6  11  -1    2.54    0.60
   6 -11   1    4.42    0.64
  -7  11  -1    2.03    0.51
   7 -11   1    0.83    0.55
   1  10  -1    1.11    0.65
  -1 -10   1    1.27    0.39
   0  10  -1   -0.75    0.52
   0 -10   1    0.79    0.36
  -1  10  -1    5.82    0.76
   1 -10   1    5.20    0.58
  -2  10  -1    4.84    0.76
   2 -10   1    4.74    0.52
  -3  10  -1    4.90    0.74
   3 -10   1    5.70    0.57
  -4  10  -1   23.46    1.43
   4 -10   1   24.45    1.34
  -5  10  -1    0.92    0.45
   5 -10   1    0.78    0.41
  -6  10  -1    9.28    0.83
   6 -10   1   11.76    0.93
  -7  10  -1    0.60    0.44
   7 -10   1    1.20    0.50
  -8  10  -1    2.13    0.46
   8 -10   1    1.30    0.59
   3   9  -1    0.66    0.33
   3   9  -1   -0.24    0.64
  -3  -9   1    0.06    0.36
   2   9  -1    0.40    0.61
   2   9  -1    0.45    0.28
  -2  -9   1    0.12    0.31
   1   9  -1    0.14    0.53
  -1  -9   1   -0.64    0.24
   0   9  -1    1.34    0.50
   0  -9   1    0.42    0.39
  -1   9  -1    2.07    0.54
   1  -9   1    1.37    0.32
  -2   9  -1    2.01    0.46
   2  -9   1    1.72    0.33
  -3   9  -1   32.02    1.72
   3  -9   1   31.88    1.61
   4  -9   1    2.89    0.63
   5  -9   1    5.69    0.63
   6  -9   1    8.59    0.79
   7  -9   1   -0.02    0.47
  -8   9  -1   12.27    0.91
   8  -9   1   12.80    1.09
   9  -9   1    1.23    0.54
   4   8  -1   16.62    1.38
   4   8  -1   14.10    0.89
   4   8  -1   14.42    1.08
  -4  -8   1   14.65    0.89
   3   8  -1    0.61    0.27
   3   8  -1    0.70    0.35
   3   8  -1    0.68    0.54
  -3  -8   1    0.24    0.27
   2   8  -1    2.78    0.35
   2   8  -1    1.93    0.53
  -2  -8   1    2.42    0.32
   1   8  -1    1.49    0.23
   1   8  -1    1.09    0.45
  -1  -8   1    0.88    0.22
   0   8  -1    0.19    0.14
   0   8  -1   -0.27    0.39
   0  -8   1   -0.04    0.20
  -1   8  -1   10.30    0.80
  -1   8  -1    9.48    0.47
   1  -8   1    9.33    0.62
  -2   8  -1   10.15    0.77
  -2   8  -1    9.96    0.50
   2  -8   1    9.72    0.62
  -3   8  -1    0.28    0.33
  -3   8  -1   -0.60    0.30
  -3   8  -1   -0.02    0.17
   3  -8   1    0.37    0.24
  -4   8  -1   29.84    1.30
  -4   8  -1   26.03    1.43
   4  -8   1   25.08    1.38
  -5   8  -1   39.05    1.95
  -5   8  -1   42.67    1.87
   5  -8   1   37.91    1.95
  -6   8  -1    0.96    0.34
  -6   8  -1    0.93    0.32
   6  -8   1    1.17    0.36
  -7   8  -1    5.58    0.61
  -7   8  -1    4.69    0.52
   7  -8   1    6.52    0.71
  -8   8  -1    0.22    0.26
  -8   8  -1    0.73    0.53
   8  -8   1    0.34    0.39
  -9   8  -1    2.04    0.75
   9  -8   1    1.96    0.55
  10  -8   1    4.92    0.74
   5   7  -1    5.79    0.56
   5   7  -1    7.90    1.01
   5   7  -1    7.61    0.93
   4   7  -1   11.68    0.66
   4   7  -1   10.67    0.99
   4   7  -1    8.96    0.83
  -4  -7   1    9.75    0.68
   3   7  -1    8.00    1.12
   3   7  -1    8.79    0.56
   3   7  -1    7.55    0.67
  -3  -7   1    9.10    0.58
   2   7  -1   13.71    0.83
   2   7  -1   14.62    1.00
  -2  -7   1   15.53    0.80
   1   7  -1   31.65    1.51
   1   7  -1   32.12    1.71
  -1  -7   1   34.02    1.53
   0   7  -1    6.47    0.59
   0   7  -1    6.77    0.63
   0  -7   1    7.18    0.46
  -1   7  -1    0.01    0.21
  -1   7  -1   -0.03    0.08
  -1   7  -1    0.02    0.24
   1  -7   1   -0.40    0.15
  -2   7  -1    6.59    0.45
  -2   7  -1    6.49    0.54
  -2   7  -1    6.45    0.34
   2  -7   1    5.37    0.44
   2  -7   1    6.81    0.43
  -3   7  -1   26.88    1.17
  -3   7  -1   24.15    1.34
   3  -7   1   26.38    1.16
   3  -7   1   23.76    1.26
  -4   7  -1    3.22    0.42
  -4   7  -1    4.38    0.38
   4  -7   1    3.37    0.41
   4  -7   1    3.15    0.26
  -5   7  -1   20.53    1.08
  -5   7  -1   19.83    1.10
   5  -7   1   21.10    1.14
   5  -7   1   20.52    0.95
  -6   7  -1   26.36    1.28
  -6   7  -1   25.07    1.34
   6  -7   1   24.65    1.35
  -7   7  -1   23.33    1.37
  -7   7  -1   24.06    1.20
   7  -7   1   24.83    1.38
  -8   7  -1    5.38    0.73
  -8   7  -1    5.64    0.45
   8  -7   1    6.32    0.67
  -9   7  -1    1.78    0.95
   9  -7   1    0.55    0.46
 -10   7  -1    2.97    0.80
  10  -7   1    2.37    0.65
   6   6  -1    0.61    0.30
   6   6  -1    0.26    0.60
   6   6  -1   -0.21    0.54
   5   6  -1    8.40    0.58
   5   6  -1    8.26    0.88
  -5  -6   1    6.75    0.89
   4   6  -1    8.34    0.84
   4   6  -1   10.14    0.58
   4   6  -1   10.06    0.79
  -4  -6   1    9.47    0.60
  -4  -6   1    9.46    0.85
   3   6  -1    2.12    0.44
   3   6  -1    2.12    0.25
   3   6  -1    2.67    0.37
  -3  -6   1    2.35    0.43
  -3  -6   1    2.71    0.32
   2   6  -1   18.68    1.00
   2   6  -1   19.60    1.14
  -2  -6   1   19.07    1.14
  -2  -6   1   19.80    0.95
   1   6  -1    5.43    0.54
   1   6  -1    6.13    0.42
   1   6  -1    5.86    0.59
  -1  -6   1    6.23    0.40
  -1  -6   1    5.55    0.54
   0   6  -1    0.59    0.23
   0   6  -1    0.66    0.13
   0   6  -1    0.46    0.22
   0  -6   1    0.44    0.18
  -1   6  -1    0.98    0.12
  -1   6  -1    1.05    0.20
  -1   6  -1    0.87    0.24
   1  -6   1    0.51    0.19
   1  -6   1    0.75    0.17
  -2   6  -1   -0.05    0.18
  -2   6  -1    0.20    0.08
   2  -6   1    0.42    0.17
   2  -6   1    0.13    0.13
  -3   6  -1    1.21    0.17
  -3   6  -1    1.11    0.24
   3  -6   1    0.94    0.12
   3  -6   1    1.05    0.22
  -4   6  -1    3.90    0.37
  -4   6  -1    3.75    0.40
   4  -6   1    3.55    0.24
   4  -6   1    3.12    0.36
  -5   6  -1    5.54    0.48
  -5   6  -1    5.46    0.44
   5  -6   1    5.90    0.38
   5  -6   1    5.66    0.48
  -6   6  -1   -0.07    0.29
  -6   6  -1   -0.07    0.17
   6  -6   1   -0.08    0.23
  -7   6  -1   30.23    1.39
  -7   6  -1   29.40    1.63
   7  -6   1   30.21    1.58
  -8   6  -1    2.62    0.29
  -8   6  -1    2.93    0.57
   8  -6   1    3.17    0.47
  -9   6  -1    9.67    1.10
   9  -6   1    9.78    0.86
 -10   6  -1    3.44    0.86
  10  -6   1    3.60    0.67
   7   5  -1   16.58    1.43
   7   5  -1   14.58    0.97
  -7  -5   1   18.41    1.40
   6   5  -1    0.02    0.43
   6   5  -1    1.11    0.56
   6   5  -1   -0.06    0.26
  -6  -5   1   -0.35    0.45
  -6  -5   1    0.43    0.58
   5   5  -1    8.82    0.83
   5   5  -1    7.18    0.75
   5   5  -1    8.89    0.55
  -5  -5   1    8.72    0.80
  -5  -5   1    8.98    0.77
   4   5  -1    0.16    0.15
   4   5  -1    0.24    0.31
   4   5  -1    0.42    0.37
  -4  -5   1    0.32    0.16
  -4  -5   1    0.75    0.35
  -4  -5   1    0.69    0.34
   3   5  -1   70.24    3.06
   3   5  -1   69.69    3.22
   3   5  -1   69.01    3.18
  -3  -5   1   72.86    3.23
  -3  -5   1   69.84    3.06
   2   5  -1    4.32    0.49
   2   5  -1    3.89    0.38
  -2  -5   1    3.95    0.43
  -2  -5   1    4.25    0.30
   1   5  -1   -0.04    0.21
   1   5  -1   -0.13    0.24
  -1  -5   1    0.10    0.21
  -1  -5   1   -0.15    0.10
   0   5  -1    6.16    0.49
   0   5  -1    7.17    0.46
   0   5  -1    7.10    0.36
   0   5  -1    7.25    0.50
   0  -5   1    5.63    0.47
   0  -5   1    6.46    0.43
   0  -5   1    6.15    0.38
  -1   5  -1    7.77    0.50
  -1   5  -1    7.25    0.54
  -1   5  -1    7.90    0.37
   1  -5   1    7.62    0.43
   1  -5   1    7.05    0.44
  -2   5  -1   11.48    0.52
  -2   5  -1   10.39    0.65
   2  -5   1   10.25    0.60
   2  -5   1   11.61    0.53
  -3   5  -1    1.22    0.17
  -3   5  -1    1.17    0.21
   3  -5   1    1.09    0.21
   3  -5   1    1.19    0.13
  -4   5  -1    9.19    0.53
  -4   5  -1    7.39    0.51
   4  -5   1    9.19    0.45
   4  -5   1    7.46    0.52
  -5   5  -1   14.05    0.83
  -5   5  -1   14.45    0.76
   5  -5   1   14.20    0.83
   5  -5   1   15.46    0.76
  -6   5  -1    0.46    0.29
  -6   5  -1    0.21    0.13
   6  -5   1    0.19    0.24
  -7   5  -1    9.66    0.50
  -7   5  -1    8.91    0.79
   7  -5   1    9.29    0.70
  -8   5  -1   -0.26    0.44
  -8   5  -1    0.15    0.12
   8  -5   1   -0.01    0.41
  -9   5  -1   20.23    1.50
   9  -5   1   20.85    1.32
 -10   5  -1    7.13    1.00
  10  -5   1    6.70    0.81
   8   4  -1    4.24    0.93
   8   4  -1    4.41    0.55
  -8  -4   1    5.31    1.01
   7   4  -1    1.49    0.47
   7   4  -1    1.85    0.67
  -7  -4   1    1.84    0.65
  -7  -4   1    2.16    0.52
   6   4  -1    0.26    0.38
   6   4  -1   -0.30    0.21
   6   4  -1   -0.49    0.45
  -6  -4   1    0.03    0.40
  -6  -4   1   -0.28    0.46
   5   4  -1    8.44    0.80
   5   4  -1    8.69    0.52
   5   4  -1    8.79    0.70
  -5  -4   1    8.24    0.69
  -5  -4   1    7.58    0.78
   4   4  -1   55.01    2.44
   4   4  -1   54.28    2.62
   4   4  -1   54.48    2.57
  -4  -4   1   55.45    2.57
  -4  -4   1   58.69    2.64
   3   4  -1   51.70    2.44
   3   4  -1   53.30    2.45
   3   4  -1   51.82    2.31
  -3  -4   1   54.26    2.46
  -3  -4   1   53.87    2.49
  -3  -4   1   52.13    2.31
   2   4  -1    0.87    0.22
   2   4  -1    0.96    0.24
   2   4  -1    0.85    0.15
   2   4  -1    0.59    0.28
  -2  -4   1    0.80    0.12
  -2  -4   1    1.51    0.23
  -2  -4   1    1.01    0.24
   1   4  -1   15.33    0.72
   1   4  -1   13.97    0.79
   1   4  -1   14.88    0.74
   1   4  -1   15.12    0.78
  -1  -4   1   14.71    0.70
  -1  -4   1   13.18    0.79
   0   4  -1    9.40    0.60
   0   4  -1   10.28    0.53
   0   4  -1   10.35    0.49
   0   4  -1   10.12    0.53
   0   4  -1    9.07    0.58
   0  -4   1   10.18    0.50
   0  -4   1    9.34    0.58
   0  -4   1    9.83    0.52
  -1   4  -1    0.59    0.15
  -1   4  -1    0.64    0.21
  -1   4  -1    0.71    0.08
  -1   4  -1    0.54    0.17
   1  -4   1    0.71    0.12
   1  -4   1    0.55    0.18
   1  -4   1    0.57    0.10
  -2   4  -1    0.96    0.18
  -2   4  -1    1.13    0.21
  -2   4  -1    1.27    0.18
  -2   4  -1    1.19    0.13
   2  -4   1    1.06    0.19
   2  -4   1    1.47    0.12
  -3   4  -1    5.38    0.33
  -3   4  -1    4.66    0.37
  -3   4  -1    4.78    0.34
  -3   4  -1    4.43    0.35
   3  -4   1    3.88    0.32
   3  -4   1    5.34    0.28
   3  -4   1    4.99    0.38
  -4   4  -1    5.09    0.33
  -4   4  -1    5.08    0.42
  -4   4  -1    5.07    0.40
   4  -4   1    4.48    0.38
   4  -4   1    4.90    0.33
   4  -4   1    4.45    0.38
  -5   4  -1   26.15    1.35
  -5   4  -1   29.00    1.23
   5  -4   1   26.90    1.28
   5  -4   1   25.24    1.32
  -6   4  -1   19.96    0.88
  -6   4  -1   19.61    1.11
   6  -4   1   18.42    1.05
   6  -4   1   19.37    0.98
  -7   4  -1   16.25    1.14
  -7   4  -1   18.45    0.82
   7  -4   1   18.10    0.95
   7  -4   1   18.84    1.06
  -8   4  -1    6.59    0.76
  -8   4  -1    6.45    0.37
   8  -4   1    6.08    0.61
  -9   4  -1   15.90    1.33
   9  -4   1   15.08    1.09
 -10   4  -1    1.19    0.77
  10  -4   1   -0.03    0.54
   8   3  -1   21.68    1.23
   8   3  -1   21.63    1.54
  -8  -3   1   20.28    1.54
   7   3  -1    5.33    0.77
   7   3  -1    5.50    0.52
   7   3  -1    5.04    0.64
  -7  -3   1    4.30    0.57
  -7  -3   1    5.59    0.76
   6   3  -1    4.52    0.39
   6   3  -1    5.13    0.65
   6   3  -1    4.50    0.50
  -6  -3   1    4.19    0.54
  -6  -3   1    2.53    0.52
   5   3  -1    5.77    0.64
   5   3  -1    4.81    0.35
  -5  -3   1    4.43    0.46
  -5  -3   1    4.52    0.58
   4   3  -1   34.79    1.56
   4   3  -1   34.90    1.74
  -4  -3   1   35.30    1.74
  -4  -3   1   34.57    1.66
   3   3  -1    7.87    0.59
   3   3  -1    8.49    0.44
   3   3  -1    9.11    0.46
   3   3  -1    8.80    0.55
  -3  -3   1    8.16    0.57
  -3  -3   1    8.73    0.44
  -3  -3   1    7.96    0.54
   2   3  -1   23.99    1.04
   2   3  -1   22.80    1.14
   2   3  -1   23.75    1.11
   2   3  -1   23.85    1.03
  -2  -3   1   22.26    1.19
  -2  -3   1   23.00    1.03
  -2  -3   1   20.73    1.11
   1   3  -1    3.84    0.23
   1   3  -1    3.63    0.26
   1   3  -1    3.32    0.30
   1   3  -1    3.43    0.29
  -1  -3   1    3.26    0.29
  -1  -3   1    3.56    0.21
   0   3  -1    0.59    0.08
   0   3  -1    0.59    0.12
   0   3  -1    0.62    0.16
   0   3  -1    0.69    0.11
   0   3  -1    0.53    0.14
   0  -3   1    0.63    0.11
   0  -3   1    0.68    0.14
   0  -3   1    0.49    0.08
  -1   3  -1   30.21    1.33
  -1   3  -1   29.68    1.36
  -1   3  -1   29.17    1.36
  -1   3  -1   28.42    1.27
   1  -3   1   29.40    1.32
   1  -3   1   31.14    1.37
   1  -3   1   29.79    1.28
   1  -3   1   29.87    1.36
  -2   3  -1   22.83    1.13
  -2   3  -1   24.97    1.15
  -2   3  -1   24.89    1.10
  -2   3  -1   25.18    1.14
   2  -3   1   25.25    1.14
   2  -3   1   24.07    1.14
   2  -3   1   25.92    1.08
  -3   3  -1   19.40    0.95
  -3   3  -1   21.19    0.95
  -3   3  -1   19.57    0.91
   3  -3   1   18.62    0.99
   3  -3   1   19.69    0.93
   3  -3   1   20.31    0.92
  -4   3  -1    1.00    0.13
   4  -3   1    0.96    0.20
   4  -3   1    0.70    0.14
   4  -3   1    0.81    0.17
  -5   3  -1   33.49    1.40
  -5   3  -1   30.98    1.58
   5  -3   1   30.34    1.52
   5  -3   1   33.28    1.45
  -6   3  -1   12.69    0.56
  -6   3  -1   12.10    0.83
   6  -3   1   11.48    0.72
   6  -3   1   11.49    0.63
  -7   3  -1    6.80    0.64
  -7   3  -1    6.08    0.31
   7  -3   1    4.42    0.41
   7  -3   1    4.12    0.53
  -8   3  -1   19.22    1.33
   8  -3   1   18.40    1.14
  -9   3  -1    6.68    0.91
   9  -3   1    5.21    0.63
 -10   3  -1    6.47    1.00
  10  -3   1    5.96    0.75
   9   2  -1    0.63    0.44
   9   2  -1   -0.78    0.73
  -9  -2   1   -0.10    0.80
   8   2  -1   14.14    1.17
  -8  -2   1   12.78    1.20
   7   2  -1   10.23    0.91
   7   2  -1    8.05    0.63
  -7  -2   1   10.03    1.01
  -7  -2   1    8.42    0.71
   6   2  -1    1.82    0.25
   6   2  -1    1.97    0.43
  -6  -2   1    2.46    0.48
  -6  -2   1    1.57    0.31
   5   2  -1   20.88    0.99
   5   2  -1   21.85    1.20
  -5  -2   1   20.23    1.06
  -5  -2   1   19.72    1.18
   4   2  -1    0.59    0.12
   4   2  -1    0.61    0.29
   4   2  -1    0.41    0.13
   4   2  -1    0.59    0.15
  -4  -2   1    0.65    0.24
  -4  -2   1    0.55    0.19
   3   2  -1   72.05    3.28
   3   2  -1   75.53    3.16
   3   2  -1   76.23    3.16
   3   2  -1   69.44    3.27
   3   2  -1   77.34    3.19
  -3  -2   1   68.70    3.27
  -3  -2   1   75.71    3.22
   2   2  -1    1.62    0.22
   2   2  -1    1.82    0.13
   2   2  -1    1.76    0.18
   2   2  -1    1.92    0.24
   2   2  -1    1.58    0.14
  -2  -2   1    1.59    0.20
  -2  -2   1    1.77    0.24
  -2  -2   1    1.64    0.13
   1   2  -1    3.11    0.23
   1   2  -1    3.21    0.17
   1   2  -1    2.72    0.22
   1   2  -1    2.54    0.23
  -1  -2   1    2.78    0.20
  -1  -2   1    2.67    0.23
  -1  -2   1    2.79    0.16
  -1  -2   1    2.59    0.21
   0   2  -1   86.10    3.58
   0   2  -1   82.94    3.57
   0   2  -1   88.32    3.62
   0  -2   1   82.31    3.58
   0  -2   1   82.63    3.58
   0  -2   1   83.57    3.62
  -1   2  -1   13.10    0.63
  -1   2  -1   13.50    0.59
  -1   2  -1   13.63    0.62
  -1   2  -1   12.43    0.63
   1  -2   1   13.43    0.63
   1  -2   1   13.02    0.61
   1  -2   1   13.78    0.58
   1  -2   1   13.16    0.63
  -2   2  -1   53.17    2.41
  -2   2  -1   56.34    2.42
  -2   2  -1   55.83    2.42
  -2   2  -1   56.57    2.42
   2  -2   1   57.64    2.41
   2  -2   1   56.55    2.41
   2  -2   1   56.51    2.43
  -3   2  -1    3.37    0.24
  -3   2  -1    3.47    0.28
  -3   2  -1    3.75    0.20
   3  -2   1    3.42    0.22
   3  -2   1    3.47    0.25
   3  -2   1    3.73    0.28
  -4   2  -1    2.34    0.13
  -4   2  -1    2.10    0.28
  -4   2  -1    2.16    0.23
   4  -2   1    2.29    0.30
   4  -2   1    2.37    0.18
   4  -2   1    2.26    0.26
  -5   2  -1    6.72    0.54
  -5   2  -1    7.30    0.34
   5  -2   1    6.76    0.46
   5  -2   1    7.49    0.38
  -6   2  -1   29.41    1.21
  -6   2  -1   26.44    1.47
   6  -2   1   25.09    1.35
   6  -2   1   28.04    1.23
  -7   2  -1   13.33    0.98
  -7   2  -1   15.06    0.69
   7  -2   1   13.92    0.87
   7  -2   1   14.14    0.70
   8  -2   1   18.73    1.12
  -9   2  -1    1.40    0.64
   9  -2   1    1.20    0.46
 -10   2  -1    0.22    0.69
  10  -2   1    1.05    0.55
   9   1  -1    2.18    0.48
   9   1  -1    1.42    0.70
  -9  -1   1    1.11    0.78
   8   1  -1    7.38    0.65
   8   1  -1    6.88    0.88
  -8  -1   1    7.63    0.92
   7   1  -1    8.50    0.58
   7   1  -1    7.38    0.83
  -7  -1   1    8.45    0.90
  -7  -1   1    8.10    0.60
   6   1  -1   11.23    0.63
   6   1  -1   12.44    0.60
   6   1  -1   10.21    0.81
  -6  -1   1   10.35    0.82
  -6  -1   1    9.63    0.64
   5   1  -1   27.35    1.27
   5   1  -1   29.91    1.23
  -5  -1   1   25.92    1.45
  -5  -1   1   25.20    1.33
   4   1  -1   46.67    2.40
   4   1  -1   59.54    2.36
   4   1  -1   57.11    2.37
  -4  -1   1   57.58    2.37
  -4  -1   1   48.16    2.49
  -4  -1   1   56.93    2.40
   3   1  -1   30.29    1.27
   3   1  -1   26.91    1.37
   3   1  -1   29.30    1.27
   3   1  -1   28.09    1.26
  -3  -1   1   28.47    1.30
  -3  -1   1   28.58    1.26
   2   1  -1   22.21    1.08
   2   1  -1   22.46    1.00
   2   1  -1   21.85    1.08
   2   1  -1   23.38    1.00
   2   1  -1   24.68    1.03
  -2  -1   1   23.35    1.04
  -2  -1   1   23.39    1.00
  -2  -1   1   21.82    1.08
   1   1  -1  134.39    5.82
   1   1  -1  141.90    5.88
   1   1  -1  145.02    5.86
   1   1  -1  141.07    5.87
  -1  -1   1  128.57    5.82
  -1  -1   1  137.27    5.87
  -1  -1   1  140.08    5.86
  -1  -1   1  139.51    5.87
   0   1  -1   11.74    0.48
   0  -1   1   11.06    0.48
   0  -1   1   10.09    0.50
  -1   1  -1    3.11    0.16
  -1   1  -1    2.97    0.16
  -1   1  -1    2.81    0.16
  -1   1  -1    3.06    0.16
   1  -1   1    2.40    0.15
   1  -1   1    3.08    0.17
  -2   1  -1  207.64    8.89
  -2   1  -1  217.49    8.93
  -2   1  -1  194.09    8.86
   2  -1   1  209.37    8.86
   2  -1   1  225.69    8.92
   2  -1   1  211.44    8.90
  -3   1  -1   77.27    3.34
  -3   1  -1   74.32    3.21
  -3   1  -1   78.48    3.27
   3  -1   1   77.37    3.33
   3  -1   1   78.43    3.29
   3  -1   1   72.02    3.25
  -4   1  -1   71.13    3.06
  -4   1  -1   66.88    3.17
  -4   1  -1   76.09    3.01
   4  -1   1   69.16    3.14
   4  -1   1   68.39    3.08
   4  -1   1   73.01    3.00
  -5   1  -1    0.36    0.09
  -5   1  -1    0.15    0.22
   5  -1   1    0.29    0.15
   5  -1   1    0.33    0.07
  -6   1  -1   18.54    1.14
  -6   1  -1   20.31    0.89
   6  -1   1   18.98    1.00
   6  -1   1   19.23    0.86
  -7   1  -1    2.21    0.46
  -7   1  -1    2.11    0.22
   7  -1   1    2.22    0.34
   7  -1   1    2.53    0.25
  -8   1  -1   23.07    1.49
   8  -1   1   23.56    1.28
  -9   1  -1    0.73    0.63
   9  -1   1   -0.47    0.40
 -10   1  -1    7.53    1.15
  10  -1   1    6.55    0.79
  10   0  -1    0.14    0.54
  10   0  -1    0.37    0.81
 -10   0   1    0.45    0.89
   9   0  -1    6.09    0.75
   9   0  -1    4.87    0.77
  -9   0   1    8.51    1.03
   8   0  -1    1.40    0.33
   8   0  -1    1.62    0.49
  -8   0   1    0.45    0.50
  -8   0   1    1.17    0.32
   7   0  -1    0.11    0.22
   7   0  -1    0.07    0.14
  -7   0   1   -0.23    0.42
  -7   0   1   -0.04    0.21
   6   0  -1    4.22    0.36
   6   0  -1    4.18    0.27
  -6   0   1    4.70    0.57
  -6   0   1    3.07    0.37
   5   0  -1   -0.02    0.08
   5   0  -1   -0.02    0.13
  -5   0   1    0.02    0.11
  -5   0   1    0.28    0.23
   4   0  -1   32.38    1.35
   4   0  -1   32.20    1.40
  -4   0   1   31.64    1.37
  -4   0   1   31.22    1.38
  -4   0   1   26.55    1.48
   3   0  -1  157.86    6.41
   3   0  -1  150.99    6.51
   3   0  -1  155.16    6.43
  -3   0   1  147.80    6.52
  -3   0   1  148.85    6.42
  -3   0   1  150.06    6.42
   2   0  -1   94.97    4.02
   2   0  -1   94.76    4.07
   2   0  -1   94.43    4.01
  -2   0   1   96.00    4.08
  -2   0   1   94.25    4.01
  -2   0   1   94.63    4.01
   1   0  -1   83.26    3.63
   1   0  -1   89.48    3.65
   1   0  -1   90.15    3.65
  -1   0   1   87.11    3.65
  -1   0   1   83.87    3.62
  -1   0   1   81.89    3.62
  -1   0  -1   43.30    1.78
  -1   0  -1   41.04    1.80
   1   0   1   39.80    1.76
   1   0   1   43.42    1.80
   1   0   1   42.05    1.78
   1   0   1   41.01    1.76
  -2   0  -1   27.00    1.16
  -2   0  -1   26.58    1.22
  -2   0  -1   23.46    1.13
   2   0   1   26.39    1.21
   2   0   1   28.30    1.13
   2   0   1   27.10    1.16
  -3   0  -1  141.62    5.96
  -3   0  -1  141.43    6.06
  -3   0  -1  136.44    5.93
   3   0   1  142.18    5.97
   3   0   1  138.54    5.91
   3   0   1  143.03    6.04
  -4   0  -1  242.77   10.16
  -4   0  -1  245.65   10.13
   4   0   1  241.92   10.10
   4   0   1  230.81   10.17
  -5   0  -1   39.62    1.74
  -5   0  -1   36.64    1.93
   5   0   1   42.79    1.70
   5   0   1   38.88    1.80
  -6   0  -1    0.29    0.31
  -6   0  -1    0.13    0.14
   6   0   1   -0.11    0.15
   6   0   1    0.24    0.08
  -7   0  -1    1.07    0.43
  -7   0  -1    0.42    0.20
   7   0   1    1.05    0.27
  -8   0  -1    0.56    0.51
   8   0   1    1.89    0.56
  -9   0  -1    0.95    0.63
   9   0   1    0.14    0.41
  10  -1  -1    0.46    0.66
  10  -1  -1   -0.54    0.52
 -10   1   1    0.66    0.74
   9  -1  -1    0.79    0.42
   9  -1  -1    2.61    0.70
  -9   1   1    1.54    0.65
   8  -1  -1    1.03    0.33
  -8   1   1    1.47    0.28
  -8   1   1    1.58    0.52
   7  -1  -1    5.03    0.50
   7  -1  -1    5.08    0.35
  -7   1   1    5.12    0.40
  -7   1   1    5.52    0.66
   6  -1  -1    2.63    0.31
   6  -1  -1    2.60    0.23
  -6   1   1    2.82    0.41
  -6   1   1    3.07    0.27
   5  -1  -1    8.01    0.40
   5  -1  -1    7.90    0.48
  -5   1   1    8.45    0.42
  -5   1   1    7.81    0.60
   4  -1  -1   33.02    1.63
   4  -1  -1   35.19    1.55
   4  -1  -1   36.17    1.49
  -4   1   1   32.98    1.63
  -4   1   1   34.37    1.52
  -4   1   1   34.51    1.50
   3  -1  -1   29.84    1.31
   3  -1  -1   28.88    1.36
   3  -1  -1   29.95    1.27
  -3   1   1   29.18    1.30
  -3   1   1   28.40    1.27
  -3   1   1   29.36    1.37
   2  -1  -1   27.78    1.23
   2  -1  -1   29.19    1.21
   2  -1  -1   27.09    1.25
  -2   1   1   27.18    1.25
  -2   1   1   28.18    1.22
  -2   1   1   27.80    1.20
   1  -1  -1   87.16    3.64
   1  -1  -1   87.45    3.64
   1  -1  -1   75.37    3.64
   1  -1  -1   87.19    3.64
  -1   1   1   84.56    3.64
  -1   1   1   89.16    3.65
   0  -1  -1    7.04    0.33
   0  -1  -1    5.86    0.31
   0  -1  -1    7.14    0.32
   0   1   1    7.40    0.31
  -1  -1  -1   77.42    3.23
  -1  -1  -1   75.87    3.25
  -1  -1  -1   71.95    3.21
   1   1   1   74.93    3.22
   1   1   1   75.71    3.21
   1   1   1   75.70    3.22
   1   1   1   75.11    3.23
   1   1   1   78.94    3.25
  -2  -1  -1  141.79    5.99
  -2  -1  -1  141.55    5.91
  -2  -1  -1  137.59    5.92
   2   1   1  132.86    5.91
   2   1   1  136.97    5.91
   2   1   1  144.96    5.98
   2   1   1  142.51    5.91
   2   1   1  139.90    5.92
  -3  -1  -1   44.06    2.22
  -3  -1  -1   51.73    2.14
  -3  -1  -1   48.12    2.13
   3   1   1   48.80    2.13
   3   1   1   48.64    2.23
   3   1   1   50.44    2.13
   3   1   1   51.15    2.12
  -4  -1  -1    5.23    0.47
  -4  -1  -1    5.58    0.34
   4   1   1    5.55    0.30
   4   1   1    5.11    0.34
  -5  -1  -1    2.20    0.27
  -5  -1  -1    2.15    0.36
   5   1   1    2.13    0.26
   5   1   1    2.54    0.21
   5   1   1    2.72    0.26
  -6  -1  -1   37.95    1.76
  -6  -1  -1   37.92    2.03
   6   1   1   37.26    1.81
   6   1   1   43.24    1.71
   6   1   1   38.20    1.76
  -7  -1  -1   14.28    0.78
   7   1   1   13.21    0.83
   7   1   1   14.53    0.77
  -8  -1  -1    1.38    0.61
   8   1   1    1.62    0.39
  -9  -1  -1    1.17    0.75
   9   1   1    0.90    0.69
   9   1   1    1.77    0.51
  10  -2  -1    1.49    0.48
  10  -2  -1    0.68    0.67
 -10   2   1    1.46    0.73
   9  -2  -1   -0.34    0.55
   9  -2  -1   -0.07    0.34
  -9   2   1    0.06    0.61
   8  -2  -1    2.10    0.39
  -8   2   1    2.32    0.29
  -8   2   1    2.00    0.47
   7  -2  -1    0.36    0.25
   7  -2  -1    0.20    0.18
  -7   2   1    0.50    0.15
  -7   2   1    0.17    0.29
   6  -2  -1   42.05    1.98
   6  -2  -1   42.55    1.89
  -6   2   1   41.75    2.09
  -6   2   1   45.39    1.88
   5  -2  -1    4.55    0.36
   5  -2  -1    4.81    0.30
  -5   2   1    4.93    0.48
  -5   2   1    5.42    0.28
   4  -2  -1    8.75    0.56
   4  -2  -1    8.89    0.45
  -4   2   1    8.59    0.55
  -4   2   1    8.79    0.47
  -4   2   1    8.68    0.42
   3  -2  -1    0.08    0.13
   3  -2  -1    0.18    0.09
   3  -2  -1    0.15    0.08
  -3   2   1    0.08    0.10
  -3   2   1    0.25    0.06
  -3   2   1    0.19    0.10
   2  -2  -1  871.40   37.98
   2  -2  -1  969.66   37.97
   2  -2  -1  863.02   37.98
  -2   2   1  895.97   37.97
  -2   2   1  822.78   37.97
  -2   2   1 1000.00   37.99
   1  -2  -1   13.72    0.63
   1  -2  -1   13.21    0.64
  -1   2   1   13.12    0.64
  -1   2   1   14.62    0.64
   0  -2  -1   34.39    1.55
   0  -2  -1   34.62    1.52
   0  -2  -1   34.58    1.51
   0   2   1   36.06    1.56
   0   2   1   35.50    1.51
   0   2   1   35.63    1.53
   0   2   1   35.03    1.55
  -1  -2  -1    0.39    0.11
  -1  -2  -1    0.31    0.11
  -1  -2  -1    0.49    0.08
   1   2   1    0.61    0.13
   1   2   1    0.28    0.10
   1   2   1    0.47    0.11
   1   2   1    0.85    0.10
  -2  -2  -1   26.30    1.18
  -2  -2  -1   25.76    1.22
  -2  -2  -1   25.51    1.26
   2   2   1   27.22    1.19
   2   2   1   27.10    1.19
   2   2   1   26.25    1.22
   2   2   1   26.86    1.21
   2   2   1   27.56    1.26
  -3  -2  -1    0.25    0.13
  -3  -2  -1    0.43    0.18
   3   2   1    0.56    0.14
   3   2   1    0.40    0.10
   3   2   1    0.60    0.23
   3   2   1    0.47    0.13
   3   2   1    0.32    0.12
  -4  -2  -1   24.04    1.13
  -4  -2  -1   22.49    1.26
   4   2   1   25.25    1.10
   4   2   1   22.92    1.12
   4   2   1   22.99    1.10
  -5  -2  -1    3.19    0.47
   5   2   1    2.73    0.28
   5   2   1    2.76    0.30
  -6  -2  -1    0.25    0.25
  -6  -2  -1    0.19    0.35
   6   2   1    0.19    0.18
   6   2   1    0.06    0.21
  -7  -2  -1    2.06    0.64
   7   2   1    1.49    0.36
   7   2   1    1.39    0.28
  -8  -2  -1    6.14    0.86
   8   2   1    5.80    0.63
   8   2   1    4.18    0.75
  -9  -2  -1   16.53    1.55
   9   2   1   16.89    1.12
   9   2   1   15.63    1.57
  10  -3  -1   -0.21    0.44
  10  -3  -1    0.99    0.75
 -10   3   1    0.45    0.74
   9  -3  -1    9.92    0.83
  -9   3   1    9.63    1.08
   8  -3  -1    1.56    0.34
  -8   3   1    0.85    0.42
  -8   3   1    1.07    0.20
   7  -3  -1    4.76    0.48
   7  -3  -1    5.13    0.43
  -7   3   1    4.71    0.61
  -7   3   1    4.92    0.31
   6  -3  -1    4.63    0.41
   6  -3  -1    5.33    0.37
  -6   3   1    5.45    0.54
  -6   3   1    4.96    0.29
   5  -3  -1    0.58    0.16
   5  -3  -1    0.89    0.20
   5  -3  -1    0.04    0.26
  -5   3   1    0.51    0.09
  -5   3   1    0.44    0.22
   4  -3  -1    7.27    0.47
   4  -3  -1    7.96    0.45
   4  -3  -1    7.32    0.48
  -4   3   1    8.51    0.41
  -4   3   1    8.04    0.47
  -4   3   1    7.50    0.49
   3  -3  -1   21.33    1.03
   3  -3  -1   21.71    1.04
   3  -3  -1   22.68    1.01
  -3   3   1   21.12    1.01
  -3   3   1   22.60    1.05
  -3   3   1   22.87    1.03
   2  -3  -1   82.58    3.60
   2  -3  -1   84.68    3.59
   2  -3  -1   80.52    3.52
  -2   3   1   82.99    3.59
  -2   3   1   83.20    3.53
  -2   3   1   86.12    3.59
   1  -3  -1   41.47    1.81
   1  -3  -1   39.95    1.84
  -1   3   1   42.34    1.82
   0  -3  -1   89.71    3.85
   0  -3  -1   90.82    3.86
   0  -3  -1   90.73    3.92
   0   3   1   90.47    3.91
   0   3   1   87.63    3.84
   0   3   1   89.17    3.91
   0   3   1   92.16    3.85
   0   3   1   92.84    3.88
  -1  -3  -1    1.05    0.17
  -1  -3  -1    1.41    0.13
   1   3   1    1.64    0.16
   1   3   1    1.27    0.20
   1   3   1    0.92    0.17
   1   3   1    1.28    0.18
  -2  -3  -1   30.07    1.42
  -2  -3  -1   34.03    1.52
  -2  -3  -1   33.29    1.49
   2   3   1   30.66    1.42
   2   3   1   32.60    1.44
   2   3   1   31.21    1.50
   2   3   1   31.89    1.48
   2   3   1   32.17    1.48
  -3  -3  -1    3.02    0.38
  -3  -3  -1    3.76    0.27
  -3  -3  -1    3.65    0.36
   3   3   1    3.49    0.26
   3   3   1    3.22    0.33
   3   3   1    4.26    0.35
  -4  -3  -1    1.67    0.25
  -4  -3  -1    2.28    0.37
   4   3   1    1.77    0.22
   4   3   1    1.71    0.25
   4   3   1    1.49    0.26
  -5  -3  -1   -0.04    0.23
  -5  -3  -1    0.27    0.32
   5   3   1   -0.25    0.21
   5   3   1   -0.03    0.14
  -6  -3  -1    0.26    0.28
  -6  -3  -1    0.15    0.44
   6   3   1    0.82    0.41
   6   3   1    0.12    0.20
   6   3   1    0.50    0.28
  -7  -3  -1    1.57    0.64
   7   3   1    0.01    0.59
   7   3   1    0.67    0.30
  -8  -3  -1    3.57    0.89
   8   3   1    3.37    0.48
   8   3   1    4.34    0.87
  10  -4  -1   11.65    1.01
  10  -4  -1    9.51    1.19
 -10   4   1   10.52    1.20
   9  -4  -1    0.25    0.39
  -9   4   1   -0.34    0.52
   8  -4  -1    1.91    0.36
  -8   4   1    2.13    0.51
  -8   4   1    2.51    0.25
   7  -4  -1    3.78    0.45
  -7   4   1    5.27    0.60
  -7   4   1    3.65    0.27
   6  -4  -1    5.43    0.49
  -6   4   1    4.70    0.50
  -6   4   1    5.51    0.32
   5  -4  -1    5.27    0.41
   5  -4  -1    5.70    0.44
   5  -4  -1    5.54    0.43
  -5   4   1    5.28    0.46
  -5   4   1    5.80    0.34
   4  -4  -1   70.31    2.99
   4  -4  -1   66.22    3.04
   4  -4  -1   69.64    3.04
  -4   4   1   70.29    3.02
  -4   4   1   67.82    3.00
   3  -4  -1  204.04    9.27
   3  -4  -1  225.09    9.29
   3  -4  -1  228.32    9.19
  -3   4   1  226.63    9.29
  -3   4   1  224.35    9.22
  -3   4   1  200.15    9.26
   2  -4  -1   -0.18    0.17
   2  -4  -1    0.06    0.11
  -2   4   1    0.03    0.10
  -2   4   1   -0.12    0.13
   1  -4  -1    0.44    0.11
   1  -4  -1    0.65    0.18
  -1   4   1    0.51    0.06
  -1   4   1    0.46    0.19
  -1   4   1    0.64    0.15
  -1   4   1    0.45    0.15
   0  -4  -1   56.16    2.53
   0  -4  -1   53.62    2.45
   0   4   1   59.44    2.44
   0   4   1   57.50    2.43
   0   4   1   55.97    2.53
   0   4   1   58.76    2.48
   0   4   1   52.70    2.51
  -1  -4  -1    1.20    0.15
  -1  -4  -1    1.50    0.20
   1   4   1    1.30    0.19
   1   4   1    1.16    0.20
   1   4   1    1.47    0.22
   1   4   1    1.44    0.30
  -2  -4  -1   28.23    1.37
  -2  -4  -1   28.75    1.30
   2   4   1   27.64    1.37
   2   4   1   27.45    1.37
   2   4   1   28.37    1.29
   2   4   1   29.38    1.39
  -3  -4  -1    0.07    0.11
  -3  -4  -1    0.35    0.26
   3   4   1    0.33    0.23
   3   4   1    0.36    0.25
   3   4   1    0.31    0.13
  -4  -4  -1    0.30    0.32
   4   4   1    0.49    0.17
   4   4   1    0.54    0.28
   4   4   1    0.11    0.25
  -5  -4  -1    3.16    0.54
   5   4   1    2.55    0.37
   5   4   1    2.72    0.50
   5   4   1    3.11    0.34
  -6  -4  -1    0.43    0.57
   6   4   1    0.56    0.35
   6   4   1    1.08    0.51
   6   4   1    0.47    0.36
  -7  -4  -1    8.12    1.06
   7   4   1   11.52    1.16
   7   4   1    9.26    0.74
  10  -5  -1    9.98    1.18
  10  -5  -1   11.66    1.05
 -10   5   1    9.73    1.28
   9  -5  -1    4.24    0.59
  -9   5   1    3.45    0.35
   8  -5  -1    0.30    0.33
  -8   5   1    0.34    0.15
  -8   5   1    0.60    0.40
   7  -5  -1    0.69    0.31
  -7   5   1    0.65    0.14
  -7   5   1    0.64    0.33
   6  -5  -1    0.22    0.20
  -6   5   1    0.31    0.26
  -6   5   1   -0.15    0.12
   5  -5  -1    0.49    0.19
   5  -5  -1    0.48    0.21
  -5   5   1    0.45    0.15
  -5   5   1    0.32    0.22
   4  -5  -1    3.34    0.33
   4  -5  -1    3.61    0.24
  -4   5   1    2.74    0.29
  -4   5   1    2.95    0.31
   3  -5  -1   74.68    2.98
   3  -5  -1   68.27    3.11
  -3   5   1   66.74    3.12
  -3   5   1   72.15    3.01
   2  -5  -1   27.96    1.32
  -2   5   1   28.64    1.38
   1  -5  -1   81.03    3.62
  -1   5   1   86.08    3.54
  -1   5   1   79.48    3.69
  -1   5   1   87.04    3.52
   0  -5  -1    6.60    0.41
   0   5   1    7.75    0.53
   0   5   1    7.34    0.39
   0   5   1    7.06    0.43
  -1  -5  -1    0.28    0.12
  -1  -5  -1    0.35    0.17
   1   5   1    0.12    0.22
   1   5   1    0.34    0.16
   1   5   1    0.38    0.21
  -2  -5  -1   50.99    2.37
  -2  -5  -1   53.65    2.31
   2   5   1   53.51    2.42
   2   5   1   49.67    2.36
  -3  -5  -1   17.49    1.01
  -3  -5  -1   17.46    0.88
   3   5   1   17.37    1.00
   3   5   1   18.66    0.89
   3   5   1   17.28    1.02
  -4  -5  -1   18.94    1.14
  -4  -5  -1   18.29    0.94
   4   5   1   17.91    1.06
   4   5   1   17.86    1.11
   4   5   1   17.82    0.92
  -5  -5  -1   -0.08    0.46
   5   5   1    1.19    0.26
   5   5   1    1.12    0.37
   5   5   1    1.35    0.46
  -6  -5  -1    1.81    0.62
   6   5   1    1.64    0.31
   6   5   1    2.67    0.68
   6   5   1    2.60    0.49
  -7  -5  -1   -0.65    0.75
   7   5   1   -0.41    0.35
   7   5   1   -0.82    0.67
  10  -6  -1   11.26    1.05
  10  -6  -1   10.13    1.23
 -10   6   1    9.69    1.13
   9  -6  -1    7.32    0.80
  -9   6   1    6.66    0.89
  -9   6   1    5.88    0.45
   8  -6  -1    1.68    0.40
  -8   6   1    1.20    0.22
  -8   6   1    1.10    0.42
   7  -6  -1    0.54    0.33
  -7   6   1    0.57    0.31
  -7   6   1    0.53    0.17
   6  -6  -1    0.31    0.24
  -6   6   1   -0.13    0.15
  -6   6   1   -0.41    0.24
   5  -6  -1    0.92    0.17
   5  -6  -1    1.01    0.25
  -5   6   1    1.00    0.23
  -5   6   1    0.65    0.22
   4  -6  -1    0.29    0.08
   4  -6  -1   -0.08    0.19
  -4   6   1   -0.07    0.18
  -4   6   1    0.11    0.13
   3  -6  -1   30.79    1.47
  -3   6   1   31.02    1.51
   2  -6  -1    0.11    0.14
  -2   6   1    0.09    0.18
   1  -6  -1   45.58    2.12
  -1   6   1   44.98    2.21
  -1   6   1   49.25    2.05
  -1   6   1   48.68    2.00
   0  -6  -1    5.22    0.40
   0   6   1    6.16    0.35
   0   6   1    5.63    0.41
   0   6   1    5.63    0.53
  -1  -6  -1   44.36    1.99
   1   6   1   43.49    2.12
   1   6   1   44.25    2.02
  -2  -6  -1   12.86    0.68
   2   6   1   11.99    0.83
   2   6   1   11.58    0.74
  -3  -6  -1    0.45    0.32
  -3  -6  -1    0.70    0.21
   3   6   1    0.28    0.36
   3   6   1    0.72    0.21
   3   6   1    0.30    0.31
  -4  -6  -1   18.54    1.14
  -4  -6  -1   17.34    0.92
   4   6   1   16.77    0.91
   4   6   1   16.55    1.08
   4   6   1   16.82    1.11
  -5  -6  -1    2.41    0.61
   5   6   1    1.38    0.58
   5   6   1    1.64    0.32
   5   6   1    1.59    0.47
  -6  -6  -1    1.37    0.72
   6   6   1    0.42    0.66
   6   6   1    1.60    0.37
  10  -7  -1    3.31    0.69
  10  -7  -1    2.87    0.78
 -10   7   1    3.53    0.82
   9  -7  -1    1.09    0.50
  -9   7   1    1.78    0.62
  -9   7   1    1.14    0.25
   8  -7  -1   -0.37    0.40
  -8   7   1    0.71    0.21
  -8   7   1    0.84    0.44
  -7   7   1    2.20    0.30
  -7   7   1    1.82    0.39
   6  -7  -1    0.36    0.26
  -6   7   1    0.03    0.22
  -6   7   1    0.05    0.25
   5  -7  -1    0.05    0.25
   5  -7  -1    0.03    0.10
  -5   7   1    0.18    0.24
  -5   7   1    0.55    0.20
   4  -7  -1    4.46    0.42
  -4   7   1    4.00    0.46
   3  -7  -1    9.93    0.64
  -3   7   1    9.82    0.70
   2  -7  -1    0.49    0.21
  -2   7   1    0.22    0.24
   1  -7  -1   31.75    1.57
  -1   7   1   33.32    1.43
  -1   7   1   32.24    1.69
  -1   7   1   35.83    1.46
   0  -7  -1   26.71    1.32
   0   7   1   25.79    1.46
   0   7   1   28.81    1.23
   0   7   1   27.67    1.29
  -1  -7  -1   42.70    1.92
   1   7   1   41.86    2.07
   1   7   1   40.41    1.88
  -2  -7  -1    7.16    0.52
   2   7   1    7.87    0.71
   2   7   1    5.51    0.53
   3   7   1    3.74    0.53
   3   7   1    4.24    0.51
  -4  -7  -1   12.99    0.81
   4   7   1   11.49    0.96
   4   7   1   14.83    1.03
   4   7   1   12.59    0.78
   5   7   1    1.86    0.64
   5   7   1    3.08    0.61
   5   7   1    3.12    0.41
  10  -8  -1    0.69    0.55
   9  -8  -1    4.18    0.63
  -9   8   1    5.83    0.63
   8  -8  -1    0.95    0.46
  -8   8   1    0.50    0.27
   7  -8  -1   -0.28    0.31
  -7   8   1   -0.14    0.38
  -7   8   1    0.20    0.27
   6  -8  -1    0.83    0.31
  -6   8   1    1.49    0.32
  -6   8   1    1.04    0.33
   5  -8  -1   -0.03    0.28
  -5   8   1    0.34    0.30
   4  -8  -1    2.70    0.39
  -4   8   1    1.99    0.36
   3  -8  -1    5.99    0.50
  -3   8   1    6.33    0.66
   2  -8  -1   26.60    1.33
  -2   8   1   26.33    1.47
   1  -8  -1    4.25    0.42
  -1   8   1    3.53    0.53
   0  -8  -1    8.53    0.62
   0   8   1    9.32    0.48
   0   8   1    9.08    0.83
  -1  -8  -1   15.44    0.92
   1   8   1   16.73    0.83
   1   8   1   15.33    1.12
  -2  -8  -1    1.83    0.34
   2   8   1    1.97    0.31
   2   8   1    1.34    0.53
   2   8   1    1.99    0.36
  -3  -8  -1   13.69    0.87
   3   8   1   14.03    0.84
   3   8   1   12.57    1.13
  -4  -8  -1    1.47    0.40
   4   8   1    2.72    0.41
   4   8   1    2.66    0.66
   9  -9  -1    5.27    0.79
  -9   9   1    6.36    0.65
   8  -9  -1   -0.07    0.44
  -8   9   1    0.29    0.32
   7  -9  -1    0.99    0.38
  -7   9   1   -0.08    0.34
   6  -9  -1    3.22    0.49
  -6   9   1    2.83    0.46
   5  -9  -1    2.58    0.43
  -5   9   1    3.54    0.53
   4  -9  -1    2.80    0.39
  -4   9   1    2.41    0.47
   3  -9  -1   -0.30    0.27
  -3   9   1   -0.61    0.31
   2  -9  -1    1.35    0.31
  -2   9   1    1.62    0.44
   1  -9  -1   62.20    2.82
  -1   9   1   61.11    2.99
   0  -9  -1   24.89    1.31
   0   9   1   27.00    1.59
  -1  -9  -1    0.91    0.30
   1   9   1    0.84    0.52
  -2  -9  -1   -0.01    0.33
   2   9   1    1.30    0.64
   2   9   1    0.66    0.31
  -3  -9  -1   22.11    1.27
   3   9   1   20.65    1.19
   3   9   1   19.79    1.51
   8 -10  -1    0.92    0.55
  -8  10   1   -0.22    0.40
   7 -10  -1    0.24    0.46
  -7  10   1    0.30    0.40
   6 -10  -1    0.92    0.46
  -6  10   1    1.06    0.41
   5 -10  -1   -0.08    0.39
  -5  10   1    0.20    0.44
   4 -10  -1    3.09    0.49
  -4  10   1    2.34    0.49
   3 -10  -1   -0.24    0.31
  -3  10   1    0.12    0.42
   2 -10  -1    2.22    0.39
  -2  10   1    2.44    0.60
   1 -10  -1    2.34    0.41
  -1  10   1    2.10    0.59
   0 -10  -1    3.35    0.47
   0  10   1    3.87    0.72
  -1 -10  -1    2.38    0.45
   1  10   1    2.10    0.75
   7 -11  -1   10.51    1.04
  -7  11   1    9.22    0.95
   6 -11  -1    0.06    0.52
  -6  11   1    1.49    0.55
   5 -11  -1    0.59    0.45
  -5  11   1    0.56    0.52
   4 -11  -1    4.38    0.56
  -4  11   1    4.60    0.70
   3 -11  -1    7.56    0.79
  -3  11   1    8.52    0.94
   2 -11  -1    5.58    0.61
  -2  11   1    4.46    0.78
   1 -11  -1   -0.16    0.39
  -1  11   1   -0.36    0.67
  -1  11  -2    0.76    0.73
  -2  11  -2    2.03    0.75
   2 -11   2    0.56    0.38
  -3  11  -2    7.14    0.89
   3 -11   2    8.53    0.78
  -4  11  -2    3.78    0.74
   4 -11   2    2.40    0.51
  -5  11  -2    4.19    0.72
   5 -11   2    3.13    0.54
  -6  11  -2    0.50    0.56
   6 -11   2    0.88    0.54
  -7  11  -2   -0.73    0.51
   7 -11   2   -0.16    0.50
   1  10  -2    7.69    1.02
  -1 -10   2    9.23    0.73
   0  10  -2    1.73    0.66
   0 -10   2    2.18    0.39
  -1  10  -2    4.35    0.75
   1 -10   2    5.38    0.57
  -2  10  -2   21.53    1.47
   2 -10   2   23.42    1.24
  -3  10  -2    5.45    0.76
   3 -10   2    4.90    0.60
  -4  10  -2    8.34    0.85
   4 -10   2    8.53    0.74
  -5  10  -2    0.01    0.48
   5 -10   2    0.22    0.42
  -6  10  -2    1.18    0.49
   6 -10   2    1.63    0.48
  -7  10  -2    2.94    0.53
   7 -10   2    3.21    0.60
  -8  10  -2    2.23    0.51
   8 -10   2    2.11    0.64
   3   9  -2    0.47    0.73
   3   9  -2    0.73    0.33
  -3  -9   2    0.24    0.37
   2   9  -2    8.66    0.63
   2   9  -2    8.32    0.99
  -2  -9   2    8.65    0.70
   1   9  -2    3.17    0.62
  -1  -9   2    2.33    0.41
   0   9  -2    8.45    0.98
   0  -9   2    8.12    0.61
  -1   9  -2    0.23    0.48
   1  -9   2    1.09    0.27
  -2   9  -2   15.17    1.02
   2  -9   2   13.25    0.85
  -3   9  -2    0.18    0.45
   3  -9   2    0.57    0.33
   4  -9   2    6.83    0.98
  -5   9  -2    2.64    0.49
   5  -9   2    1.72    0.43
  -6   9  -2   11.26    0.84
   6  -9   2   11.23    0.92
  -7   9  -2    5.32    0.61
   7  -9   2    5.26    0.64
  -8   9  -2    3.70    0.48
   8  -9   2    3.49    0.61
   9  -9   2    1.35    0.67
   4   8  -2   -0.49    0.26
   4   8  -2    0.77    0.45
   4   8  -2   -0.05    0.64
  -4  -8   2   -0.91    0.31
   3   8  -2    2.47    0.58
   3   8  -2    3.80    0.48
   3   8  -2    2.92    0.35
  -3  -8   2    3.87    0.46
   2   8  -2   -0.26    0.43
   2   8  -2    0.10    0.25
  -2  -8   2    0.01    0.22
   1   8  -2    0.91    0.47
   1   8  -2    0.16    0.19
  -1  -8   2   -0.04    0.22
   0   8  -2   16.74    1.17
   0   8  -2   17.11    0.83
   0  -8   2   16.99    0.90
  -1   8  -2   22.23    1.27
  -1   8  -2   20.86    0.97
   1  -8   2   20.79    1.08
  -2   8  -2   35.49    1.85
  -2   8  -2   36.16    1.59
   2  -8   2   36.12    1.72
  -3   8  -2    0.47    0.37
  -3   8  -2    0.15    0.17
   3  -8   2    0.07    0.24
  -4   8  -2   17.13    1.12
  -4   8  -2   20.26    1.03
   4  -8   2   18.59    1.06
  -5   8  -2    0.18    0.28
  -5   8  -2    0.31    0.31
   5  -8   2    0.35    0.31
  -6   8  -2    2.39    0.40
  -6   8  -2    2.60    0.44
   6  -8   2    2.64    0.46
  -7   8  -2   -0.37    0.42
  -7   8  -2    0.06    0.27
   7  -8   2    0.57    0.42
  -8   8  -2   -0.33    0.56
  -8   8  -2   -0.15    0.26
   8  -8   2    0.54    0.40
  -9   8  -2    3.67    0.81
   9  -8   2    2.65    0.65
  10  -8   2    0.83    0.69
   5   7  -2    1.04    0.30
   5   7  -2    1.64    0.59
   5   7  -2    1.35    0.55
  -5  -7   2    0.76    0.59
   4   7  -2    0.02    0.44
   4   7  -2   -0.25    0.22
   4   7  -2    0.69    0.39
  -4  -7   2   -0.31    0.24
  -4  -7   2   -1.00    0.47
   3   7  -2    1.86    0.37
   3   7  -2    1.58    0.60
   3   7  -2    2.00    0.27
  -3  -7   2    2.04    0.57
  -3  -7   2    2.17    0.27
   2   7  -2   -0.31    0.22
   2   7  -2   -0.14    0.32
  -2  -7   2    0.04    0.16
  -2  -7   2    0.07    0.34
   1   7  -2   13.05    0.70
   1   7  -2   11.94    0.88
  -1  -7   2   13.24    0.90
  -1  -7   2   13.38    0.71
   0   7  -2    1.46    0.35
   0   7  -2    1.02    0.16
   0   7  -2    1.75    0.37
   0  -7   2    1.42    0.32
   0  -7   2    1.44    0.22
  -1   7  -2    1.88    0.19
  -1   7  -2    2.58    0.35
  -1   7  -2    1.92    0.36
   1  -7   2    2.22    0.32
   1  -7   2    2.00    0.26
  -2   7  -2   33.27    1.44
  -2   7  -2   30.48    1.64
   2  -7   2   32.62    1.55
   2  -7   2   33.52    1.50
  -3   7  -2   37.41    1.63
  -3   7  -2   35.22    1.79
   3  -7   2   34.54    1.72
   3  -7   2   37.46    1.62
  -4   7  -2   15.95    0.94
   4  -7   2   16.37    0.93
   4  -7   2   16.70    0.79
  -5   7  -2    3.81    0.43
  -5   7  -2    3.88    0.46
   5  -7   2    3.79    0.47
  -6   7  -2   13.77    0.81
  -6   7  -2   14.11    0.92
   6  -7   2   13.39    0.88
  -7   7  -2    7.07    0.80
  -7   7  -2    8.04    0.58
   7  -7   2    8.06    0.75
  -8   7  -2   -0.04    0.21
  -8   7  -2    0.06    0.51
   8  -7   2   -0.51    0.33
  -9   7  -2    0.46    0.61
   9  -7   2   -0.37    0.49
 -10   7  -2   13.10    1.43
  10  -7   2   12.12    1.22
   6   6  -2   30.33    1.74
   6   6  -2   29.70    1.79
   6   6  -2   29.33    1.50
  -6  -6   2   30.89    1.76
   5   6  -2    0.19    0.22
   5   6  -2   -0.12    0.42
   5   6  -2   -0.46    0.49
  -5  -6   2    0.06    0.50
   4   6  -2   -0.58    0.37
   4   6  -2    0.67    0.33
   4   6  -2    0.04    0.17
  -4  -6   2    0.34    0.40
  -4  -6   2   -0.22    0.19
   3   6  -2   -0.05    0.34
   3   6  -2    0.38    0.16
   3   6  -2   -0.03    0.26
  -3  -6   2    0.29    0.31
  -3  -6   2    0.42    0.17
   2   6  -2   -0.06    0.21
   2   6  -2   -0.07    0.29
  -2  -6   2    0.01    0.14
  -2  -6   2   -0.11    0.28
   1   6  -2   16.20    0.98
   1   6  -2   16.19    0.83
  -1  -6   2   16.81    0.81
  -1  -6   2   16.01    0.98
   0   6  -2   11.17    0.76
   0   6  -2   11.60    0.72
   0  -6   2   12.56    0.63
   0  -6   2   11.91    0.75
   0  -6   2   10.53    0.70
  -1   6  -2    4.94    0.50
  -1   6  -2    6.45    0.33
   1  -6   2    5.81    0.41
   1  -6   2    6.47    0.44
   1  -6   2    5.61    0.51
  -2   6  -2   15.32    0.92
  -2   6  -2   16.52    0.74
   2  -6   2   15.50    0.83
   2  -6   2   16.68    0.78
  -3   6  -2    1.94    0.22
  -3   6  -2    1.93    0.30
   3  -6   2    1.57    0.20
   3  -6   2    1.67    0.24
  -4   6  -2   22.54    1.18
  -4   6  -2   22.23    1.17
   4  -6   2   24.63    1.06
  -5   6  -2   27.77    1.38
  -5   6  -2   27.43    1.34
   5  -6   2   27.35    1.39
  -6   6  -2    0.28    0.19
  -6   6  -2   -0.10    0.29
   6  -6   2    0.20    0.26
  -7   6  -2    0.52    0.39
  -7   6  -2    0.90    0.19
   7  -6   2    1.17    0.35
  -8   6  -2    0.76    0.16
  -8   6  -2    0.97    0.52
   8  -6   2    0.66    0.43
  -9   6  -2    5.13    0.80
   9  -6   2    4.46    0.63
 -10   6  -2   -0.65    1.08
  10  -6   2    0.65    0.53
   7   5  -2   13.26    1.21
   7   5  -2   14.96    1.21
   7   5  -2   13.40    0.89
  -7  -5   2   13.70    1.22
   6   5  -2    7.87    0.97
   6   5  -2    8.96    0.88
   6   5  -2    8.56    0.60
  -6  -5   2    8.13    0.95
   5   5  -2   14.32    0.99
   5   5  -2   14.08    1.00
   5   5  -2   14.91    0.77
  -5  -5   2   13.59    1.00
   4   5  -2   15.43    1.01
   4   5  -2   15.87    0.79
   4   5  -2   16.14    0.99
  -4  -5   2   15.79    1.01
   3   5  -2   25.52    1.29
   3   5  -2   24.43    1.14
   3   5  -2   23.47    1.33
  -3  -5   2   24.82    1.14
  -3  -5   2   24.55    1.33
   2   5  -2    2.94    0.39
   2   5  -2    2.79    0.33
  -2  -5   2    3.20    0.42
  -2  -5   2    2.73    0.25
   1   5  -2    5.52    0.41
   1   5  -2    5.84    0.51
   1   5  -2    5.46    0.51
   1   5  -2    5.26    0.37
  -1  -5   2    5.83    0.47
  -1  -5   2    5.66    0.34
   0   5  -2   49.35    2.01
   0   5  -2   46.97    2.06
   0   5  -2   48.17    2.08
   0   5  -2   42.51    2.14
   0  -5   2   44.87    2.03
   0  -5   2   43.47    2.14
   0  -5   2   45.76    2.07
  -1   5  -2   61.37    2.93
  -1   5  -2   67.27    2.88
  -1   5  -2   67.57    2.79
   1  -5   2   62.95    2.85
   1  -5   2   70.21    2.84
   1  -5   2   61.65    2.93
  -2   5  -2    4.17    0.25
  -2   5  -2    3.93    0.37
   2  -5   2    4.55    0.27
   2  -5   2    3.83    0.32
  -3   5  -2   38.91    1.66
  -3   5  -2   34.92    1.71
   3  -5   2   34.28    1.70
   3  -5   2   38.55    1.61
  -4   5  -2   15.75    0.84
  -4   5  -2   15.87    0.89
  -4   5  -2   15.77    0.85
   4  -5   2   14.39    0.85
   4  -5   2   16.47    0.88
   4  -5   2   18.54    0.79
  -5   5  -2   17.55    0.89
  -5   5  -2   19.28    0.99
  -5   5  -2   17.55    1.00
   5  -5   2   16.75    0.98
   5  -5   2   18.94    0.95
  -6   5  -2   29.24    1.33
  -6   5  -2   27.93    1.51
  -6   5  -2   31.97    1.45
   6  -5   2   28.54    1.41
   6  -5   2   28.16    1.47
  -7   5  -2    7.45    0.40
  -7   5  -2    6.69    0.75
   7  -5   2    8.11    0.63
  -8   5  -2    2.06    0.56
   8  -5   2    1.93    0.38
  -9   5  -2    0.60    0.65
   9  -5   2   -0.16    0.39
 -10   5  -2    0.26    0.78
  10  -5   2    1.91    0.53
   8   4  -2    0.21    0.81
  -8  -4   2    3.39    0.84
   7   4  -2    5.06    0.82
   7   4  -2    6.03    0.68
   7   4  -2    5.80    0.54
  -7  -4   2    8.30    1.07
  -7  -4   2    6.19    0.74
   6   4  -2   16.86    1.09
   6   4  -2   16.77    0.91
   6   4  -2   17.41    1.17
  -6  -4   2   17.62    1.09
  -6  -4   2   18.73    1.28
   5   4  -2    9.32    0.74
   5   4  -2    8.73    0.52
   5   4  -2    9.77    0.81
  -5  -4   2    9.78    0.85
  -5  -4   2    9.63    0.76
   4   4  -2   27.33    1.42
   4   4  -2   25.24    1.21
  -4  -4   2   28.53    1.43
  -4  -4   2   25.27    1.37
   3   4  -2    5.06    0.33
   3   4  -2    5.03    0.47
   3   4  -2    4.77    0.30
  -3  -4   2    4.49    0.47
  -3  -4   2    4.60    0.31
   2   4  -2    2.56    0.25
   2   4  -2    2.61    0.28
  -2  -4   2    2.42    0.24
  -2  -4   2    2.41    0.33
   1   4  -2   29.79    1.28
   1   4  -2   25.95    1.37
   1   4  -2   28.69    1.35
   1   4  -2   29.02    1.30
  -1  -4   2   29.99    1.26
  -1  -4   2   27.11    1.34
  -1  -4   2   26.09    1.37
   0   4  -2   34.67    1.46
   0   4  -2   32.68    1.55
   0   4  -2   31.29    1.56
   0   4  -2   34.74    1.49
   0  -4   2   29.59    1.54
   0  -4   2   33.30    1.50
   0  -4   2   34.94    1.47
  -1   4  -2   45.75    1.91
  -1   4  -2   43.36    1.95
  -1   4  -2   43.46    1.85
  -1   4  -2   39.92    1.95
   1  -4   2   43.28    1.90
   1  -4   2   45.50    1.87
   1  -4   2   38.45    1.94
  -2   4  -2   15.88    0.82
  -2   4  -2   16.14    0.82
  -2   4  -2   16.69    0.80
  -2   4  -2   15.99    0.73
   2  -4   2   16.26    0.72
   2  -4   2   13.72    0.90
  -3   4  -2   35.53    1.66
  -3   4  -2   36.70    1.64
  -3   4  -2   36.45    1.66
  -3   4  -2   36.52    1.67
   3  -4   2   34.05    1.67
   3  -4   2   39.94    1.61
   3  -4   2   35.88    1.67
  -4   4  -2    2.19    0.26
  -4   4  -2    1.81    0.22
  -4   4  -2    2.10    0.27
   4  -4   2    1.98    0.24
   4  -4   2    1.80    0.25
   4  -4   2    1.85    0.24
  -5   4  -2   30.56    1.35
  -5   4  -2   29.16    1.29
  -5   4  -2   27.29    1.42
   5  -4   2   28.93    1.34
   5  -4   2   26.74    1.39
  -6   4  -2    8.75    0.42
  -6   4  -2    8.86    0.56
  -6   4  -2    7.05    0.63
   6  -4   2    8.65    0.62
   6  -4   2    8.13    0.53
  -7   4  -2   18.19    0.80
  -7   4  -2   16.62    1.15
   7  -4   2   18.29    0.91
   7  -4   2   18.01    1.06
  -8   4  -2    7.04    0.81
   8  -4   2    7.18    0.72
  -9   4  -2    1.84    0.66
   9  -4   2    2.10    0.51
 -10   4  -2   -0.17    0.65
  10  -4   2   -0.02    0.54
   8   3  -2    1.04    0.73
  -8  -3   2    2.03    0.79
   7   3  -2    6.20    0.52
   7   3  -2    5.08    0.74
  -7  -3   2    4.77    0.70
  -7  -3   2    5.80    0.67
   6   3  -2    1.20    0.23
   6   3  -2    0.62    0.43
  -6  -3   2    1.24    0.36
  -6  -3   2    1.63    0.50
   5   3  -2   46.73    2.27
   5   3  -2   44.29    2.03
  -5  -3   2   45.25    2.15
  -5  -3   2   46.77    2.27
   4   3  -2    9.51    0.53
   4   3  -2    8.65    0.67
   4   3  -2    7.90    0.45
  -4  -3   2    7.52    0.59
  -4  -3   2    8.77    0.66
   3   3  -2    4.20    0.39
   3   3  -2    4.49    0.26
   3   3  -2    3.93    0.28
  -3  -3   2    4.54    0.27
  -3  -3   2    4.36    0.38
  -3  -3   2    4.53    0.41
   2   3  -2    0.34    0.08
   2   3  -2    0.28    0.21
   2   3  -2    0.48    0.16
   2   3  -2    0.31    0.14
   2   3  -2    0.11    0.07
  -2  -3   2    0.17    0.15
  -2  -3   2    0.22    0.07
   1   3  -2   33.62    1.53
   1   3  -2   35.32    1.57
   1   3  -2   35.46    1.50
   1   3  -2   34.07    1.56
  -1  -3   2   33.38    1.56
  -1  -3   2   34.74    1.48
  -1  -3   2   32.23    1.58
   0   3  -2   98.34    4.19
   0   3  -2  100.07    4.20
   0   3  -2  101.46    4.26
   0  -3   2   97.59    4.26
   0  -3   2   97.66    4.21
   0  -3   2   96.30    4.19
  -1   3  -2   72.11    3.09
  -1   3  -2   69.78    3.02
  -1   3  -2   71.55    3.10
  -1   3  -2   71.60    3.06
   1  -3   2   73.06    3.03
   1  -3   2   68.73    3.06
   1  -3   2   70.78    3.10
  -2   3  -2    0.43    0.13
  -2   3  -2    0.42    0.09
  -2   3  -2    0.68    0.12
  -2   3  -2    0.29    0.12
   2  -3   2    0.64    0.09
   2  -3   2    0.49    0.12
   2  -3   2    0.45    0.11
  -3   3  -2  108.17    4.60
  -3   3  -2  109.86    4.59
  -3   3  -2  106.95    4.61
  -3   3  -2  105.56    4.57
   3  -3   2  112.01    4.58
   3  -3   2  110.28    4.58
   3  -3   2   96.82    4.62
  -4   3  -2    4.11    0.30
  -4   3  -2    3.54    0.37
  -4   3  -2    3.97    0.24
   4  -3   2    4.08    0.33
   4  -3   2    3.92    0.31
   4  -3   2    4.23    0.29
  -5   3  -2   67.13    2.66
  -5   3  -2   55.97    2.79
  -5   3  -2   62.26    2.60
   5  -3   2   57.03    2.74
   5  -3   2   62.68    2.65
  -6   3  -2    4.99    0.35
  -6   3  -2    4.26    0.51
  -6   3  -2    4.80    0.24
   6  -3   2    4.62    0.33
   6  -3   2    4.43    0.44
  -7   3  -2    7.69    0.71
  -7   3  -2    6.62    0.33
  -7   3  -2    6.14    0.40
   7  -3   2    5.30    0.58
   7  -3   2    6.01    0.39
  -9   3  -2   12.28    1.26
   9  -3   2   10.83    0.95
 -10   3  -2    0.46    0.68
  10  -3   2    0.32    0.48
   9   2  -2    2.04    0.86
   9   2  -2    3.05    0.53
  -9  -2   2    2.85    0.87
   8   2  -2    0.89    0.55
   8   2  -2    1.30    0.33
  -8  -2   2    0.18    0.54
  -8  -2   2    0.56    0.76
   7   2  -2   27.75    1.36
   7   2  -2   27.38    1.62
  -7  -2   2   27.97    1.68
  -7  -2   2   27.20    1.44
   6   2  -2   31.92    1.79
   6   2  -2   34.41    1.55
  -6  -2   2   32.37    1.80
  -6  -2   2   33.06    1.62
   5   2  -2   36.28    1.85
   5   2  -2   37.77    1.66
  -5  -2   2   36.22    1.73
  -5  -2   2   36.54    1.85
   4   2  -2    0.38    0.15
   4   2  -2    0.58    0.13
   4   2  -2    0.73    0.24
  -4  -2   2    0.20    0.17
  -4  -2   2    0.17    0.19
   3   2  -2   40.26    1.91
   3   2  -2   43.15    2.03
   3   2  -2   42.67    1.78
   3   2  -2   41.77    1.78
   3   2  -2   43.87    1.84
  -3  -2   2   39.28    1.91
  -3  -2   2   36.28    1.91
   2   2  -2    0.88    0.09
   2   2  -2    0.54    0.13
   2   2  -2    1.02    0.22
   2   2  -2    0.62    0.15
   2   2  -2    0.98    0.10
  -2  -2   2    0.81    0.09
  -2  -2   2    0.85    0.15
  -2  -2   2    0.68    0.16
   1   2  -2    3.94    0.21
   1   2  -2    4.74    0.29
   1   2  -2    4.01    0.26
   1   2  -2    4.01    0.26
  -1  -2   2    3.98    0.20
  -1  -2   2    3.98    0.28
  -1  -2   2    4.04    0.28
   0   2  -2   26.72    1.19
   0   2  -2   26.02    1.16
   0   2  -2   27.14    1.16
   0  -2   2   27.61    1.17
   0  -2   2   24.47    1.19
   0  -2   2   26.37    1.15
  -1   2  -2   19.15    0.84
  -1   2  -2   18.58    0.82
  -1   2  -2   18.42    0.85
   1  -2   2   17.87    0.85
   1  -2   2   18.49    0.84
   1  -2   2   19.24    0.82
  -2   2  -2   54.25    2.38
  -2   2  -2   55.58    2.38
  -2   2  -2   55.93    2.41
  -2   2  -2   56.40    2.40
   2  -2   2   54.78    2.39
   2  -2   2   56.87    2.39
   2  -2   2   54.01    2.41
  -3   2  -2    8.48    0.45
  -3   2  -2    8.27    0.41
  -3   2  -2    8.37    0.50
  -3   2  -2    9.02    0.40
   3  -2   2    8.41    0.41
   3  -2   2    8.39    0.46
   3  -2   2    8.66    0.47
  -4   2  -2   34.69    1.47
  -4   2  -2   35.75    1.50
   4  -2   2   34.62    1.61
   4  -2   2   32.53    1.58
   4  -2   2   34.76    1.49
  -5   2  -2   38.09    1.94
  -5   2  -2   41.64    1.81
  -5   2  -2   43.14    1.73
   5  -2   2   39.36    1.80
   5  -2   2   40.11    1.87
  -6   2  -2    4.31    0.23
  -6   2  -2    3.59    0.48
   6  -2   2    4.38    0.40
  -7   2  -2   42.61    2.24
   7  -2   2   44.45    2.08
  -8   2  -2    0.47    0.54
  -9   2  -2   -0.01    0.55
   9  -2   2    0.64    0.43
 -10   2  -2    6.22    0.96
  10  -2   2    6.63    0.84
   9   1  -2    0.06    0.59
   9   1  -2   -0.42    0.42
  -9  -1   2   -0.45    0.58
   8   1  -2    4.03    0.69
   8   1  -2    4.21    0.48
  -8  -1   2    3.88    0.48
  -8  -1   2    2.78    0.70
   7   1  -2    2.02    0.29
   7   1  -2    2.06    0.49
  -7  -1   2    2.24    0.35
  -7  -1   2    1.47    0.50
   6   1  -2   13.69    0.75
   6   1  -2   13.77    0.93
  -6  -1   2   13.62    0.77
  -6  -1   2   13.88    0.95
   5   1  -2   22.05    1.28
   5   1  -2   24.75    1.12
   5   1  -2   24.92    1.10
   5   1  -2   24.06    1.13
  -5  -1   2   25.89    1.15
  -5  -1   2   22.95    1.16
  -5  -1   2   23.03    1.31
   4   1  -2   12.56    0.62
   4   1  -2   13.27    0.63
   4   1  -2   11.81    0.76
   4   1  -2   13.68    0.63
  -4  -1   2   11.86    0.76
  -4  -1   2   13.78    0.62
   3   1  -2    4.21    0.35
   3   1  -2    4.76    0.28
   3   1  -2    4.94    0.26
   3   1  -2    4.38    0.25
   3   1  -2    4.12    0.39
  -3  -1   2    4.31    0.36
  -3  -1   2    4.95    0.25
  -3  -1   2    4.86    0.31
   2   1  -2   -0.07    0.06
   2   1  -2    0.12    0.10
   2   1  -2   -0.04    0.03
   2   1  -2    0.03    0.12
   2   1  -2   -0.07    0.03
  -2  -1   2   -0.16    0.11
  -2  -1   2    0.03    0.09
  -2  -1   2    0.02    0.07
  -2  -1   2    0.04    0.03
   1   1  -2  134.14    5.99
   1   1  -2  141.62    5.99
   1   1  -2  148.66    6.04
   1   1  -2  143.75    6.05
  -1  -1   2  143.53    6.06
  -1  -1   2  142.98    6.04
   0   1  -2   15.17    0.66
   0   1  -2   15.43    0.67
   0   1  -2   15.18    0.68
   0  -1   2   15.34    0.67
   0  -1   2   14.75    0.66
   0  -1   2   15.19    0.69
  -1   1  -2  181.53    7.52
  -1   1  -2  181.97    7.51
  -1   1  -2  159.95    7.51
   1  -1   2  181.56    7.51
   1  -1   2  187.79    7.51
   1  -1   2  176.59    7.51
  -2   1  -2   34.13    1.44
  -2   1  -2   32.95    1.52
  -2   1  -2   34.96    1.49
   2  -1   2   34.65    1.51
   2  -1   2   33.80    1.50
  -3   1  -2   67.70    2.89
  -3   1  -2   65.95    2.96
   3  -1   2   67.30    2.91
   3  -1   2   67.51    2.94
  -4   1  -2   18.28    0.99
   4  -1   2   18.90    0.91
  -5   1  -2   12.44    0.81
   5  -1   2   13.52    0.72
  -6   1  -2   72.98    3.45
   6  -1   2   75.18    3.30
  -7   1  -2    6.53    0.71
   7  -1   2    6.60    0.56
  -8   1  -2    2.60    0.57
   8  -1   2    1.92    0.39
  -9   1  -2    8.12    1.00
   9  -1   2   10.35    0.88
 -10   1  -2   -0.36    0.76
  10  -1   2   -0.34    0.57
  10   0  -2    5.80    0.76
  10   0  -2    7.62    1.09
 -10   0   2    5.35    1.05
   9   0  -2    2.25    0.60
   9   0  -2    2.17    0.63
  -9   0   2    1.69    0.66
   8   0  -2    1.90    0.39
   8   0  -2    2.09    0.53
  -8   0   2    1.70    0.35
  -8   0   2    2.28    0.55
   7   0  -2   16.41    0.88
   7   0  -2   15.56    1.05
  -7   0   2   16.52    1.08
  -7   0   2   14.68    0.85
   6   0  -2   18.19    1.14
   6   0  -2   18.93    0.95
  -6   0   2   18.24    1.15
  -6   0   2   18.67    0.94
   5   0  -2   17.08    0.74
   5   0  -2   14.97    0.78
   5   0  -2   13.88    0.91
  -5   0   2   15.11    0.93
  -5   0   2   15.75    0.79
  -5   0   2   16.07    0.75
   4   0  -2    1.57    0.17
   4   0  -2    1.33    0.14
   4   0  -2    1.23    0.26
  -4   0   2    1.60    0.17
  -4   0   2    1.73    0.29
  -4   0   2    1.53    0.16
   3   0  -2    3.10    0.29
   3   0  -2    3.10    0.21
   3   0  -2    3.62    0.20
   3   0  -2    3.02    0.34
  -3   0   2    3.18    0.29
  -3   0   2    3.32    0.21
  -3   0   2    3.39    0.20
   2   0  -2    0.98    0.09
   2   0  -2    0.91    0.14
   2   0  -2    0.78    0.14
  -2   0   2    0.85    0.14
  -2   0   2    0.86    0.13
  -2   0   2    0.96    0.08
  -2   0   2    0.84    0.09
   1   0  -2  119.68    5.11
   1   0  -2  120.17    5.07
   1   0  -2  124.08    5.09
  -1   0   2  115.42    5.09
  -1   0   2  125.08    5.11
  -1   0   2  119.53    5.07
   0   0  -2    7.35    0.33
   0   0  -2    7.28    0.33
   0   0   2    7.30    0.32
   0   0   2    6.66    0.32
   0   0   2    7.39    0.33
  -1   0  -2   68.30    2.93
  -1   0  -2   66.04    2.88
  -1   0  -2   71.20    2.90
   1   0   2   68.08    2.90
   1   0   2   68.91    2.90
   1   0   2   65.11    2.88
   1   0   2   71.27    2.92
  -2   0  -2   32.31    1.36
  -2   0  -2   30.44    1.41
   2   0   2   30.45    1.31
   2   0   2   30.33    1.32
   2   0   2   31.95    1.40
  -3   0  -2    2.74    0.22
   3   0   2    2.70    0.15
   3   0   2    2.94    0.30
   3   0   2    3.03    0.14
  -4   0  -2    8.86    0.60
   4   0   2    9.47    0.42
   4   0   2    9.37    0.50
   4   0   2    7.84    0.41
  -5   0  -2   19.43    0.84
  -5   0  -2   16.88    1.06
   5   0   2   17.76    0.92
   5   0   2   19.52    0.80
   5   0   2   18.53    0.83
  -6   0  -2   37.91    2.01
   6   0   2   38.75    1.82
   6   0   2   40.28    1.66
   6   0   2   38.39    1.69
  -7   0  -2   20.48    1.33
   7   0   2   21.61    1.13
  -8   0  -2    9.39    1.07
   8   0   2    8.20    0.73
  -9   0  -2    0.29    0.66
   9   0   2   -0.25    0.39
  10  -1  -2    3.20    0.86
  10  -1  -2    3.32    0.62
 -10   1   2    2.22    0.85
   9  -1  -2   -0.03    0.46
   9  -1  -2    2.24    0.59
  -9   1   2    0.98    0.57
   8  -1  -2    6.09    0.61
   8  -1  -2    5.27    0.80
  -8   1   2    6.02    0.50
  -8   1   2    5.75    0.87
   7  -1  -2    1.96    0.32
   7  -1  -2    2.84    0.49
  -7   1   2    2.20    0.27
  -7   1   2    2.41    0.49
   6  -1  -2   10.35    0.51
   6  -1  -2    8.72    0.72
   6  -1  -2    9.30    0.59
  -6   1   2    9.41    0.72
  -6   1   2    9.84    0.53
   5  -1  -2   56.95    2.54
   5  -1  -2   53.93    2.64
   5  -1  -2   61.14    2.48
  -5   1   2   54.63    2.65
  -5   1   2   57.11    2.51
  -5   1   2   60.46    2.51
   4  -1  -2   65.19    2.69
   4  -1  -2   63.06    2.81
   4  -1  -2   58.17    2.80
   4  -1  -2   65.86    2.74
  -4   1   2   59.60    2.81
  -4   1   2   63.52    2.69
  -4   1   2   63.17    2.71
   3  -1  -2   23.29    1.13
   3  -1  -2   24.39    1.08
   3  -1  -2   24.67    1.06
   3  -1  -2   22.64    1.14
  -3   1   2   23.70    1.07
  -3   1   2   24.69    1.14
  -3   1   2   24.09    1.05
   2  -1  -2   35.71    1.49
   2  -1  -2   33.00    1.52
   2  -1  -2   33.73    1.52
   2  -1  -2   32.85    1.50
  -2   1   2   34.91    1.48
  -2   1   2   35.93    1.50
  -2   1   2   34.20    1.52
   1  -1  -2   38.31    1.62
   1  -1  -2   37.16    1.61
   1  -1  -2   37.00    1.61
  -1   1   2   38.68    1.62
  -1   1   2   38.60    1.62
  -1   1   2   35.96    1.63
   0  -1  -2   10.25    0.47
   0  -1  -2    9.92    0.47
   0  -1  -2   10.22    0.48
   0   1   2   10.34    0.47
   0   1   2   10.71    0.46
   0   1   2   10.34    0.47
  -1  -1  -2    2.47    0.20
  -1  -1  -2    2.64    0.18
   1   1   2    2.73    0.17
   1   1   2    2.63    0.19
   1   1   2    3.10    0.17
  -2  -1  -2   14.86    0.66
  -2  -1  -2   13.40    0.65
  -2  -1  -2   13.65    0.72
   2   1   2   13.80    0.65
   2   1   2   13.94    0.65
   2   1   2   14.09    0.71
   2   1   2   14.89    0.66
   2   1   2   13.32    0.64
  -3  -1  -2   11.80    0.60
  -3  -1  -2   11.93    0.72
   3   1   2   12.41    0.61
   3   1   2   11.87    0.71
   3   1   2   12.45    0.59
   3   1   2   13.08    0.58
   3   1   2   11.98    0.60
  -4  -1  -2   26.25    1.41
   4   1   2   27.12    1.25
   4   1   2   26.78    1.28
   4   1   2   30.83    1.23
  -5  -1  -2   40.42    2.11
   5   1   2   47.40    1.86
   5   1   2   42.48    1.89
   5   1   2   41.20    1.95
  -6  -1  -2   12.17    0.92
   6   1   2   11.21    0.62
   6   1   2   10.75    0.67
   6   1   2   13.40    0.56
  -7  -1  -2    1.10    0.51
   7   1   2    0.71    0.25
  -8  -1  -2   15.53    1.35
   8   1   2   15.08    0.98
  -9  -1  -2   13.16    1.43
   9   1   2   11.06    0.96
  10  -2  -2    1.08    0.72
  10  -2  -2    1.00    0.50
 -10   2   2    0.72    0.74
   9  -2  -2    0.18    0.39
   9  -2  -2    0.66    0.56
  -9   2   2    0.19    0.56
   8  -2  -2    0.24    0.30
   8  -2  -2    0.37    0.43
  -8   2   2    0.46    0.21
  -8   2   2    0.97    0.45
   7  -2  -2    1.47    0.35
   7  -2  -2    2.58    0.34
  -7   2   2    1.63    0.41
  -7   2   2    1.61    0.21
   6  -2  -2   27.50    1.26
   6  -2  -2   28.37    1.35
  -6   2   2   27.09    1.25
  -6   2   2   27.63    1.45
   5  -2  -2   18.38    0.83
   5  -2  -2   16.97    0.87
  -5   2   2   16.51    0.95
   4  -2  -2    6.52    0.37
   4  -2  -2    6.57    0.48
   4  -2  -2    6.39    0.39
  -4   2   2    7.11    0.34
  -4   2   2    6.28    0.38
  -4   2   2    6.74    0.46
   3  -2  -2  166.11    6.96
   3  -2  -2  162.81    6.94
   3  -2  -2  160.85    6.97
   3  -2  -2  166.16    6.97
  -3   2   2  159.93    6.92
  -3   2   2  162.97    6.97
  -3   2   2  167.79    6.96
   2  -2  -2  607.12   24.97
   2  -2  -2  559.88   24.98
   2  -2  -2  593.70   24.99
   2  -2  -2  610.05   24.98
  -2   2   2  634.10   24.99
  -2   2   2  620.92   24.99
  -2   2   2  534.76   24.97
   1  -2  -2   16.71    0.76
   1  -2  -2   15.93    0.71
   1  -2  -2   16.68    0.78
  -1   2   2   17.05    0.72
  -1   2   2   17.67    0.77
  -1   2   2   16.68    0.77
   0  -2  -2   13.67    0.65
   0  -2  -2   13.30    0.68
   0  -2  -2   14.22    0.66
   0   2   2   13.69    0.67
   0   2   2   14.71    0.64
   0   2   2   14.45    0.66
  -1  -2  -2    1.10    0.16
  -1  -2  -2    1.35    0.18
  -1  -2  -2    1.21    0.13
   1   2   2    1.22    0.15
   1   2   2    1.26    0.14
   1   2   2    1.53    0.18
   1   2   2    1.40    0.18
  -2  -2  -2   50.59    2.32
  -2  -2  -2   55.95    2.41
   2   2   2   52.74    2.34
   2   2   2   52.10    2.32
   2   2   2   52.74    2.34
   2   2   2   56.08    2.38
   2   2   2   54.71    2.33
  -3  -2  -2    2.37    0.32
   3   2   2    2.74    0.22
   3   2   2    2.99    0.26
   3   2   2    3.06    0.27
  -4  -2  -2   14.94    0.93
   4   2   2   14.60    0.76
   4   2   2   15.29    0.76
   4   2   2   15.25    0.74
  -5  -2  -2    6.44    0.68
   5   2   2    6.24    0.44
   5   2   2    7.06    0.41
   5   2   2    6.55    0.45
  -6  -2  -2    5.01    0.66
   6   2   2    4.82    0.43
   6   2   2    4.05    0.47
  -7  -2  -2    8.68    1.02
   7   2   2    6.99    0.61
  -8  -2  -2    5.64    0.86
   8   2   2    4.62    0.57
  10  -3  -2    1.75    0.54
  10  -3  -2    2.44    0.69
 -10   3   2    1.39    0.67
   9  -3  -2    0.95    0.55
  -9   3   2    1.79    0.63
  -9   3   2    0.91    0.25
   8  -3  -2    4.27    0.59
   8  -3  -2    4.71    0.54
  -8   3   2    4.12    0.56
  -8   3   2    4.25    0.35
   7  -3  -2   11.35    0.73
  -7   3   2   11.47    0.58
  -7   3   2   10.57    0.85
   6  -3  -2    1.43    0.26
  -6   3   2    1.12    0.30
  -6   3   2    1.37    0.16
   5  -3  -2   26.20    1.33
   5  -3  -2   28.62    1.27
   5  -3  -2   27.13    1.30
  -5   3   2   27.56    1.21
  -5   3   2   25.77    1.33
   4  -3  -2    3.55    0.28
   4  -3  -2    3.08    0.28
   4  -3  -2    3.29    0.34
  -4   3   2    3.79    0.33
  -4   3   2    3.30    0.30
   3  -3  -2   12.60    0.63
   3  -3  -2   12.60    0.65
   3  -3  -2   12.84    0.66
   3  -3  -2   12.02    0.62
  -3   3   2   13.16    0.66
  -3   3   2   12.79    0.63
  -3   3   2   12.35    0.63
   2  -3  -2    7.03    0.32
   2  -3  -2    7.14    0.39
   2  -3  -2    6.67    0.33
   2  -3  -2    6.91    0.41
  -2   3   2    7.14    0.40
  -2   3   2    6.99    0.39
   1  -3  -2    1.70    0.16
   1  -3  -2    1.68    0.21
  -1   3   2    2.00    0.18
  -1   3   2    1.61    0.19
   0  -3  -2   14.09    0.67
   0  -3  -2   13.49    0.66
   0  -3  -2   13.41    0.72
   0   3   2   14.53    0.72
   0   3   2   14.14    0.68
   0   3   2   15.12    0.65
  -1  -3  -2   64.20    2.83
  -1  -3  -2   59.66    2.79
  -1  -3  -2   67.26    2.86
   1   3   2   67.16    2.82
   1   3   2   65.40    2.84
   1   3   2   65.64    2.86
   1   3   2   64.26    2.81
  -2  -3  -2    5.00    0.31
   2   3   2    5.41    0.40
   2   3   2    5.18    0.42
   2   3   2    4.80    0.32
   2   3   2    5.47    0.37
  -3  -3  -2    9.41    0.64
  -3  -3  -2    9.06    0.51
   3   3   2    8.98    0.55
   3   3   2    9.38    0.57
   3   3   2    9.29    0.51
  -4  -3  -2    3.22    0.45
   4   3   2    4.62    0.31
   4   3   2    3.76    0.39
   4   3   2    4.22    0.38
  -5  -3  -2    0.83    0.38
   5   3   2    0.77    0.24
   5   3   2    0.59    0.19
  -6  -3  -2    7.93    0.98
   6   3   2    7.16    0.58
   6   3   2    8.64    0.57
  -7  -3  -2    4.41    0.82
   7   3   2    3.76    0.45
  -8  -3  -2    8.14    1.12
   8   3   2    9.05    0.77
   8   3   2    5.99    0.88
  10  -4  -2    1.30    0.71
  10  -4  -2    1.57    0.52
 -10   4   2    2.45    0.73
   9  -4  -2    0.41    0.41
   9  -4  -2    0.69    0.47
  -9   4   2    0.20    0.21
  -9   4   2    0.37    0.45
   8  -4  -2   18.25    1.22
   8  -4  -2   20.69    1.13
  -8   4   2   19.77    0.95
  -8   4   2   21.27    1.30
   7  -4  -2    2.47    0.35
  -7   4   2    2.38    0.43
  -7   4   2    2.27    0.22
   6  -4  -2   27.12    1.37
  -6   4   2   26.98    1.40
  -6   4   2   28.47    1.25
   5  -4  -2   11.09    0.67
   5  -4  -2   11.33    0.67
  -5   4   2   10.97    0.68
  -5   4   2   12.01    0.59
   4  -4  -2  234.96    9.64
   4  -4  -2  218.15    9.68
  -4   4   2  218.88    9.64
  -4   4   2  237.12    9.65
   3  -4  -2   14.03    0.74
   3  -4  -2   15.34    0.66
   3  -4  -2   13.57    0.77
   3  -4  -2   14.28    0.66
  -3   4   2   15.07    0.67
  -3   4   2   13.79    0.73
   2  -4  -2    7.25    0.49
   2  -4  -2    8.10    0.45
  -2   4   2    7.98    0.47
  -2   4   2    7.65    0.46
   1  -4  -2    0.22    0.18
   1  -4  -2   -0.01    0.08
  -1   4   2    0.05    0.12
  -1   4   2   -0.12    0.14
   0  -4  -2   24.56    1.24
   0  -4  -2   25.43    1.16
   0  -4  -2   25.52    1.14
   0   4   2   23.58    1.21
   0   4   2   27.63    1.14
   0   4   2   25.10    1.24
   0   4   2   24.87    1.13
  -1  -4  -2    0.01    0.09
  -1  -4  -2   -0.10    0.13
   1   4   2    0.18    0.14
   1   4   2   -0.26    0.16
  -2  -4  -2   25.13    1.19
  -2  -4  -2   25.27    1.26
   2   4   2   24.42    1.25
   2   4   2   26.68    1.26
   2   4   2   26.30    1.19
  -3  -4  -2    0.22    0.13
  -3  -4  -2    0.34    0.24
   3   4   2   -0.01    0.11
   3   4   2    0.25    0.21
  -4  -4  -2    3.28    0.48
   4   4   2    2.69    0.35
   4   4   2    3.07    0.32
  -5  -4  -2   -0.34    0.44
   5   4   2   -0.01    0.27
   5   4   2    0.14    0.20
  -6  -4  -2    2.33    0.63
   6   4   2    2.43    0.39
   6   4   2    2.23    0.63
   6   4   2    2.67    0.36
  -7  -4  -2   13.22    1.35
   7   4   2   14.79    1.33
   7   4   2   12.23    0.86
  10  -5  -2   -0.08    0.63
  10  -5  -2   -0.19    0.47
 -10   5   2    0.04    0.66
   9  -5  -2    1.53    0.56
   9  -5  -2    1.71    0.48
  -9   5   2    1.55    0.25
  -9   5   2    1.71    0.56
   8  -5  -2    4.39    0.56
   8  -5  -2    4.18    0.49
  -8   5   2    4.10    0.34
  -8   5   2    3.96    0.55
   7  -5  -2    0.93    0.28
  -7   5   2    1.11    0.34
  -7   5   2    1.12    0.17
   6  -5  -2   10.35    0.67
  -6   5   2   10.70    0.57
  -6   5   2   10.33    0.70
   5  -5  -2   11.45    0.64
   5  -5  -2   10.91    0.69
  -5   5   2   11.21    0.63
  -5   5   2   12.22    0.67
   4  -5  -2   92.55    3.62
   4  -5  -2   82.29    3.72
   4  -5  -2   82.29    3.63
  -4   5   2   80.22    3.69
  -4   5   2   85.48    3.64
   3  -5  -2   37.96    1.73
  -3   5   2   37.09    1.73
  -2   5   2   10.86    0.63
   1  -5  -2    0.05    0.11
  -1   5   2   -0.08    0.18
   0  -5  -2   15.68    0.82
   0  -5  -2   16.80    0.79
   0   5   2   15.83    0.78
   0   5   2   18.42    0.79
   0   5   2   16.39    0.90
  -1  -5  -2    2.31    0.29
  -1  -5  -2    1.58    0.21
   1   5   2    1.33    0.23
   1   5   2    1.73    0.26
   1   5   2    1.55    0.30
  -2  -5  -2    2.48    0.34
  -2  -5  -2    2.57    0.29
   2   5   2    2.22    0.32
   2   5   2    2.30    0.31
   2   5   2    2.64    0.25
  -3  -5  -2    0.10    0.28
  -3  -5  -2   -0.07    0.16
   3   5   2   -0.01    0.28
   3   5   2    0.29    0.16
   3   5   2    0.00    0.23
  -4  -5  -2    4.79    0.44
  -4  -5  -2    5.67    0.68
   4   5   2    6.07    0.56
   4   5   2    4.69    0.59
   4   5   2    4.99    0.42
  -5  -5  -2    0.08    0.51
   5   5   2    0.91    0.47
   5   5   2    0.71    0.35
   5   5   2    0.43    0.23
  -6  -5  -2    5.82    0.88
   6   5   2    6.04    0.80
   6   5   2    4.96    0.54
  -7  -5  -2    0.67    0.86
   7   5   2    2.13    0.83
   7   5   2    1.16    0.41
  10  -6  -2    4.13    0.79
  10  -6  -2    5.00    0.70
 -10   6   2    5.03    0.83
   9  -6  -2    4.71    0.62
   9  -6  -2    3.64    0.66
  -9   6   2    4.81    0.70
  -9   6   2    4.53    0.41
   8  -6  -2    3.31    0.47
   8  -6  -2    2.34    0.43
  -8   6   2    3.10    0.32
  -8   6   2    3.43    0.53
   7  -6  -2    1.31    0.36
   7  -6  -2    1.54    0.34
  -7   6   2    0.76    0.36
  -7   6   2    1.39    0.23
   6  -6  -2   13.11    0.75
   6  -6  -2   12.55    0.74
   6  -6  -2   13.24    0.83
  -6   6   2   14.10    0.73
  -6   6   2   11.81    0.77
   5  -6  -2   80.51    3.15
   5  -6  -2   70.73    3.28
   5  -6  -2   67.96    3.17
  -5   6   2   74.09    3.19
  -5   6   2   72.03    3.24
   4  -6  -2   11.99    0.53
   4  -6  -2   11.39    0.54
   4  -6  -2   11.88    0.71
  -4   6   2   11.28    0.68
   3  -6  -2    2.19    0.27
  -3   6   2    1.48    0.26
   2  -6  -2   21.79    1.07
  -2   6   2   20.88    1.12
   1  -6  -2    0.22    0.14
  -1   6   2   -0.02    0.23
   0  -6  -2   13.84    0.74
   0   6   2   15.18    0.71
   0   6   2   13.41    0.86
   0   6   2   13.67    0.68
  -1  -6  -2    0.32    0.16
  -1  -6  -2    0.08    0.25
   1   6   2    0.30    0.26
   1   6   2    0.21    0.26
   1   6   2    0.25    0.30
  -2  -6  -2    0.35    0.19
  -2  -6  -2    0.26    0.26
   2   6   2    0.60    0.19
   2   6   2    0.14    0.26
   2   6   2   -0.43    0.27
  -3  -6  -2    0.23    0.22
  -3  -6  -2   -0.16    0.33
   3   6   2    0.27    0.30
   3   6   2    0.22    0.19
   3   6   2    0.01    0.33
  -4  -6  -2    3.11    0.38
  -4  -6  -2    2.72    0.55
   4   6   2    3.51    0.51
   4   6   2    3.44    0.41
   4   6   2    3.93    0.56
  -5  -6  -2    8.56    1.00
   5   6   2    6.62    0.81
   5   6   2    6.61    0.75
   5   6   2    7.21    0.59
  -6  -6  -2   10.82    1.27
   6   6   2    9.81    1.10
   6   6   2   10.30    0.79
  10  -7  -2    1.02    0.61
  10  -7  -2    0.94    0.60
 -10   7   2    0.60    0.73
   9  -7  -2    0.89    0.50
   9  -7  -2    0.12    0.41
  -9   7   2    0.64    0.54
  -9   7   2   -0.08    0.23
   8  -7  -2    0.51    0.34
   8  -7  -2    0.65    0.38
  -8   7   2    0.53    0.40
  -8   7   2    0.53    0.22
   7  -7  -2    0.29    0.30
  -7   7   2    0.09    0.30
  -7   7   2   -0.16    0.21
   6  -7  -2    3.98    0.48
   6  -7  -2    3.24    0.35
  -6   7   2    4.78    0.44
  -6   7   2    3.59    0.38
   5  -7  -2   26.09    1.35
   5  -7  -2   26.97    1.15
   5  -7  -2   25.26    1.18
  -5   7   2   25.90    1.33
  -5   7   2   27.89    1.20
   4  -7  -2   11.00    0.71
  -4   7   2   12.49    0.76
   3  -7  -2   20.54    1.08
  -3   7   2   21.16    1.13
   2  -7  -2    3.12    0.36
  -2   7   2    2.40    0.40
   1  -7  -2   11.35    0.67
  -1   7   2   11.53    0.78
   0  -7  -2   17.11    0.94
   0   7   2   16.75    1.10
   0   7   2   20.09    0.90
   0   7   2   18.31    0.85
  -1  -7  -2   30.18    1.41
   1   7   2   28.35    1.52
   1   7   2   28.25    1.37
  -2  -7  -2   17.51    0.93
   2   7   2   17.11    1.08
   2   7   2   14.94    0.94
   2   7   2   17.65    0.91
  -3  -7  -2    0.32    0.26
   3   7   2    0.54    0.37
   3   7   2    0.53    0.41
   3   7   2    0.03    0.25
  -4  -7  -2   11.40    0.77
   4   7   2   10.91    0.74
   4   7   2   11.80    0.98
   4   7   2   11.57    1.02
  -5  -7  -2    3.63    0.77
   5   7   2    1.33    0.37
   5   7   2    1.29    0.57
   5   7   2    2.03    0.67
  10  -8  -2    3.94    0.72
   9  -8  -2    1.43    0.47
  -9   8   2    0.54    0.29
   8  -8  -2   -0.94    0.35
   7  -8  -2   -0.28    0.34
  -7   8   2    0.20    0.26
   6  -8  -2    2.06    0.39
  -6   8   2    2.33    0.37
   5  -8  -2   13.15    0.86
  -5   8   2   14.63    0.89
   4  -8  -2    3.96    0.50
  -4   8   2    3.52    0.45
   3  -8  -2   19.79    1.08
  -3   8   2   19.89    1.15
   2  -8  -2    3.71    0.43
  -2   8   2    3.03    0.45
   1  -8  -2   18.92    1.00
  -1   8   2   17.67    1.11
   0  -8  -2    0.80    0.27
  -1  -8  -2    4.29    0.43
   1   8   2    3.63    0.57
  -2  -8  -2    0.01    0.28
   2   8   2    0.60    0.27
   2   8   2    0.18    0.51
  -3  -8  -2    7.97    0.68
   3   8   2    7.70    0.90
   3   8   2    7.95    0.64
  -4  -8  -2    1.91    0.46
   4   8   2    3.13    0.70
   4   8   2    3.17    0.46
   9  -9  -2    0.46    0.49
  -9   9   2    0.67    0.33
   8  -9  -2    0.46    0.44
  -8   9   2    0.39    0.34
   7  -9  -2    0.21    0.36
  -7   9   2    0.08    0.33
   6  -9  -2   -0.51    0.35
  -6   9   2    0.08    0.29
   5  -9  -2    1.21    0.39
  -5   9   2    1.00    0.39
   4  -9  -2    1.09    0.34
  -4   9   2    1.36    0.39
   3  -9  -2   11.38    0.76
  -3   9   2   11.47    0.92
   2  -9  -2    6.62    0.55
  -2   9   2    5.58    0.67
   1  -9  -2   31.96    1.55
  -1   9   2   28.87    1.67
   0  -9  -2   14.15    0.91
   0   9   2   15.59    1.16
  -1  -9  -2    4.78    0.52
   1   9   2    5.35    0.75
  -2  -9  -2   11.96    0.84
   2   9   2   10.23    1.10
   2   9   2   12.13    0.83
   8 -10  -2   -0.28    0.46
  -8  10   2    0.22    0.36
   7 -10  -2    1.82    0.51
  -7  10   2    2.14    0.47
   6 -10  -2    2.94    0.54
  -6  10   2    3.37    0.56
   5 -10  -2    0.04    0.34
  -5  10   2   -0.24    0.43
   4 -10  -2    0.57    0.35
  -4  10   2    0.19    0.48
   3 -10  -2   -0.23    0.31
  -3  10   2    0.99    0.45
   2 -10  -2   12.48    0.87
  -2  10   2   12.11    1.06
   1 -10  -2    7.67    0.67
  -1  10   2    7.80    0.97
   0 -10  -2   -0.07    0.33
   0  10   2   -0.15    0.54
  -1 -10  -2    3.98    0.54
   1  10   2    5.15    0.81
   7 -11  -2    1.49    0.60
  -7  11   2    1.28    0.54
   6 -11  -2    1.26    0.55
  -6  11   2    0.67    0.50
   5 -11  -2   -0.59    0.39
  -5  11   2   -0.84    0.47
   4 -11  -2   -0.05    0.40
  -4  11   2   -0.03    0.49
   3 -11  -2   19.76    1.20
  -3  11   2   17.99    1.32
   2 -11  -2    4.84    0.62
  -2  11   2    5.59    0.85
   1 -11  -2   -0.35    0.44
  -1  11   2    0.23    0.66
  -1  11  -3    5.48    0.85
   1 -11   3    4.58    0.58
  -2  11  -3   -0.78    0.61
   2 -11   3    0.63    0.40
  -3  11  -3    2.23    0.75
   3 -11   3    1.29    0.41
  -4  11  -3   -0.22    0.61
   4 -11   3    1.55    0.47
  -5  11  -3    0.97    0.60
   5 -11   3    1.03    0.45
  -6  11  -3    3.36    0.68
   6 -11   3    3.01    0.61
  -7  11  -3    1.08    0.55
   7 -11   3    1.01    0.56
   1  10  -3    1.50    0.67
  -1 -10   3    1.92    0.41
   0  10  -3    0.95    0.57
   0 -10   3   -0.09    0.34
  -1  10  -3   10.19    1.16
   1 -10   3   12.81    0.83
  -2  10  -3   17.56    1.20
   2 -10   3   14.92    0.95
  -3  10  -3    3.51    0.70
   3 -10   3    4.14    0.50
  -4  10  -3   -0.17    0.51
   4 -10   3    0.77    0.34
  -5  10  -3   -0.17    0.42
   5 -10   3    0.26    0.37
  -6  10  -3    3.83    0.62
   6 -10   3    4.59    0.61
  -7  10  -3    0.21    0.44
   7 -10   3   -0.32    0.52
  -8  10  -3    2.96    0.77
   8 -10   3    4.30    0.68
   3   9  -3    0.23    0.72
   2   9  -3   21.29    1.34
   2   9  -3   21.38    1.56
  -2  -9   3   19.79    1.21
   1   9  -3    4.93    0.73
   1   9  -3    5.02    0.46
  -1  -9   3    4.28    0.51
   0   9  -3    0.94    0.57
   0   9  -3    0.60    0.20
   0  -9   3    0.18    0.27
  -1   9  -3   14.90    1.18
  -1   9  -3   15.92    0.78
   1  -9   3   16.37    0.91
  -2   9  -3    8.16    0.48
  -2   9  -3    7.85    0.87
   2  -9   3    9.11    0.64
  -3   9  -3    4.86    0.62
  -3   9  -3    3.79    0.38
   3  -9   3    5.25    0.56
  -4   9  -3    1.64    0.30
   4  -9   3    1.57    0.43
  -5   9  -3    0.54    0.36
  -5   9  -3   -0.26    0.39
   5  -9   3    0.57    0.36
  -6   9  -3    0.01    0.39
  -6   9  -3    0.03    0.35
   6  -9   3    0.26    0.39
  -7   9  -3    1.78    0.44
  -7   9  -3    3.88    0.68
   7  -9   3    1.86    0.50
  -8   9  -3    0.01    0.42
   8  -9   3   -0.20    0.51
   9  -9   3    0.91    0.64
   4   8  -3    2.48    0.48
   4   8  -3    2.30    0.64
  -4  -8   3    2.57    0.70
   3   8  -3    0.80    0.61
   3   8  -3    1.94    0.29
   3   8  -3    0.95    0.35
  -3  -8   3    2.00    0.61
  -3  -8   3    1.41    0.29
   2   8  -3    6.79    0.83
   2   8  -3    7.36    0.58
  -2  -8   3    7.62    0.54
  -2  -8   3    7.44    0.84
   1   8  -3    0.78    0.41
   1   8  -3    0.55    0.22
  -1  -8   3    0.56    0.24
  -1  -8   3    0.13    0.40
   0   8  -3   26.97    1.72
   0   8  -3   30.59    1.36
   0  -8   3   27.76    1.73
   0  -8   3   30.53    1.41
  -1   8  -3    4.50    0.61
  -1   8  -3    4.20    0.30
   1  -8   3    4.55    0.42
  -2   8  -3   12.19    0.63
  -2   8  -3   13.19    0.94
   2  -8   3   12.76    0.76
  -3   8  -3   11.85    0.86
  -3   8  -3   10.39    0.59
   3  -8   3   10.76    0.70
  -4   8  -3   11.15    0.83
  -4   8  -3   12.21    0.68
   4  -8   3    9.95    0.72
  -5   8  -3    0.20    0.33
  -5   8  -3    0.65    0.29
   5  -8   3    0.46    0.27
  -6   8  -3    1.79    0.42
  -6   8  -3    1.88    0.39
   6  -8   3    2.05    0.44
  -7   8  -3    6.70    0.61
  -7   8  -3    7.15    0.78
   7  -8   3    7.09    0.80
  -8   8  -3    0.22    0.56
  -8   8  -3    0.88    0.47
   8  -8   3    0.95    0.52
  -9   8  -3   -0.55    0.73
   9  -8   3   -0.12    0.58
   5   7  -3    0.18    0.63
   5   7  -3    0.41    0.45
  -5  -7   3   -1.29    0.53
   4   7  -3   20.81    1.65
   4   7  -3   21.59    1.07
   4   7  -3   20.01    1.36
  -4  -7   3   21.97    1.46
  -4  -7   3   22.56    1.09
   3   7  -3   17.69    1.23
   3   7  -3   17.18    1.00
   3   7  -3   17.56    0.89
  -3  -7   3   17.56    0.90
  -3  -7   3   17.59    1.18
   2   7  -3   -0.49    0.32
   2   7  -3   -0.08    0.23
  -2  -7   3   -0.25    0.34
  -2  -7   3   -0.01    0.17
   1   7  -3    1.88    0.26
   1   7  -3    1.89    0.42
  -1  -7   3    2.09    0.45
  -1  -7   3    2.01    0.25
   0   7  -3   40.13    1.80
   0   7  -3   39.60    2.05
   0  -7   3   40.67    2.04
   0  -7   3   41.54    1.85
  -1   7  -3    2.45    0.43
  -1   7  -3    2.46    0.21
  -1   7  -3    2.36    0.38
   1  -7   3    2.77    0.45
   1  -7   3    1.65    0.36
   1  -7   3    2.49    0.30
  -2   7  -3   16.53    0.80
  -2   7  -3   16.25    1.03
   2  -7   3   18.88    0.91
   2  -7   3   16.54    0.89
  -3   7  -3    0.20    0.29
  -3   7  -3    0.17    0.14
   3  -7   3    0.15    0.20
   3  -7   3    0.34    0.17
  -4   7  -3    2.97    0.35
  -4   7  -3    2.48    0.38
   4  -7   3    2.30    0.33
  -5   7  -3    2.51    0.35
  -5   7  -3    2.53    0.37
   5  -7   3    2.03    0.34
  -6   7  -3    1.84    0.38
  -6   7  -3    1.72    0.30
   6  -7   3    2.00    0.38
  -7   7  -3    0.33    0.42
  -7   7  -3    0.03    0.23
   7  -7   3   -0.71    0.29
  -8   7  -3   -0.90    0.50
   8  -7   3   -0.04    0.44
  -9   7  -3   -0.50    0.61
   9  -7   3    0.19    0.47
 -10   7  -3    5.91    1.08
  10  -7   3    6.96    0.92
   6   6  -3    0.16    0.59
   6   6  -3    0.17    0.53
  -6  -6   3    1.14    0.64
   5   6  -3    4.50    0.43
   5   6  -3    4.53    0.67
   5   6  -3    3.81    0.59
  -5  -6   3    4.03    0.63
   4   6  -3    0.46    0.31
   4   6  -3    0.20    0.17
   4   6  -3    0.39    0.36
  -4  -6   3    0.49    0.45
   3   6  -3    0.80    0.27
   3   6  -3    0.69    0.32
   3   6  -3    0.64    0.16
  -3  -6   3    0.30    0.35
  -3  -6   3    0.54    0.17
   2   6  -3   40.33    2.05
   2   6  -3   40.40    1.90
  -2  -6   3   40.41    1.83
  -2  -6   3   43.19    2.07
   1   6  -3   40.55    1.84
   1   6  -3   42.81    2.03
  -1  -6   3   38.39    1.99
  -1  -6   3   40.74    1.81
   0   6  -3   17.16    0.95
   0   6  -3   16.74    0.99
   0   6  -3   16.76    0.81
   0  -6   3   16.80    1.01
   0  -6   3   16.95    0.94
   0  -6   3   17.00    0.84
  -1   6  -3    0.41    0.27
  -1   6  -3    0.41    0.10
   1  -6   3    0.65    0.17
   1  -6   3    0.50    0.24
   1  -6   3    0.47    0.21
  -2   6  -3   54.04    2.55
   2  -6   3   53.35    2.46
   2  -6   3   52.05    2.54
   2  -6   3   59.95    2.42
  -3   6  -3    9.85    0.54
  -3   6  -3    9.84    0.66
   3  -6   3   10.43    0.53
   3  -6   3    9.62    0.61
  -4   6  -3    7.41    0.56
  -4   6  -3    7.30    0.50
   4  -6   3    7.98    0.54
  -5   6  -3    2.62    0.32
  -5   6  -3    2.77    0.36
   5  -6   3    1.80    0.30
  -6   6  -3   16.21    0.85
  -6   6  -3   15.90    0.99
   6  -6   3   16.37    1.00
  -7   6  -3    2.69    0.32
  -7   6  -3    3.55    0.56
   7  -6   3    2.73    0.55
  -8   6  -3    2.69    0.62
   8  -6   3    3.51    0.56
  -9   6  -3    3.51    0.80
   9  -6   3    3.88    0.67
 -10   6  -3   10.41    1.25
  10  -6   3   11.84    1.11
   7   5  -3    3.03    0.63
   7   5  -3    2.14    0.72
  -7  -5   3    2.29    0.68
   6   5  -3    0.84    0.27
   6   5  -3    1.06    0.85
   6   5  -3    0.91    0.57
   5   5  -3    1.29    0.21
   5   5  -3    0.85    0.37
   5   5  -3    1.39    0.45
  -5  -5   3    1.30    0.41
   4   5  -3    0.40    0.30
   4   5  -3    0.08    0.29
   4   5  -3    0.04    0.13
  -4  -5   3    0.04    0.34
   3   5  -3   39.71    1.78
   3   5  -3   40.49    1.93
  -3  -5   3   40.70    1.98
  -3  -5   3   40.41    1.79
   2   5  -3    2.60    0.38
   2   5  -3    3.43    0.33
   2   5  -3    2.45    0.33
  -2  -5   3    2.29    0.21
  -2  -5   3    2.12    0.37
   1   5  -3    0.69    0.16
   1   5  -3    0.60    0.19
   1   5  -3    0.47    0.21
  -1  -5   3    0.54    0.12
  -1  -5   3    0.55    0.21
   0   5  -3   42.85    1.90
   0   5  -3   45.88    1.94
   0   5  -3   41.33    2.04
   0  -5   3   41.15    1.95
   0  -5   3   44.73    1.97
   0  -5   3   42.55    2.03
  -1   5  -3   41.03    1.72
  -1   5  -3   37.24    1.85
  -1   5  -3   40.83    1.79
   1  -5   3   36.79    1.85
   1  -5   3   38.71    1.76
   1  -5   3   40.45    1.76
  -2   5  -3   35.33    1.50
  -2   5  -3   31.40    1.60
   2  -5   3   36.11    1.50
   2  -5   3   32.34    1.55
   2  -5   3   33.34    1.61
  -3   5  -3   42.43    2.10
  -3   5  -3   44.96    2.11
   3  -5   3   51.55    2.02
   3  -5   3   45.26    2.10
  -4   5  -3   40.00    1.77
  -4   5  -3   36.07    1.73
  -4   5  -3   37.38    1.75
   4  -5   3   36.97    1.76
  -5   5  -3    1.65    0.23
  -5   5  -3    1.80    0.30
  -5   5  -3    2.28    0.35
   5  -5   3    2.17    0.33
  -6   5  -3   -0.11    0.28
  -6   5  -3   -0.34    0.27
   6  -5   3    0.04    0.25
  -7   5  -3    0.39    0.11
  -7   5  -3    0.22    0.41
   7  -5   3    0.00    0.30
  -8   5  -3    6.86    0.88
   8  -5   3    8.30    0.79
  -9   5  -3    0.53    0.66
   9  -5   3    0.48    0.46
 -10   5  -3    0.51    0.79
  10  -5   3    1.21    0.56
   8   4  -3   15.50    1.46
   7   4  -3    0.29    0.50
   7   4  -3    0.25    0.28
   7   4  -3   -0.31    0.61
  -7  -4   3   -0.44    0.51
   6   4  -3   -0.03    0.37
   6   4  -3    0.26    0.22
  -6  -4   3   -0.17    0.37
   5   4  -3    1.31    0.44
   5   4  -3    1.07    0.19
  -5  -4   3    0.66    0.37
   4   4  -3    0.14    0.26
   4   4  -3    0.21    0.12
  -4  -4   3   -0.27    0.25
   3   4  -3   13.75    0.79
   3   4  -3   13.34    0.65
   3   4  -3   14.28    0.68
  -3  -4   3   13.17    0.68
  -3  -4   3   12.65    0.82
   2   4  -3    7.96    0.51
   2   4  -3    8.50    0.46
  -2  -4   3    7.78    0.41
  -2  -4   3    8.17    0.56
   1   4  -3   38.47    1.58
   1   4  -3   34.36    1.60
   1   4  -3   36.40    1.66
  -1  -4   3   36.72    1.55
  -1  -4   3   31.56    1.66
  -1  -4   3   33.84    1.65
   0   4  -3   37.18    1.61
   0   4  -3   37.32    1.60
   0   4  -3   37.42    1.74
   0  -4   3   31.84    1.68
   0  -4   3   36.84    1.59
   0  -4   3   36.02    1.64
  -1   4  -3    0.63    0.13
  -1   4  -3    0.60    0.09
  -1   4  -3    0.57    0.20
  -1   4  -3    0.50    0.17
   1  -4   3    0.50    0.15
   1  -4   3    0.20    0.10
   1  -4   3    0.55    0.11
  -2   4  -3    9.94    0.48
  -2   4  -3    9.77    0.53
  -2   4  -3    9.21    0.55
  -2   4  -3    9.36    0.56
   2  -4   3    9.59    0.47
   2  -4   3    8.95    0.55
  -3   4  -3    4.39    0.34
  -3   4  -3    4.05    0.37
   3  -4   3    4.47    0.35
   3  -4   3    5.24    0.30
  -4   4  -3    7.55    0.52
  -4   4  -3    9.09    0.48
  -4   4  -3    8.64    0.51
   4  -4   3    8.11    0.54
  -5   4  -3    4.08    0.48
  -5   4  -3    4.84    0.31
  -5   4  -3    4.54    0.37
   5  -4   3    4.84    0.42
  -6   4  -3    3.78    0.22
  -6   4  -3    3.56    0.50
  -6   4  -3    3.89    0.36
   6  -4   3    3.37    0.41
  -7   4  -3    2.12    0.16
  -7   4  -3    1.61    0.45
   7  -4   3    1.67    0.37
   8  -4   3    1.58    0.39
  -9   4  -3    2.13    0.70
   9  -4   3    0.24    0.45
 -10   4  -3    2.31    0.81
  10  -4   3    2.67    0.65
   8   3  -3   17.82    1.50
   8   3  -3   17.54    1.09
  -8  -3   3   21.57    1.57
  -8  -3   3   17.72    1.41
   7   3  -3    2.21    0.36
   7   3  -3    1.87    0.59
  -7  -3   3    3.64    0.67
  -7  -3   3    1.99    0.50
   6   3  -3    5.41    0.42
   6   3  -3    4.55    0.62
  -6  -3   3    4.69    0.60
  -6  -3   3    6.95    0.73
   5   3  -3   32.68    1.54
   5   3  -3   34.33    1.79
  -5  -3   3   34.20    1.70
  -5  -3   3   36.46    1.81
   4   3  -3   18.23    0.82
   4   3  -3   17.15    1.00
   4   3  -3   16.35    0.81
  -4  -3   3   17.32    0.96
   3   3  -3    0.13    0.20
   3   3  -3    0.05    0.07
   3   3  -3    0.11    0.09
  -3  -3   3    0.37    0.20
   2   3  -3   69.37    3.12
   2   3  -3   71.93    3.16
   2   3  -3   72.28    3.02
   2   3  -3   76.72    3.03
  -2  -3   3   71.96    3.02
  -2  -3   3   67.22    3.15
  -2  -3   3   66.15    3.13
   1   3  -3  110.65    4.63
   1   3  -3  114.29    4.59
   1   3  -3  110.96    4.66
  -1  -3   3  107.11    4.66
  -1  -3   3   98.92    4.67
  -1  -3   3  106.12    4.57
   0   3  -3    2.76    0.20
   0   3  -3    3.26    0.28
   0   3  -3    3.12    0.20
   0  -3   3    2.90    0.25
   0  -3   3    2.75    0.19
   0  -3   3    2.80    0.23
  -1   3  -3   81.92    3.43
  -1   3  -3   82.57    3.47
  -1   3  -3   78.62    3.41
   1  -3   3   78.04    3.48
   1  -3   3   76.06    3.43
   1  -3   3   83.09    3.42
  -2   3  -3   20.50    0.96
  -2   3  -3   21.15    0.97
  -2   3  -3   19.87    0.97
  -2   3  -3   20.56    0.95
   2  -3   3   19.86    0.97
   2  -3   3   20.18    0.97
   2  -3   3   21.98    0.93
  -3   3  -3   46.34    2.04
  -3   3  -3   47.23    2.04
  -3   3  -3   45.83    2.06
   3  -3   3   43.84    2.07
   3  -3   3   49.47    2.05
  -4   3  -3   10.34    0.48
  -4   3  -3    9.74    0.50
  -4   3  -3    9.53    0.60
   4  -3   3    8.95    0.56
  -5   3  -3    1.30    0.14
  -5   3  -3    1.33    0.32
  -5   3  -3    1.10    0.10
   5  -3   3    1.40    0.26
  -6   3  -3   14.66    0.95
   6  -3   3   15.62    0.89
  -7   3  -3    0.50    0.38
   7  -3   3    1.02    0.32
  -8   3  -3    6.02    0.75
   8  -3   3    6.35    0.65
  -9   3  -3    0.53    0.65
   9  -3   3   -0.02    0.47
 -10   3  -3    1.15    0.87
  10  -3   3    1.45    0.66
   9   2  -3    8.07    1.03
  -9  -2   3    9.46    1.20
   8   2  -3    3.89    0.78
   8   2  -3    4.85    0.61
  -8  -2   3    5.17    0.62
  -8  -2   3    5.23    0.84
   7   2  -3    0.08    0.24
   7   2  -3   -0.07    0.52
  -7  -2   3   -0.09    0.31
  -7  -2   3    0.31    0.51
   6   2  -3   62.74    3.05
   6   2  -3   65.81    2.82
  -6  -2   3   61.51    2.90
  -6  -2   3   64.99    3.06
   5   2  -3    1.36    0.17
   5   2  -3    1.08    0.34
   5   2  -3    1.55    0.19
  -5  -2   3    1.25    0.34
  -5  -2   3    1.03    0.24
   4   2  -3    0.06    0.09
   4   2  -3   -0.04    0.09
   4   2  -3    0.07    0.20
  -4  -2   3    0.06    0.21
  -4  -2   3    0.07    0.17
   3   2  -3    8.16    0.39
   3   2  -3    8.19    0.46
   3   2  -3    7.97    0.53
   3   2  -3    7.93    0.38
  -3  -2   3    6.99    0.48
   2   2  -3    0.25    0.05
   2   2  -3    0.27    0.05
   2   2  -3    0.02    0.14
   2   2  -3    0.51    0.18
   2   2  -3    0.17    0.10
  -2  -2   3    0.24    0.17
  -2  -2   3    0.03    0.10
   1   2  -3   34.54    1.54
   1   2  -3   35.33    1.54
  -1  -2   3   33.39    1.47
  -1  -2   3   35.02    1.56
   0   2  -3    7.27    0.34
   0   2  -3    7.29    0.36
   0   2  -3    7.02    0.38
   0  -2   3    7.21    0.39
   0  -2   3    7.10    0.34
   0  -2   3    7.11    0.37
  -1   2  -3  121.09    5.11
  -1   2  -3  125.58    5.13
  -1   2  -3  117.56    5.11
   1  -2   3  116.93    5.14
   1  -2   3  124.87    5.11
   1  -2   3  118.04    5.12
  -2   2  -3    7.38    0.39
  -2   2  -3    7.82    0.42
  -2   2  -3    7.56    0.40
  -2   2  -3    8.02    0.38
   2  -2   3    7.70    0.40
   2  -2   3    7.65    0.39
   2  -2   3    7.68    0.41
  -3   2  -3   50.33    2.13
  -3   2  -3   42.61    2.27
  -3   2  -3   52.51    2.12
  -3   2  -3   51.07    2.17
   3  -2   3   51.90    2.19
   3  -2   3   48.92    2.20
  -4   2  -3   20.11    1.06
   4  -2   3   20.22    0.99
  -5   2  -3   32.59    1.64
   5  -2   3   33.14    1.56
  -6   2  -3    0.47    0.33
   6  -2   3    0.29    0.21
  -7   2  -3    0.39    0.38
   7  -2   3    0.36    0.27
  -8   2  -3    3.05    0.60
   8  -2   3    3.61    0.46
  -9   2  -3    0.24    0.58
   9  -2   3   -0.18    0.46
 -10   2  -3    0.02    0.76
  10  -2   3    0.62    0.54
   9   1  -3    9.20    0.86
   9   1  -3    8.62    1.13
  -9  -1   3    9.03    1.13
   8   1  -3    4.28    0.67
   8   1  -3    4.31    0.50
  -8  -1   3    5.51    0.66
  -8  -1   3    4.84    0.69
   7   1  -3   25.90    1.49
   7   1  -3   26.19    1.27
  -7  -1   3   24.68    1.30
  -7  -1   3   23.49    1.47
   6   1  -3   21.89    1.32
   6   1  -3   24.34    1.11
  -6  -1   3   22.84    1.33
  -6  -1   3   21.04    1.15
   5   1  -3    0.71    0.14
   5   1  -3    0.83    0.31
   5   1  -3    0.87    0.15
  -5  -1   3    0.21    0.25
  -5  -1   3    1.12    0.15
  -5  -1   3    0.87    0.20
   4   1  -3    2.71    0.21
   4   1  -3    2.22    0.23
   4   1  -3    2.94    0.22
   4   1  -3    2.60    0.36
  -4  -1   3    3.23    0.20
  -4  -1   3    3.07    0.28
  -4  -1   3    3.37    0.40
   3   1  -3   48.50    2.38
   3   1  -3   55.84    2.31
   3   1  -3   48.27    2.39
   3   1  -3   54.59    2.28
   3   1  -3   54.54    2.26
  -3  -1   3   54.88    2.26
  -3  -1   3   53.79    2.34
   2   1  -3   25.63    1.17
   2   1  -3   24.39    1.05
   2   1  -3   24.69    1.10
   2   1  -3   23.63    1.04
   2   1  -3   24.41    1.15
  -2  -1   3   25.58    1.12
  -2  -1   3   23.90    1.04
  -2  -1   3   23.32    1.16
   1   1  -3   17.57    0.75
   1   1  -3   16.26    0.76
  -1  -1   3   16.39    0.76
  -1  -1   3   15.58    0.77
   0   1  -3    2.18    0.14
   0   1  -3    2.24    0.14
   0  -1   3    2.40    0.16
   0  -1   3    2.31    0.15
   0  -1   3    2.32    0.13
  -1   1  -3  110.79    4.70
  -1   1  -3  107.80    4.71
  -1   1  -3  112.39    4.69
   1  -1   3  117.09    4.71
   1  -1   3  108.73    4.70
   1  -1   3  109.24    4.70
  -2   1  -3    4.72    0.26
  -2   1  -3    4.67    0.21
  -2   1  -3    4.51    0.31
   2  -1   3    4.26    0.27
   2  -1   3    4.41    0.22
   2  -1   3    4.75    0.27
  -3   1  -3  209.88    9.35
  -3   1  -3  228.14    9.28
   3  -1   3  235.67    9.33
   3  -1   3  204.31    9.29
  -4   1  -3    6.55    0.50
   4  -1   3    6.49    0.41
  -5   1  -3    0.01    0.24
   5  -1   3    0.35    0.16
  -6   1  -3   28.30    1.58
   6  -1   3   30.57    1.45
  -7   1  -3   18.36    1.29
   7  -1   3   19.12    1.07
  -8   1  -3    1.43    0.54
   8  -1   3    1.81    0.40
  -9   1  -3    3.60    0.88
   9  -1   3    3.51    0.54
  10   0  -3    1.36    0.55
  10   0  -3    0.50    0.87
 -10   0   3   -0.12    0.80
   9   0  -3   33.03    1.71
   9   0  -3   31.86    1.99
  -9   0   3   34.01    2.04
   8   0  -3   21.15    1.13
   8   0  -3   20.35    1.39
  -8   0   3   19.53    1.10
  -8   0   3   18.95    1.38
   7   0  -3   43.16    2.01
   7   0  -3   43.16    2.24
  -7   0   3   43.65    2.25
  -7   0   3   43.13    2.00
   6   0  -3    0.71    0.32
   6   0  -3    1.00    0.21
  -6   0   3    0.36    0.18
  -6   0   3    0.56    0.31
   5   0  -3   12.20    0.70
   5   0  -3   13.22    0.80
  -5   0   3   13.61    0.68
  -5   0   3   13.16    0.64
  -5   0   3   12.41    0.80
   4   0  -3    0.25    0.18
   4   0  -3    0.07    0.09
   4   0  -3    0.20    0.10
  -4   0   3   -0.04    0.18
  -4   0   3    0.09    0.11
  -4   0   3    0.18    0.08
   3   0  -3    0.71    0.20
   3   0  -3    0.99    0.19
   3   0  -3    0.88    0.10
   3   0  -3    1.29    0.12
  -3   0   3    0.99    0.12
  -3   0   3    0.78    0.18
  -3   0   3    0.92    0.11
   2   0  -3   34.15    1.49
   2   0  -3   35.71    1.58
   2   0  -3   37.30    1.52
   2   0  -3   34.53    1.56
  -2   0   3   32.44    1.50
  -2   0   3   33.16    1.57
  -2   0   3   34.65    1.52
   1   0  -3   66.68    2.90
   1   0  -3   69.72    2.94
   1   0  -3   72.40    2.93
  -1   0   3   68.32    2.95
  -1   0   3   66.99    2.93
  -1   0   3   69.10    2.91
   0   0  -3    1.49    0.10
   0   0  -3    1.10    0.08
   0   0  -3    1.21    0.08
   0   0   3    1.15    0.08
   0   0   3    1.18    0.09
   0   0   3    1.14    0.09
   0   0   3    1.15    0.08
  -1   0  -3    0.59    0.07
  -1   0  -3    0.34    0.08
  -1   0  -3    0.35    0.05
   1   0   3    0.27    0.05
   1   0   3    0.54    0.07
   1   0   3    0.35    0.04
   1   0   3    0.46    0.07
  -2   0  -3   38.87    1.77
  -2   0  -3   40.67    1.72
  -2   0  -3   38.31    1.68
   2   0   3   40.73    1.75
   2   0   3   38.89    1.67
   2   0   3   39.65    1.72
   2   0   3   38.94    1.72
  -3   0  -3  172.26    7.14
  -3   0  -3  159.31    7.22
   3   0   3  161.57    7.14
   3   0   3  167.60    7.14
   3   0   3  180.24    7.20
  -4   0  -3   17.57    0.98
   4   0   3   17.96    0.87
  -5   0  -3   76.01    3.55
   5   0   3   78.86    3.41
  -6   0  -3   -0.18    0.38
   6   0   3    0.12    0.17
   7   0   3    1.89    0.33
  -8   0  -3   15.15    1.34
   8   0   3   16.18    1.02
  -9   0  -3    4.82    0.93
   9   0   3    4.75    0.58
  10  -1  -3   10.22    0.92
  10  -1  -3    9.63    1.25
 -10   1   3    9.07    1.14
   9  -1  -3   -0.01    0.52
   9  -1  -3    0.29    0.37
  -9   1   3    0.02    0.49
  -9   1   3    0.38    0.37
   8  -1  -3    3.16    0.58
   8  -1  -3    4.09    0.50
  -8   1   3    3.40    0.45
  -8   1   3    2.72    0.53
   7  -1  -3   35.61    1.65
   7  -1  -3   32.58    1.78
  -7   1   3   33.85    1.60
  -7   1   3   35.33    1.82
   6  -1  -3    4.35    0.49
   6  -1  -3    4.76    0.39
  -6   1   3    5.22    0.35
  -6   1   3    4.20    0.51
   5  -1  -3   13.20    0.62
   5  -1  -3   12.66    0.78
   5  -1  -3   12.31    0.67
  -5   1   3   13.00    0.79
  -5   1   3   11.90    0.62
  -5   1   3   12.73    0.63
   4  -1  -3    1.98    0.18
   4  -1  -3    1.07    0.22
   4  -1  -3    1.40    0.15
   4  -1  -3    0.91    0.24
  -4   1   3    1.27    0.23
  -4   1   3    1.35    0.15
  -4   1   3    1.52    0.17
   3  -1  -3    2.68    0.19
   3  -1  -3    2.37    0.26
   3  -1  -3    2.35    0.17
   3  -1  -3    2.29    0.23
  -3   1   3    2.48    0.19
  -3   1   3    2.45    0.16
  -3   1   3    2.48    0.24
   2  -1  -3   46.06    1.96
   2  -1  -3   46.94    2.01
   2  -1  -3   44.53    1.98
  -2   1   3   46.34    1.97
  -2   1   3   44.53    2.00
  -2   1   3   45.09    1.96
   1  -1  -3    5.05    0.25
   1  -1  -3    4.69    0.24
   1  -1  -3    4.83    0.24
  -1   1   3    4.78    0.24
  -1   1   3    4.60    0.25
  -1   1   3    4.61    0.25
   0  -1  -3   79.25    3.48
   0  -1  -3   81.10    3.49
   0  -1  -3   81.08    3.48
   0   1   3   84.40    3.47
   0   1   3   83.40    3.48
   0   1   3   82.30    3.48
  -1  -1  -3    1.28    0.12
  -1  -1  -3    1.17    0.13
  -1  -1  -3    1.30    0.16
   1   1   3    1.40    0.12
   1   1   3    1.38    0.12
   1   1   3    1.31    0.10
   1   1   3    1.27    0.14
  -2  -1  -3    5.99    0.40
  -2  -1  -3    5.33    0.32
  -2  -1  -3    5.83    0.32
   2   1   3    5.66    0.37
   2   1   3    5.92    0.32
   2   1   3    5.79    0.29
  -3  -1  -3    0.09    0.15
   3   1   3    0.04    0.08
   3   1   3   -0.06    0.07
   3   1   3   -0.13    0.08
   3   1   3    0.00    0.20
  -4  -1  -3   34.07    1.74
   4   1   3   33.92    1.60
   4   1   3   36.25    1.55
   4   1   3   36.86    1.54
  -5  -1  -3   54.58    2.83
   5   1   3   60.62    2.58
   5   1   3   65.95    2.56
   5   1   3   57.75    2.67
  -6  -1  -3   12.98    1.04
   6   1   3   14.22    0.65
   6   1   3   13.86    0.80
  -7  -1  -3    7.07    0.86
   7   1   3    6.84    0.59
  -8  -1  -3    0.21    0.65
   8   1   3   -0.27    0.34
  -9  -1  -3    1.10    0.82
   9   1   3   -0.15    0.48
  10  -2  -3    0.09    0.49
  10  -2  -3    0.05    0.59
 -10   2   3    0.29    0.64
   9  -2  -3   14.43    1.24
   9  -2  -3   16.00    1.00
  -9   2   3   14.94    0.88
  -9   2   3   12.66    1.25
   8  -2  -3   26.01    1.37
   8  -2  -3   25.59    1.54
  -8   2   3   25.78    1.26
  -8   2   3   27.06    1.57
   7  -2  -3    2.46    0.34
   7  -2  -3    1.97    0.45
  -7   2   3    2.49    0.48
  -7   2   3    2.20    0.26
   6  -2  -3    0.36    0.17
   6  -2  -3    0.54    0.26
  -6   2   3    0.83    0.26
  -6   2   3    0.80    0.14
   5  -2  -3   19.18    0.97
   5  -2  -3   20.04    1.04
   5  -2  -3   19.96    0.93
  -5   2   3   19.77    0.91
  -5   2   3   19.81    1.05
  -5   2   3   19.90    0.95
   4  -2  -3    5.56    0.46
   4  -2  -3    5.80    0.36
   4  -2  -3    5.73    0.43
   4  -2  -3    6.19    0.35
  -4   2   3    5.60    0.37
  -4   2   3    6.30    0.44
  -4   2   3    5.77    0.33
   3  -2  -3   50.24    2.34
   3  -2  -3   51.06    2.33
   3  -2  -3   55.38    2.32
   3  -2  -3   52.85    2.32
  -3   2   3   53.30    2.32
  -3   2   3   53.52    2.34
  -3   2   3   55.34    2.29
   2  -2  -3    0.11    0.06
   2  -2  -3    0.19    0.08
   2  -2  -3    0.17    0.07
   2  -2  -3    0.11    0.08
  -2   2   3    0.11    0.09
  -2   2   3    0.10    0.09
  -2   2   3    0.26    0.07
   1  -2  -3    0.10    0.03
   1  -2  -3   -0.02    0.07
   1  -2  -3    0.07    0.05
  -1   2   3    0.00    0.04
  -1   2   3    0.01    0.06
  -1   2   3   -0.09    0.07
   0  -2  -3    1.14    0.15
   0  -2  -3    0.65    0.09
   0  -2  -3    1.00    0.12
   0   2   3    0.96    0.12
   0   2   3    1.01    0.09
   0   2   3    0.80    0.11
  -1  -2  -3   81.92    3.65
  -1  -2  -3   83.04    3.61
  -1  -2  -3   82.63    3.64
   1   2   3   83.11    3.62
   1   2   3   85.15    3.62
   1   2   3   85.74    3.62
   1   2   3   89.21    3.63
  -2  -2  -3  165.42    7.14
  -2  -2  -3  148.26    7.06
  -2  -2  -3  175.03    7.08
   2   2   3  175.55    7.11
   2   2   3  165.57    7.06
   2   2   3  176.22    7.11
   2   2   3  172.09    7.08
   2   2   3  153.24    7.06
  -3  -2  -3   -0.23    0.19
   3   2   3    0.08    0.14
   3   2   3    0.28    0.09
   3   2   3    0.34    0.12
  -4  -2  -3   65.94    3.14
   4   2   3   71.65    2.96
   4   2   3   65.25    2.99
   4   2   3   69.53    2.96
  -5  -2  -3    5.01    0.59
   5   2   3    5.07    0.40
   5   2   3    4.98    0.38
   5   2   3    5.30    0.36
  -6  -2  -3    0.35    0.38
   6   2   3   -0.30    0.21
   6   2   3    0.36    0.20
  -7  -2  -3   18.06    1.40
   7   2   3   18.67    1.06
  -8  -2  -3    2.59    0.86
   8   2   3    3.43    0.46
  10  -3  -3    5.81    0.67
  10  -3  -3    4.29    0.78
 -10   3   3    4.30    0.76
   9  -3  -3    0.21    0.36
   9  -3  -3    0.81    0.53
  -9   3   3    0.01    0.24
  -9   3   3    0.06    0.57
   8  -3  -3    1.31    0.47
   8  -3  -3    1.39    0.35
  -8   3   3    1.74    0.46
  -8   3   3    1.12    0.22
   7  -3  -3   22.26    1.16
   7  -3  -3   21.41    1.22
  -7   3   3   22.61    1.26
  -7   3   3   22.16    1.04
   6  -3  -3   37.47    1.86
   6  -3  -3   39.28    1.81
  -6   3   3   38.41    1.71
  -6   3   3   39.29    1.87
   5  -3  -3   14.43    0.88
   5  -3  -3   15.81    0.86
   5  -3  -3   16.37    0.83
  -5   3   3   16.14    0.87
  -5   3   3   16.88    0.76
   4  -3  -3    3.55    0.29
   4  -3  -3    3.03    0.33
   4  -3  -3    3.41    0.29
  -4   3   3    3.41    0.23
  -4   3   3    3.48    0.31
  -4   3   3    3.46    0.30
   3  -3  -3    5.42    0.37
   3  -3  -3    5.25    0.33
   3  -3  -3    5.00    0.30
  -3   3   3    4.91    0.31
  -3   3   3    5.17    0.37
   2  -3  -3   90.74    4.00
   2  -3  -3   95.02    4.08
   2  -3  -3   94.32    3.98
   2  -3  -3   95.16    4.05
  -2   3   3   96.32    4.06
   1  -3  -3   -0.09    0.12
   1  -3  -3   -0.05    0.05
   1  -3  -3   -0.02    0.06
  -1   3   3    0.02    0.09
  -1   3   3    0.02    0.03
  -1   3   3   -0.04    0.10
   0  -3  -3   13.88    0.66
   0  -3  -3   12.49    0.66
   0  -3  -3   13.41    0.72
   0   3   3   15.18    0.63
   0   3   3   14.09    0.70
   0   3   3   13.51    0.68
  -1  -3  -3    6.29    0.41
  -1  -3  -3    5.44    0.35
  -1  -3  -3    6.39    0.43
   1   3   3    6.36    0.44
   1   3   3    6.16    0.39
   1   3   3    6.30    0.38
  -2  -3  -3    4.77    0.31
  -2  -3  -3    4.38    0.42
  -2  -3  -3    5.49    0.42
   2   3   3    5.58    0.42
   2   3   3    4.90    0.32
   2   3   3    5.46    0.42
   2   3   3    5.04    0.42
  -3  -3  -3    6.78    0.41
  -3  -3  -3    6.87    0.55
   3   3   3    6.18    0.44
   3   3   3    6.40    0.47
   3   3   3    6.27    0.41
  -4  -3  -3   46.11    2.18
   4   3   3   42.79    1.99
   4   3   3   43.93    1.99
   4   3   3   43.40    1.99
  -5  -3  -3    0.45    0.42
   5   3   3    0.30    0.19
   5   3   3    0.63    0.23
  -6  -3  -3   21.80    1.41
   6   3   3   22.43    1.30
   6   3   3   20.77    1.12
  -7  -3  -3    6.53    0.92
   7   3   3    5.30    0.59
  -8  -3  -3    0.94    0.81
   8   3   3    1.56    0.73
   8   3   3    0.91    0.41
  10  -4  -3    1.59    0.52
  10  -4  -3    1.04    0.69
 -10   4   3    0.55    0.69
   9  -4  -3    1.21    0.63
   9  -4  -3    1.20    0.52
  -9   4   3    0.76    0.53
  -9   4   3    1.11    0.25
   8  -4  -3   25.42    1.36
   8  -4  -3   25.38    1.45
  -8   4   3   25.27    1.20
  -8   4   3   26.28    1.49
   7  -4  -3    3.18    0.43
   7  -4  -3    2.85    0.36
  -7   4   3    3.60    0.47
  -7   4   3    2.76    0.27
   6  -4  -3    1.45    0.26
   6  -4  -3    1.52    0.30
  -6   4   3    1.27    0.29
  -6   4   3    1.32    0.17
   5  -4  -3   37.28    1.78
   5  -4  -3   39.59    1.78
  -5   4   3   35.23    1.83
  -5   4   3   40.56    1.72
   4  -4  -3  314.44   13.15
   4  -4  -3  306.41   13.20
   4  -4  -3  315.44   13.15
  -4   4   3  325.74   13.16
  -4   4   3  294.30   13.15
   3  -4  -3   25.04    1.04
   3  -4  -3   22.68    1.12
   3  -4  -3   23.42    1.05
  -3   4   3   22.93    1.11
   2  -4  -3    1.73    0.20
  -2   4   3    1.71    0.21
   1  -4  -3   13.60    0.62
   1  -4  -3   13.57    0.69
  -1   4   3   14.81    0.60
  -1   4   3   13.58    0.73
   0  -4  -3    0.56    0.12
   0  -4  -3    0.53    0.14
   0   4   3    0.77    0.17
   0   4   3    0.85    0.11
  -1  -4  -3    0.13    0.12
  -1  -4  -3    0.09    0.17
   1   4   3    0.36    0.17
   1   4   3    0.35    0.16
  -2  -4  -3    8.64    0.50
  -2  -4  -3    8.31    0.57
   2   4   3    8.57    0.48
   2   4   3    7.88    0.55
   2   4   3    8.80    0.58
  -3  -4  -3   11.72    0.64
  -3  -4  -3   10.87    0.76
   3   4   3   10.59    0.68
   3   4   3   11.49    0.63
  -4  -4  -3    9.77    0.78
   4   4   3    9.19    0.57
   4   4   3    9.50    0.63
  -5  -4  -3    2.45    0.49
   5   4   3    1.79    0.33
   5   4   3    2.14    0.29
  -6  -4  -3    6.17    0.85
   6   4   3    5.38    0.54
  -7  -4  -3   -0.22    0.75
   7   4   3    0.49    0.63
   7   4   3   -0.69    0.33
  10  -5  -3    1.06    0.51
  10  -5  -3    1.32    0.63
 -10   5   3   -0.11    0.65
   9  -5  -3    0.86    0.41
   9  -5  -3    1.19    0.50
  -9   5   3   -0.24    0.51
   8  -5  -3    7.17    0.74
   8  -5  -3    7.08    0.66
  -8   5   3    6.84    0.45
  -8   5   3    6.45    0.72
   7  -5  -3    8.88    0.62
   7  -5  -3    8.28    0.66
  -7   5   3    8.24    0.49
  -7   5   3    7.83    0.68
   6  -5  -3    1.94    0.26
   6  -5  -3    1.99    0.30
  -6   5   3    2.61    0.26
  -6   5   3    1.80    0.31
   5  -5  -3   11.94    0.73
   5  -5  -3   12.00    0.69
   5  -5  -3   12.71    0.68
  -5   5   3   12.22    0.66
  -5   5   3   13.26    0.68
   4  -5  -3    6.37    0.36
   4  -5  -3    5.41    0.34
   4  -5  -3    6.41    0.46
  -4   5   3    6.50    0.41
   3  -5  -3    2.44    0.27
  -3   5   3    2.39    0.27
   2  -5  -3    0.53    0.15
  -2   5   3    0.38    0.15
   1  -5  -3   50.18    2.18
  -1   5   3   47.28    2.23
   0  -5  -3   14.12    0.68
   0  -5  -3   13.09    0.71
   0   5   3   12.65    0.76
   0   5   3   12.84    0.67
   0   5   3   15.54    0.66
  -1  -5  -3   12.32    0.69
  -1  -5  -3   11.60    0.64
   1   5   3   11.08    0.72
   1   5   3   12.91    0.68
  -2  -5  -3   -0.03    0.15
  -2  -5  -3    0.23    0.22
   2   5   3    0.03    0.14
   2   5   3   -0.13    0.22
  -3  -5  -3    4.39    0.55
  -3  -5  -3    4.47    0.41
   3   5   3    4.86    0.38
   3   5   3    4.54    0.49
  -4  -5  -3    8.77    0.60
  -4  -5  -3    9.25    0.85
   4   5   3    8.70    0.67
   4   5   3    9.32    0.60
   4   5   3    8.99    0.77
  -5  -5  -3    1.57    0.61
   5   5   3    2.73    0.65
   5   5   3    2.58    0.36
   5   5   3    2.11    0.43
  -6  -5  -3   12.79    1.28
   6   5   3   12.37    1.23
   6   5   3   13.32    0.85
  10  -6  -3   12.86    1.16
  10  -6  -3   13.78    1.14
 -10   6   3   12.33    1.24
   9  -6  -3   13.38    1.05
   9  -6  -3   13.41    1.04
  -9   6   3   13.03    1.08
  -9   6   3   14.57    0.76
   8  -6  -3   -0.03    0.43
   8  -6  -3   -0.25    0.37
  -8   6   3    0.13    0.18
  -8   6   3    0.00    0.38
   7  -6  -3    0.68    0.29
   7  -6  -3    0.36    0.28
  -7   6   3    0.38    0.16
  -7   6   3    0.04    0.28
   6  -6  -3  103.82    4.99
   6  -6  -3  116.34    5.09
   6  -6  -3  119.61    4.99
  -6   6   3  121.83    5.01
  -6   6   3  115.99    5.01
   5  -6  -3   21.31    1.01
   5  -6  -3   23.10    1.01
   5  -6  -3   20.38    1.12
  -5   6   3   21.43    1.08
   4  -6  -3    0.62    0.21
  -4   6   3    1.19    0.24
   3  -6  -3    1.22    0.22
  -3   6   3    1.75    0.27
   2  -6  -3   12.69    0.69
  -2   6   3   11.92    0.75
   1  -6  -3    2.28    0.26
  -1   6   3    1.78    0.29
   0  -6  -3    0.87    0.20
   0   6   3    1.05    0.16
   0   6   3    0.95    0.17
   0   6   3    0.86    0.23
  -1  -6  -3    0.32    0.18
   1   6   3   -0.12    0.26
   1   6   3   -0.10    0.24
  -2  -6  -3    0.17    0.28
  -2  -6  -3    0.35    0.20
   2   6   3    0.59    0.27
   2   6   3    0.35    0.18
   2   6   3    0.03    0.30
  -3  -6  -3   -0.14    0.35
  -3  -6  -3    0.11    0.26
   3   6   3    0.12    0.32
   3   6   3    0.57    0.34
   3   6   3    0.13    0.22
  -4  -6  -3    2.05    0.53
  -4  -6  -3    1.76    0.33
   4   6   3    1.98    0.49
   4   6   3    1.27    0.29
   4   6   3    1.06    0.41
  -5  -6  -3   11.95    1.32
   5   6   3   15.35    1.06
   5   6   3   16.76    1.25
   5   6   3   15.25    0.93
  -6  -6  -3    0.27    0.77
   6   6   3    1.20    0.43
  10  -7  -3    0.62    0.56
   9  -7  -3    0.32    0.48
   9  -7  -3    0.81    0.46
  -9   7   3    0.23    0.51
   8  -7  -3   16.51    1.05
   8  -7  -3   12.45    0.96
  -8   7   3   15.17    1.02
  -8   7   3   16.39    0.84
   7  -7  -3    0.07    0.29
   7  -7  -3   -0.17    0.34
  -7   7   3    0.49    0.22
  -7   7   3    0.92    0.31
   6  -7  -3   14.60    0.76
   6  -7  -3   14.72    0.92
  -6   7   3   14.67    0.84
   5  -7  -3    8.40    0.64
  -5   7   3    8.05    0.61
   4  -7  -3   14.64    0.85
  -4   7   3   15.66    0.88
   3  -7  -3    0.68    0.22
  -3   7   3    0.44    0.23
   2  -7  -3    1.01    0.23
  -2   7   3    0.58    0.27
   1  -7  -3    1.59    0.27
  -1   7   3    1.60    0.35
   0  -7  -3    8.65    0.57
   0   7   3    8.49    0.67
   0   7   3    8.89    0.47
  -1  -7  -3    4.79    0.43
   1   7   3    3.71    0.50
   1   7   3    3.67    0.42
  -2  -7  -3    0.10    0.33
  -2  -7  -3    0.06    0.25
   2   7   3    0.06    0.31
   2   7   3   -0.32    0.35
   2   7   3    0.23    0.22
  -3  -7  -3    0.74    0.30
  -3  -7  -3    1.60    0.47
   3   7   3    1.13    0.31
   3   7   3    0.82    0.43
   3   7   3   -0.11    0.39
  -4  -7  -3   -0.41    0.31
  -4  -7  -3    0.06    0.56
   4   7   3   -0.04    0.45
   4   7   3   -0.04    0.28
   4   7   3   -0.01    0.56
   5   7   3    0.55    0.38
  10  -8  -3    2.54    0.59
 -10   8   3    2.16    0.51
   9  -8  -3   -0.91    0.52
  -9   8   3    0.08    0.29
   8  -8  -3    2.82    0.52
  -8   8   3    2.57    0.36
   7  -8  -3   12.29    0.93
  -7   8   3   11.87    0.77
   6  -8  -3   17.07    1.01
  -6   8   3   16.12    1.04
  -5   8   3   12.54    0.84
   4  -8  -3   10.07    0.72
  -4   8   3    9.99    0.73
   3  -8  -3    1.73    0.28
  -3   8   3    1.46    0.34
   2  -8  -3    3.29    0.39
  -2   8   3    2.78    0.43
   1  -8  -3    1.22    0.36
  -1   8   3    0.75    0.37
   0  -8  -3    6.41    0.52
   0   8   3    5.65    0.72
  -1  -8  -3    0.97    0.30
   1   8   3    1.23    0.43
  -2  -8  -3    8.66    0.68
   2   8   3    8.89    0.66
   2   8   3    8.10    0.87
  -3  -8  -3    2.70    0.43
   3   8   3    1.31    0.55
   3   8   3    2.11    0.41
   9  -9  -3    1.51    0.52
  -9   9   3    0.87    0.35
   8  -9  -3    0.52    0.48
  -8   9   3    0.19    0.32
   7  -9  -3   16.81    1.14
  -7   9   3   16.56    0.99
   6  -9  -3    0.40    0.34
  -6   9   3   -0.50    0.30
   5  -9  -3    0.65    0.35
  -5   9   3   -0.20    0.32
   4  -9  -3    7.06    0.62
  -4   9   3    7.53    0.67
   3  -9  -3    7.30    0.62
  -3   9   3    6.42    0.67
   2  -9  -3   36.90    1.77
  -2   9   3   35.13    1.88
   1  -9  -3    1.38    0.33
  -1   9   3    1.25    0.47
   0  -9  -3    2.31    0.39
   0   9   3    2.20    0.51
  -1  -9  -3    0.07    0.28
   1   9   3    0.37    0.50
  -2  -9  -3    6.13    0.67
   2   9   3    5.28    0.62
   2   9   3    6.10    0.79
   8 -10  -3    0.61    0.51
  -8  10   3    0.58    0.42
   7 -10  -3    7.12    0.87
  -7  10   3    5.87    0.73
   6 -10  -3    0.76    0.41
  -6  10   3    1.09    0.47
   5 -10  -3   16.29    1.06
  -5  10   3   15.04    1.12
   4 -10  -3    1.13    0.38
  -4  10   3    0.21    0.41
   3 -10  -3    1.98    0.44
  -3  10   3    1.25    0.47
   2 -10  -3    0.25    0.31
  -2  10   3    0.11    0.48
   1 -10  -3   -0.11    0.31
  -1  10   3   -0.87    0.48
   0 -10  -3    6.01    0.62
   0  10   3    5.87    0.82
   6 -11  -3   -0.18    0.42
  -6  11   3   -0.31    0.54
   5 -11  -3    5.36    0.65
  -5  11   3    5.83    0.77
   4 -11  -3    2.72    0.55
  -4  11   3    2.70    0.59
   3 -11  -3   25.77    1.47
  -3  11   3   25.96    1.66
   2 -11  -3    4.22    0.59
  -2  11   3    3.95    0.77
  -1  11  -4    0.44    0.74
   1 -11   4   -0.17    0.40
  -2  11  -4    2.05    0.70
   2 -11   4    1.19    0.42
  -3  11  -4    3.59    0.83
   3 -11   4    3.93    0.57
  -4  11  -4    0.39    0.66
   4 -11   4    1.50    0.44
  -5  11  -4    1.54    0.63
   5 -11   4    1.79    0.53
  -6  11  -4   -0.17    0.56
   6 -11   4   -0.77    0.50
   1  10  -4    2.17    0.81
  -1 -10   4    2.86    0.67
   0  10  -4    0.61    0.68
   0 -10   4   -0.18    0.35
  -1  10  -4    1.81    0.66
   1 -10   4    3.10    0.42
  -2  10  -4    1.30    0.63
   2 -10   4    1.81    0.37
  -3  10  -4    1.70    0.49
   3 -10   4    0.86    0.36
  -4  10  -4    2.50    0.54
   4 -10   4    2.37    0.44
  -5  10  -4    1.88    0.56
   5 -10   4    1.86    0.45
  -6  10  -4   29.03    1.66
   6 -10   4   30.90    1.70
  -7  10  -4    3.87    0.59
   7 -10   4    4.91    0.72
   8 -10   4    3.82    0.78
   3   9  -4   12.36    0.93
   3   9  -4   15.61    1.40
  -3  -9   4    9.94    1.35
   2   9  -4    0.02    0.30
   2   9  -4    0.71    0.58
   2   9  -4    0.41    0.27
  -2  -9   4   -0.07    0.56
  -2  -9   4    0.39    0.31
   1   9  -4   16.32    0.88
   1   9  -4   16.85    1.23
  -1  -9   4   16.61    1.23
  -1  -9   4   15.01    0.90
   0   9  -4    1.06    0.56
   0   9  -4    1.29    0.23
   0  -9   4    1.01    0.29
  -1   9  -4    0.79    0.19
  -1   9  -4    0.93    0.52
   1  -9   4    0.40    0.26
  -2   9  -4    2.21    0.29
  -2   9  -4    1.85    0.50
   2  -9   4    2.73    0.37
  -3   9  -4   -0.05    0.20
  -3   9  -4    0.05    0.42
   3  -9   4   -0.04    0.27
  -4   9  -4    0.71    0.27
   4  -9   4    0.55    0.29
  -5   9  -4    0.29    0.42
  -5   9  -4    0.15    0.34
   5  -9   4    0.33    0.32
  -6   9  -4    2.83    0.51
  -6   9  -4    3.32    0.53
   6  -9   4    3.85    0.56
  -7   9  -4    0.30    0.53
  -7   9  -4    1.02    0.42
   7  -9   4    1.22    0.45
  -8   9  -4   20.33    1.63
   8  -9   4   18.82    1.39
   9  -9   4    1.53    0.66
   4   8  -4    5.86    0.85
   4   8  -4    4.28    0.60
  -4  -8   4    4.23    0.80
   3   8  -4    4.53    0.43
   3   8  -4    4.47    0.75
  -3  -8   4    3.73    0.41
  -3  -8   4    3.29    0.70
   2   8  -4    6.94    0.81
   2   8  -4    5.48    0.54
  -2  -8   4    6.20    0.49
  -2  -8   4    6.47    0.82
   1   8  -4    7.03    0.77
   1   8  -4    6.79    0.49
  -1  -8   4    6.20    0.49
  -1  -8   4    5.86    0.78
   0   8  -4    1.16    0.20
   0  -8   4    1.21    0.24
  -1   8  -4   20.59    0.99
  -1   8  -4   21.61    1.31
   1  -8   4   20.18    1.27
   1  -8   4   21.20    1.08
  -2   8  -4    0.80    0.42
  -2   8  -4    1.32    0.19
   2  -8   4    1.32    0.29
  -3   8  -4    9.04    0.79
  -3   8  -4    8.65    0.53
   3  -8   4    9.10    0.63
  -4   8  -4    1.71    0.39
  -4   8  -4    1.17    0.26
   4  -8   4    0.58    0.32
  -5   8  -4   -0.13    0.32
  -5   8  -4   -0.07    0.28
   5  -8   4    0.26    0.30
  -6   8  -4    3.18    0.50
  -6   8  -4    2.45    0.41
   6  -8   4    2.44    0.48
  -7   8  -4    1.22    0.34
  -7   8  -4    1.72    0.53
   7  -8   4    1.19    0.39
   8  -8   4   18.45    1.32
  -9   8  -4    5.97    0.87
   9  -8   4    4.20    0.75
   5   7  -4    6.22    1.24
   5   7  -4    7.20    0.83
  -5  -7   4    6.96    0.91
   4   7  -4    9.56    0.58
   4   7  -4    8.01    0.75
   4   7  -4   10.87    1.08
  -4  -7   4    8.33    0.96
   3   7  -4    8.10    0.89
   3   7  -4    8.40    0.64
   3   7  -4    7.18    0.47
  -3  -7   4    6.34    0.50
  -3  -7   4    7.45    0.91
   2   7  -4    7.06    0.86
   2   7  -4    5.37    0.47
  -2  -7   4    5.47    0.41
  -2  -7   4    6.71    0.87
   1   7  -4   38.27    1.79
   1   7  -4   38.36    2.00
  -1  -7   4   39.60    1.77
  -1  -7   4   40.17    2.04
   0   7  -4   32.78    1.76
   0   7  -4   34.44    1.55
   0  -7   4   33.43    1.77
   0  -7   4   34.82    1.57
  -1   7  -4    0.27    0.12
  -1   7  -4   -0.04    0.30
   1  -7   4    0.09    0.18
   1  -7   4    0.15    0.33
  -2   7  -4    7.28    0.65
  -2   7  -4    6.80    0.41
   2  -7   4    6.10    0.48
   2  -7   4    7.71    0.66
  -3   7  -4    7.73    0.64
  -3   7  -4    7.26    0.46
   3  -7   4    7.21    0.56
  -4   7  -4    7.45    0.58
  -4   7  -4    6.56    0.50
   4  -7   4    6.74    0.53
  -5   7  -4   15.08    0.92
  -5   7  -4   14.95    0.90
   5  -7   4   16.36    0.96
  -6   7  -4    0.76    0.35
  -6   7  -4    0.79    0.27
   6  -7   4    0.40    0.32
  -7   7  -4    1.84    0.30
  -7   7  -4    1.93    0.51
   7  -7   4    2.38    0.50
   8  -7   4    2.57    0.56
  -9   7  -4    0.91    0.69
   9  -7   4    1.45    0.59
   6   6  -4    0.68    0.52
   6   6  -4    1.57    0.63
  -6  -6   4    1.44    0.67
   5   6  -4    0.39    0.41
   5   6  -4   -0.33    0.48
   5   6  -4    0.33    0.24
  -5  -6   4    0.89    0.54
   4   6  -4   17.27    1.02
   4   6  -4   16.85    0.84
   3   6  -4    1.36    0.18
   3   6  -4    0.99    0.38
   3   6  -4    1.37    0.31
  -3  -6   4    1.23    0.18
  -3  -6   4    0.86    0.35
   2   6  -4   21.27    1.22
   2   6  -4   21.04    1.07
  -2  -6   4   20.69    0.98
  -2  -6   4   20.95    1.23
   1   6  -4    2.71    0.29
   1   6  -4    3.18    0.45
  -1  -6   4    2.79    0.27
  -1  -6   4    3.09    0.45
   0   6  -4   38.26    1.73
   0   6  -4   39.13    1.92
   0  -6   4   39.44    1.74
   0  -6   4   37.65    1.90
  -1   6  -4   50.09    2.22
  -1   6  -4   51.36    2.41
   1  -6   4   51.33    2.28
   1  -6   4   51.19    2.41
  -2   6  -4   22.70    1.28
  -2   6  -4   23.59    1.13
   2  -6   4   24.76    1.21
   2  -6   4   24.00    1.29
   2  -6   4   28.88    1.23
  -3   6  -4    0.98    0.27
  -3   6  -4    1.09    0.17
   3  -6   4    1.32    0.22
  -4   6  -4    0.44    0.22
  -4   6  -4    0.43    0.21
   4  -6   4    0.32    0.21
  -5   6  -4    7.43    0.59
  -5   6  -4    7.21    0.54
   5  -6   4    6.99    0.56
  -6   6  -4    0.10    0.33
  -6   6  -4    0.09    0.19
   6  -6   4    0.37    0.27
  -7   6  -4    6.02    0.41
  -7   6  -4    5.42    0.68
   7  -6   4    7.22    0.67
  -8   6  -4    1.69    0.54
   8  -6   4    2.29    0.51
  -9   6  -4   24.65    1.70
   9  -6   4   23.94    1.49
 -10   6  -4    1.22    0.86
  10  -6   4   -0.79    0.63
   7   5  -4   -0.14    0.63
   7   5  -4    1.53    0.68
  -7  -5   4    2.18    0.67
   6   5  -4    3.82    0.66
   6   5  -4    4.35    0.65
  -6  -5   4    3.69    0.67
   5   5  -4   10.71    0.60
  -5  -5   4   10.33    0.86
   4   5  -4   -0.07    0.29
   4   5  -4    0.27    0.14
  -4  -5   4    0.43    0.32
   3   5  -4    5.38    0.42
   3   5  -4    5.45    0.51
   3   5  -4    5.00    0.32
  -3  -5   4    5.37    0.34
  -3  -5   4    6.14    0.61
   2   5  -4   44.90    2.06
   2   5  -4   46.74    2.01
  -2  -5   4   42.87    2.16
   1   5  -4    8.56    0.51
   1   5  -4    8.99    0.53
  -1  -5   4    9.41    0.46
  -1  -5   4    7.99    0.61
   0   5  -4   49.46    2.14
   0   5  -4   46.78    2.11
   0  -5   4   51.06    2.26
   0  -5   4   42.49    2.22
   0  -5   4   50.59    2.12
  -1   5  -4    0.47    0.10
  -1   5  -4    0.80    0.19
  -1   5  -4    0.43    0.19
   1  -5   4    0.71    0.20
   1  -5   4    0.57    0.18
   1  -5   4    0.64    0.16
  -2   5  -4    4.20    0.28
  -2   5  -4    3.40    0.37
   2  -5   4    4.60    0.31
   2  -5   4    4.22    0.38
   2  -5   4    4.66    0.35
  -3   5  -4   16.82    0.80
  -3   5  -4   15.70    0.85
   3  -5   4   15.25    0.83
   3  -5   4   15.08    0.85
  -4   5  -4    3.07    0.39
  -4   5  -4    3.24    0.33
  -4   5  -4    2.75    0.33
   4  -5   4    2.77    0.33
  -5   5  -4    4.81    0.42
  -5   5  -4    5.15    0.50
  -5   5  -4    5.11    0.46
   5  -5   4    4.15    0.47
  -6   5  -4    0.41    0.16
  -6   5  -4    0.09    0.28
  -6   5  -4   -0.10    0.23
   6  -5   4   -0.18    0.27
  -7   5  -4    0.88    0.12
  -7   5  -4    1.29    0.43
   7  -5   4    0.76    0.34
  -8   5  -4   27.91    1.67
   8  -5   4   24.81    1.49
  -9   5  -4    6.78    0.92
   9  -5   4    5.39    0.68
 -10   5  -4    1.40    0.85
  10  -5   4   -0.15    0.57
   8   4  -4    0.58    0.74
   8   4  -4    0.45    0.67
   7   4  -4    0.46    0.57
  -7  -4   4    0.91    0.53
   6   4  -4    1.09    0.24
   6   4  -4    0.34    0.44
  -6  -4   4    0.73    0.45
   5   4  -4    6.50    0.71
   5   4  -4    6.82    0.42
  -5  -4   4    5.85    0.63
   4   4  -4   17.29    1.02
   4   4  -4   17.71    0.83
   4   4  -4   18.67    0.87
  -4  -4   4   17.27    1.05
   3   4  -4   18.39    0.85
   3   4  -4   17.43    1.00
   3   4  -4   20.26    0.89
  -3  -4   4   18.86    1.06
  -3  -4   4   18.76    0.85
   2   4  -4    8.88    0.56
   2   4  -4    9.87    0.49
  -2  -4   4    8.73    0.44
  -2  -4   4    9.05    0.63
   1   4  -4    1.42    0.16
   1   4  -4    1.12    0.17
  -1  -4   4    0.94    0.22
  -1  -4   4    1.06    0.13
   0   4  -4  107.37    4.75
   0   4  -4  118.27    4.76
   0  -4   4  115.84    4.75
   0  -4   4  105.04    4.85
   0  -4   4  110.24    4.80
  -1   4  -4   19.01    0.95
  -1   4  -4   19.95    0.90
   1  -4   4   19.00    0.89
   1  -4   4   18.98    0.89
   1  -4   4   17.17    0.96
  -2   4  -4   32.42    1.40
  -2   4  -4   31.77    1.43
  -2   4  -4   29.06    1.37
   2  -4   4   28.97    1.42
   2  -4   4   26.76    1.48
   2  -4   4   34.41    1.38
  -3   4  -4   12.37    0.68
  -3   4  -4   13.11    0.69
  -3   4  -4   13.30    0.69
   3  -4   4   13.47    0.70
   3  -4   4   12.65    0.71
   3  -4   4   13.55    0.65
  -4   4  -4   44.32    2.15
  -4   4  -4   47.68    2.08
  -4   4  -4   49.46    2.08
   4  -4   4   46.10    2.15
  -5   4  -4   15.07    0.70
  -5   4  -4   14.44    0.71
  -5   4  -4   13.40    0.87
   5  -4   4   14.21    0.84
  -6   4  -4    0.16    0.32
  -6   4  -4    0.51    0.14
  -6   4  -4    0.31    0.08
   6  -4   4    0.38    0.28
  -7   4  -4    0.62    0.41
   7  -4   4    0.45    0.30
  -8   4  -4    3.62    0.65
   8  -4   4    4.47    0.54
  -9   4  -4    9.51    1.14
   9  -4   4   10.32    0.99
 -10   4  -4    3.36    1.00
  10  -4   4    3.53    0.72
   8   3  -4    2.53    0.73
  -8  -3   4    2.03    0.74
   7   3  -4    0.01    0.26
   7   3  -4    0.22    0.54
  -7  -3   4   -0.07    0.41
   6   3  -4    6.28    0.78
   6   3  -4    5.05    0.44
  -6  -3   4    5.32    0.64
   5   3  -4   12.58    0.67
   5   3  -4   13.32    0.67
   5   3  -4   12.58    0.90
  -5  -3   4   14.10    0.83
   4   3  -4   14.59    0.66
   4   3  -4   13.55    0.66
   4   3  -4   13.61    0.86
  -4  -3   4   13.08    0.82
   3   3  -4   16.50    0.92
   3   3  -4   17.78    0.77
   3   3  -4   18.62    0.79
  -3  -3   4   15.16    0.90
   2   3  -4   10.44    0.47
   2   3  -4    9.60    0.45
   2   3  -4    9.83    0.57
  -2  -3   4    9.09    0.44
  -2  -3   4    9.25    0.58
   1   3  -4   67.06    2.66
   1   3  -4   60.93    2.71
   1   3  -4   60.26    2.73
  -1  -3   4   55.26    2.75
  -1  -3   4   64.60    2.75
  -1  -3   4   64.21    2.64
   0   3  -4   27.67    1.20
   0   3  -4   27.49    1.19
   0   3  -4   25.39    1.24
   0  -3   4   27.17    1.23
   0  -3   4   26.17    1.18
  -1   3  -4   59.40    2.56
  -1   3  -4   59.14    2.53
  -1   3  -4   58.73    2.53
   1  -3   4   61.10    2.54
   1  -3   4   55.65    2.53
   1  -3   4   57.42    2.58
  -2   3  -4   87.17    3.73
  -2   3  -4   84.11    3.72
   2  -3   4   84.69    3.74
   2  -3   4   92.96    3.72
   2  -3   4   84.64    3.74
  -3   3  -4    1.87    0.20
  -3   3  -4    2.72    0.24
  -3   3  -4    1.75    0.24
  -3   3  -4    2.34    0.20
   3  -3   4    2.13    0.21
   3  -3   4    1.94    0.24
   3  -3   4    2.01    0.21
  -4   3  -4    2.67    0.20
  -4   3  -4    1.67    0.27
  -4   3  -4    2.46    0.19
   4  -3   4    1.95    0.26
  -5   3  -4    0.72    0.24
  -5   3  -4    0.64    0.07
   5  -3   4    0.64    0.20
  -6   3  -4    4.06    0.54
   6  -3   4    4.47    0.44
  -7   3  -4    0.04    0.37
   7  -3   4    0.49    0.31
  -8   3  -4    0.98    0.57
   8  -3   4    1.98    0.43
  -9   3  -4    1.94    0.63
   9  -3   4    1.16    0.47
 -10   3  -4    2.31    0.97
  10  -3   4    2.58    0.70
   9   2  -4   -0.50    0.71
   8   2  -4    4.34    0.50
   8   2  -4    3.50    0.70
  -8  -2   4    4.63    0.76
  -8  -2   4    4.48    0.62
   7   2  -4    0.53    0.27
   7   2  -4    0.55    0.47
  -7  -2   4    0.18    0.43
  -7  -2   4   -0.40    0.35
   6   2  -4    5.41    0.41
   6   2  -4    4.96    0.63
  -6  -2   4    3.99    0.47
  -6  -2   4    6.21    0.71
   5   2  -4   16.84    0.80
   5   2  -4   17.91    1.04
  -5  -2   4   16.32    0.93
   4   2  -4   50.04    2.03
   4   2  -4   47.35    2.01
   4   2  -4   44.00    2.19
  -4  -2   4   44.62    2.14
   3   2  -4    0.19    0.06
   3   2  -4    0.22    0.06
   3   2  -4    0.28    0.15
  -3  -2   4    0.09    0.13
   2   2  -4  175.33    7.89
   2   2  -4  190.76    7.94
   2   2  -4  181.44    7.78
   2   2  -4  193.88    7.87
   2   2  -4  197.05    7.79
  -2  -2   4  175.73    7.90
  -2  -2   4  182.16    7.92
   1   2  -4   34.52    1.44
   1   2  -4   36.47    1.52
   1   2  -4   35.02    1.52
  -1  -2   4   29.63    1.44
  -1  -2   4   34.82    1.55
   0   2  -4   22.32    0.96
   0   2  -4   22.43    0.99
   0   2  -4   21.92    1.01
   0  -2   4   21.91    0.97
   0  -2   4   22.33    1.01
   0  -2   4   21.48    1.03
  -1   2  -4   20.30    0.90
  -1   2  -4   19.61    0.88
  -1   2  -4   19.97    0.90
   1  -2   4   20.54    0.89
   1  -2   4   19.00    0.91
   1  -2   4   18.67    0.89
  -2   2  -4    0.93    0.12
  -2   2  -4    0.90    0.14
  -2   2  -4    0.91    0.12
   2  -2   4    0.93    0.14
   2  -2   4    0.46    0.10
   2  -2   4    0.76    0.11
  -3   2  -4    0.53    0.17
  -3   2  -4    0.46    0.09
  -3   2  -4    0.49    0.12
  -3   2  -4    0.47    0.07
   3  -2   4    0.23    0.11
   3  -2   4    0.62    0.15
   3  -2   4    0.49    0.09
  -4   2  -4   20.08    1.05
   4  -2   4   19.11    0.97
  -5   2  -4    0.36    0.24
   5  -2   4    0.12    0.15
  -6   2  -4    0.01    0.32
   6  -2   4   -0.24    0.21
  -7   2  -4    2.85    0.52
   7  -2   4    2.81    0.39
  -8   2  -4    0.57    0.53
   8  -2   4    1.00    0.38
  -9   2  -4    6.21    0.97
   9  -2   4    6.84    0.83
 -10   2  -4    1.98    0.89
  10  -2   4    2.95    0.70
   9   1  -4    4.00    0.87
  -9  -1   4    3.84    0.81
   8   1  -4   -0.06    0.49
   8   1  -4    0.15    0.33
  -8  -1   4   -0.34    0.37
  -8  -1   4    0.74    0.55
   7   1  -4   22.03    1.12
  -7  -1   4   21.12    1.16
   6   1  -4    9.49    0.57
   6   1  -4    8.89    0.74
  -6  -1   4    8.75    0.76
  -6  -1   4    9.46    0.62
   5   1  -4    0.14    0.24
   5   1  -4    0.08    0.12
   5   1  -4    0.28    0.12
  -5  -1   4    0.07    0.10
  -5  -1   4    0.43    0.26
  -5  -1   4    0.11    0.15
   4   1  -4   30.02    1.27
   4   1  -4   30.34    1.29
   4   1  -4   26.83    1.42
  -4  -1   4   26.06    1.35
  -4  -1   4   30.69    1.27
   3   1  -4   78.33    3.25
   3   1  -4   71.19    3.37
   3   1  -4   77.73    3.24
   3   1  -4   79.76    3.49
   3   1  -4   79.93    3.30
  -3  -1   4   68.80    3.32
  -3  -1   4   80.25    3.24
   2   1  -4   84.94    3.46
   2   1  -4   80.16    3.37
   2   1  -4   76.22    3.41
  -2  -1   4   75.03    3.43
  -2  -1   4   76.91    3.39
   1   1  -4   12.87    0.61
   1   1  -4   12.99    0.60
  -1  -1   4   12.47    0.63
  -1  -1   4   13.01    0.62
   0   1  -4   50.14    2.13
   0   1  -4   49.00    2.16
   0   1  -4   52.31    2.16
   0  -1   4   49.59    2.13
   0  -1   4   49.75    2.16
   0  -1   4   49.92    2.13
   0  -1   4   50.16    2.17
  -1   1  -4   79.44    3.33
  -1   1  -4   74.89    3.37
  -1   1  -4   78.56    3.34
   1  -1   4   78.77    3.35
   1  -1   4   77.96    3.35
   1  -1   4   81.78    3.36
  -2   1  -4   58.40    2.63
  -2   1  -4   60.83    2.58
  -2   1  -4   60.23    2.53
   2  -1   4   59.23    2.55
   2  -1   4   58.24    2.59
   2  -1   4   62.49    2.60
  -3   1  -4    0.36    0.10
  -3   1  -4    0.32    0.16
   3  -1   4    0.54    0.11
   3  -1   4    0.40    0.15
  -4   1  -4    3.50    0.39
   4  -1   4    3.99    0.30
  -5   1  -4    0.92    0.30
   5  -1   4    0.93    0.20
  -6   1  -4   23.17    1.37
   6  -1   4   24.41    1.24
   7  -1   4    1.81    0.36
  -8   1  -4    2.50    0.63
   8  -1   4    3.41    0.46
  -9   1  -4   -0.44    0.74
   9  -1   4    0.59    0.46
  10   0  -4    7.90    1.10
 -10   0   4    9.65    1.19
   9   0  -4    1.30    0.69
   9   0  -4    2.70    0.46
  -9   0   4    1.98    0.46
  -9   0   4    1.80    0.67
   8   0  -4   25.73    1.60
   8   0  -4   24.51    1.32
  -8   0   4   28.38    1.64
  -8   0   4   23.63    1.33
   7   0  -4   -0.09    0.24
   7   0  -4   -0.30    0.39
  -7   0   4    0.45    0.41
  -7   0   4    0.80    0.24
   6   0  -4   -0.12    0.16
   6   0  -4   -0.10    0.32
  -6   0   4    0.03    0.32
  -6   0   4   -0.03    0.17
   5   0  -4    2.18    0.37
   5   0  -4    2.30    0.24
  -5   0   4    2.23    0.22
  -5   0   4    2.39    0.26
  -5   0   4    2.46    0.37
   4   0  -4    0.34    0.10
   4   0  -4    0.08    0.10
   4   0  -4    0.25    0.20
  -4   0   4    0.06    0.10
  -4   0   4    0.22    0.08
   3   0  -4   14.66    0.80
   3   0  -4   15.82    0.85
   3   0  -4   16.45    0.71
  -3   0   4   17.14    0.70
  -3   0   4   14.28    0.78
  -3   0   4   15.31    0.84
   2   0  -4    0.93    0.10
   2   0  -4    0.75    0.08
   2   0  -4    0.89    0.14
  -2   0   4    0.79    0.16
  -2   0   4    0.86    0.12
   1   0  -4   71.39    3.10
   1   0  -4   72.97    3.14
   1   0  -4   76.71    3.13
  -1   0   4   74.43    3.15
  -1   0   4   73.55    3.11
  -1   0   4   71.47    3.13
   0   0  -4   29.39    1.34
   0   0  -4   32.65    1.33
   0   0  -4   29.21    1.32
   0   0   4   30.13    1.32
   0   0   4   31.64    1.34
   0   0   4   30.28    1.32
   0   0   4   31.33    1.33
  -1   0  -4  138.36    5.63
  -1   0  -4  131.80    5.65
  -1   0  -4  128.98    5.61
   1   0   4  134.76    5.63
   1   0   4  141.67    5.64
   1   0   4  128.87    5.63
   1   0   4  126.03    5.60
  -2   0  -4    4.85    0.28
  -2   0  -4    4.59    0.24
  -2   0  -4    4.89    0.34
   2   0   4    4.08    0.27
   2   0   4    4.91    0.22
   2   0   4    4.20    0.30
   2   0   4    4.67    0.30
  -3   0  -4    1.56    0.25
   3   0   4    1.85    0.09
   3   0   4    1.61    0.19
  -4   0  -4    2.35    0.35
   4   0   4    2.09    0.25
  -5   0  -4    0.47    0.32
   5   0   4    0.24    0.16
  -6   0  -4   11.34    0.94
   6   0   4   12.61    0.73
  -7   0  -4   -0.43    0.48
   7   0   4    1.20    0.32
  -8   0  -4   -0.02    0.59
   8   0   4    0.47    0.37
  -9   0  -4    0.92    0.81
   9   0   4    2.42    0.51
  10  -1  -4    6.09    0.94
  10  -1  -4    6.78    0.73
 -10   1   4    6.72    0.95
   9  -1  -4    8.37    1.08
   9  -1  -4    7.12    0.76
  -9   1   4    9.89    1.09
  -9   1   4    7.17    0.71
   8  -1  -4    4.07    0.67
   8  -1  -4    3.95    0.45
  -8   1   4    4.21    0.49
  -8   1   4    4.13    0.66
   7  -1  -4    0.71    0.25
   7  -1  -4    0.27    0.36
  -7   1   4    0.86    0.21
  -7   1   4    0.65    0.38
   6  -1  -4    2.93    0.41
   6  -1  -4    3.14    0.32
  -6   1   4    3.28    0.41
  -6   1   4    3.07    0.29
   5  -1  -4   51.45    2.40
  -5   1   4   52.52    2.26
  -5   1   4   53.29    2.42
  -5   1   4   49.83    2.27
   4  -1  -4    0.07    0.17
   4  -1  -4    0.04    0.10
   4  -1  -4   -0.19    0.23
   4  -1  -4   -0.03    0.09
  -4   1   4    0.08    0.08
  -4   1   4   -0.04    0.09
   3  -1  -4   21.87    1.01
   3  -1  -4   22.51    1.10
   3  -1  -4   23.18    1.02
   3  -1  -4   23.08    1.07
  -3   1   4   22.19    1.01
  -3   1   4   21.64    1.08
   2  -1  -4    0.27    0.06
   2  -1  -4    0.40    0.09
   2  -1  -4    0.19    0.07
  -2   1   4    0.29    0.13
  -2   1   4    0.18    0.05
  -2   1   4    0.25    0.08
   1  -1  -4   16.65    0.76
   1  -1  -4   16.77    0.75
   1  -1  -4   16.80    0.75
  -1   1   4   16.83    0.76
  -1   1   4   16.87    0.75
  -1   1   4   16.34    0.75
   0  -1  -4    0.11    0.05
   0  -1  -4    0.19    0.06
   0  -1  -4    0.28    0.08
   0   1   4    0.17    0.06
   0   1   4    0.25    0.05
  -1  -1  -4  216.38    9.51
  -1  -1  -4  221.76    9.55
  -1  -1  -4  220.39    9.51
   1   1   4  239.37    9.52
   1   1   4  219.15    9.49
   1   1   4  233.12    9.52
   1   1   4  227.69    9.52
  -2  -1  -4    7.71    0.41
   2   1   4    6.74    0.40
   2   1   4    7.97    0.45
   2   1   4    7.85    0.37
  -3  -1  -4   29.47    1.52
   3   1   4   30.50    1.43
   3   1   4   31.84    1.39
   3   1   4   33.67    1.37
  -4  -1  -4   -0.06    0.22
   4   1   4    0.12    0.07
   4   1   4    0.05    0.09
   4   1   4    0.15    0.13
  -5  -1  -4    1.49    0.38
   5   1   4    1.53    0.22
   5   1   4    1.78    0.13
  -6  -1  -4    0.47    0.44
   6   1   4    0.85    0.22
  -7  -1  -4    0.62    0.52
   7   1   4    0.44    0.29
  -8  -1  -4    3.04    0.84
   8   1   4    2.07    0.47
  -9  -1  -4    4.32    1.06
   9   1   4    4.09    0.67
  10  -2  -4    5.08    0.85
  10  -2  -4    6.11    0.71
 -10   2   4    6.47    0.90
   9  -2  -4   24.08    1.53
   9  -2  -4   25.21    1.37
  -9   2   4   24.17    1.55
  -9   2   4   24.20    1.27
   8  -2  -4    0.34    0.45
   8  -2  -4    0.06    0.27
  -8   2   4   -0.03    0.19
  -8   2   4    0.12    0.43
   7  -2  -4    1.68    0.39
   7  -2  -4    1.86    0.29
  -7   2   4    1.71    0.24
  -7   2   4    1.85    0.40
   6  -2  -4    5.97    0.43
   6  -2  -4    5.02    0.51
  -6   2   4    5.87    0.56
  -6   2   4    6.00    0.37
   5  -2  -4    0.14    0.13
   5  -2  -4    0.02    0.19
  -5   2   4   -0.13    0.09
  -5   2   4   -0.01    0.18
  -5   2   4   -0.31    0.15
   4  -2  -4   81.93    3.34
   4  -2  -4   76.20    3.40
   4  -2  -4   71.63    3.43
  -4   2   4   80.23    3.34
  -4   2   4   74.16    3.30
   3  -2  -4   28.58    1.27
   3  -2  -4   28.23    1.30
   3  -2  -4   28.29    1.26
   3  -2  -4   28.35    1.27
  -3   2   4   26.86    1.29
  -3   2   4   26.73    1.24
  -3   2   4   27.98    1.27
   2  -2  -4   14.15    0.70
   2  -2  -4   15.38    0.73
   2  -2  -4   14.84    0.68
  -2   2   4   14.96    0.72
  -2   2   4   15.21    0.70
  -2   2   4   15.37    0.72
   1  -2  -4   29.67    1.34
   1  -2  -4   29.29    1.37
   1  -2  -4   30.89    1.31
  -1   2   4   30.03    1.35
  -1   2   4   31.96    1.35
  -1   2   4   30.37    1.32
   0  -2  -4   24.25    1.10
   0  -2  -4   22.90    1.13
   0  -2  -4   24.46    1.10
   0   2   4   24.67    1.11
   0   2   4   24.80    1.11
   0   2   4   26.19    1.08
  -1  -2  -4  121.10    5.27
  -1  -2  -4  113.81    5.24
  -1  -2  -4  123.63    5.28
   1   2   4  128.35    5.25
   1   2   4  125.57    5.25
   1   2   4  117.02    5.24
   1   2   4  132.94    5.25
  -2  -2  -4   22.54    1.16
  -2  -2  -4   21.04    1.08
  -2  -2  -4   24.34    1.11
   2   2   4   24.80    1.08
   2   2   4   22.39    1.09
   2   2   4   24.74    1.11
   2   2   4   25.20    1.13
  -3  -2  -4   61.78    2.99
   3   2   4   63.63    2.88
   3   2   4   68.01    2.88
   3   2   4   70.09    2.86
  -4  -2  -4    6.02    0.62
   4   2   4    6.62    0.43
   4   2   4    6.67    0.46
   4   2   4    7.65    0.41
  -5  -2  -4   15.95    1.13
   5   2   4   15.69    0.88
   5   2   4   17.10    0.79
   5   2   4   17.01    0.80
  -6  -2  -4    2.17    0.59
  -7  -2  -4   -0.40    0.59
   7   2   4   -0.44    0.26
  -8  -2  -4    0.36    0.77
   8   2   4    0.68    0.41
  10  -3  -4    2.18    0.73
  10  -3  -4    1.49    0.52
 -10   3   4    1.21    0.71
   9  -3  -4   19.36    1.11
   9  -3  -4   16.50    1.21
  -9   3   4   16.46    0.94
  -9   3   4   18.05    1.24
   8  -3  -4    0.21    0.30
   8  -3  -4    0.55    0.43
  -8   3   4    0.37    0.40
  -8   3   4    0.42    0.20
   7  -3  -4   10.50    0.68
   7  -3  -4   10.56    0.75
  -7   3   4   10.99    0.81
  -7   3   4   10.86    0.58
   6  -3  -4    0.43    0.25
   6  -3  -4    0.45    0.19
  -6   3   4    0.44    0.13
  -6   3   4    0.62    0.27
   5  -3  -4    0.92    0.23
   5  -3  -4    0.56    0.18
   5  -3  -4    0.97    0.34
  -5   3   4    0.86    0.14
  -5   3   4    1.01    0.23
   4  -3  -4   31.11    1.47
   4  -3  -4   30.32    1.49
   4  -3  -4   33.88    1.48
  -4   3   4   32.54    1.49
  -4   3   4   32.43    1.44
   3  -3  -4    7.02    0.43
   3  -3  -4    7.90    0.39
   3  -3  -4    7.22    0.44
  -3   3   4    7.07    0.41
  -3   3   4    7.57    0.45
   2  -3  -4   76.65    3.09
   2  -3  -4   62.43    3.18
  -2   3   4   76.70    3.17
  -2   3   4   76.07    3.12
  -2   3   4   71.82    3.15
   1  -3  -4    4.50    0.34
   1  -3  -4    4.58    0.25
   1  -3  -4    4.14    0.29
  -1   3   4    4.44    0.30
  -1   3   4    4.29    0.31
  -1   3   4    4.87    0.23
   0  -3  -4    4.63    0.30
   0  -3  -4    5.21    0.37
   0  -3  -4    4.89    0.31
   0   3   4    4.62    0.32
   0   3   4    5.54    0.27
   0   3   4    4.54    0.33
  -1  -3  -4    0.03    0.09
  -1  -3  -4    0.18    0.16
  -1  -3  -4    0.31    0.20
   1   3   4    0.10    0.12
   1   3   4    0.15    0.12
  -2  -3  -4   16.84    0.94
  -2  -3  -4   16.56    0.85
  -2  -3  -4   18.61    0.93
   2   3   4   16.61    0.87
   2   3   4   17.42    0.92
   2   3   4   19.38    0.91
   2   3   4   17.08    0.85
  -3  -3  -4   28.50    1.50
  -3  -3  -4   28.80    1.38
   3   3   4   29.52    1.37
   3   3   4   30.96    1.42
   3   3   4   30.13    1.38
  -4  -3  -4   14.99    0.96
   4   3   4   13.72    0.75
   4   3   4   14.59    0.77
   4   3   4   13.30    0.77
  -5  -3  -4    5.65    0.68
   5   3   4    6.06    0.46
   5   3   4    6.10    0.49
  -6  -3  -4    1.51    0.61
   6   3   4    1.52    0.34
  -7  -3  -4    5.19    0.88
   7   3   4    6.36    0.66
  10  -4  -4    8.10    0.88
  10  -4  -4    8.23    1.10
 -10   4   4    9.43    1.12
   9  -4  -4    0.71    0.41
   9  -4  -4    1.07    0.55
  -9   4   4    1.22    0.26
  -9   4   4    0.64    0.51
   8  -4  -4   -0.59    0.35
   8  -4  -4    0.20    0.30
  -8   4   4    0.49    0.18
  -8   4   4    0.35    0.38
   7  -4  -4   26.10    1.29
   7  -4  -4   23.13    1.32
  -7   4   4   25.07    1.17
  -7   4   4   25.38    1.34
   6  -4  -4    0.20    0.20
   6  -4  -4   -0.03    0.21
  -6   4   4    0.01    0.10
  -6   4   4   -0.03    0.23
   5  -4  -4   16.41    0.85
   5  -4  -4   14.49    0.83
   5  -4  -4   15.40    0.88
  -5   4   4   16.65    0.78
   4  -4  -4    3.13    0.33
   4  -4  -4    3.46    0.30
   4  -4  -4    3.24    0.26
  -4   4   4    3.40    0.26
   3  -4  -4    1.59    0.20
   3  -4  -4    1.69    0.13
   3  -4  -4    1.56    0.21
  -3   4   4    1.76    0.22
   2  -4  -4    0.44    0.13
   2  -4  -4    0.46    0.11
   2  -4  -4    0.40    0.06
  -2   4   4    0.30    0.12
  -2   4   4    0.30    0.13
   1  -4  -4   21.84    0.96
   1  -4  -4   20.27    1.01
  -1   4   4   21.22    1.04
  -1   4   4   21.96    0.92
   0  -4  -4  152.71    6.48
   0  -4  -4  146.04    6.49
   0   4   4  168.03    6.43
   0   4   4  141.16    6.51
  -1  -4  -4    6.36    0.40
  -1  -4  -4    5.78    0.46
   1   4   4    6.89    0.41
   1   4   4    5.67    0.43
  -2  -4  -4   72.64    3.29
  -2  -4  -4   74.41    3.22
   2   4   4   72.18    3.24
   2   4   4   74.16    3.22
  -3  -4  -4    0.48    0.17
  -3  -4  -4    0.52    0.31
   3   4   4    0.77    0.22
   3   4   4    0.74    0.18
  -4  -4  -4    0.03    0.39
   4   4   4    0.08    0.21
   4   4   4    0.39    0.18
  -5  -4  -4   11.61    0.98
   5   4   4   11.10    0.72
   5   4   4   10.54    0.70
  -6  -4  -4    2.02    0.70
   6   4   4    2.17    0.39
  -7  -4  -4    5.56    1.00
   7   4   4    5.74    0.70
  10  -5  -4    7.86    0.96
  10  -5  -4    8.85    0.91
 -10   5   4    8.12    0.67
 -10   5   4   10.42    1.14
   9  -5  -4    1.00    0.53
   9  -5  -4    1.47    0.44
  -9   5   4    1.15    0.26
  -9   5   4    1.54    0.52
   8  -5  -4   10.33    0.79
   8  -5  -4    8.85    0.80
  -8   5   4   10.81    0.60
  -8   5   4   11.53    0.88
   7  -5  -4    3.63    0.44
   7  -5  -4    3.84    0.48
  -7   5   4    3.77    0.33
  -7   5   4    4.26    0.53
   6  -5  -4   17.66    0.99
   6  -5  -4   16.64    0.94
  -6   5   4   18.90    0.90
  -6   5   4   18.80    0.97
   5  -5  -4   14.80    0.83
   5  -5  -4   15.52    0.76
   5  -5  -4   13.80    0.79
  -5   5   4   15.69    0.77
   4  -5  -4    8.06    0.53
   4  -5  -4    8.04    0.46
   4  -5  -4    8.96    0.42
  -4   5   4    7.98    0.51
   3  -5  -4    1.04    0.19
  -3   5   4    1.16    0.20
   2  -5  -4   15.46    0.79
  -2   5   4   15.78    0.83
   1  -5  -4    2.54    0.18
   1  -5  -4    2.78    0.27
  -1   5   4    2.43    0.29
  -1   5   4    2.19    0.17
   0  -5  -4   13.66    0.71
   0  -5  -4   12.04    0.68
   0   5   4   15.42    0.64
   0   5   4   12.69    0.76
  -1  -5  -4    1.75    0.28
  -1  -5  -4    1.47    0.20
   1   5   4    1.83    0.25
   1   5   4    1.64    0.28
  -2  -5  -4   48.48    2.29
  -2  -5  -4   49.81    2.22
   2   5   4   49.64    2.22
   2   5   4   48.29    2.26
  -3  -5  -4    0.05    0.19
  -3  -5  -4   -0.02    0.34
   3   5   4    0.16    0.19
   3   5   4    0.23    0.25
  -4  -5  -4   18.57    1.23
  -4  -5  -4   17.84    0.98
   4   5   4   18.97    0.99
   4   5   4   17.59    1.00
  -5  -5  -4    3.02    0.73
   5   5   4    2.16    0.40
   5   5   4    1.96    0.31
  -6  -5  -4    2.25    0.79
   6   5   4    1.36    0.68
   6   5   4    1.99    0.41
  10  -6  -4    3.21    0.62
  10  -6  -4    2.09    0.67
 -10   6   4    3.01    0.39
 -10   6   4    3.17    0.72
   9  -6  -4   13.42    1.11
   9  -6  -4   15.03    1.08
  -9   6   4   16.83    0.87
  -9   6   4   16.59    1.15
   8  -6  -4   14.08    0.97
   8  -6  -4   16.78    1.17
  -8   6   4   18.06    0.87
  -8   6   4   16.29    1.05
   7  -6  -4    2.57    0.37
   7  -6  -4    1.74    0.38
  -7   6   4    2.54    0.33
   6  -6  -4  120.62    5.49
   6  -6  -4  129.15    5.49
  -6   6   4  126.83    5.43
   5  -6  -4    0.27    0.17
   5  -6  -4    0.22    0.19
   5  -6  -4    0.14    0.13
  -5   6   4    0.20    0.16
   4  -6  -4    9.03    0.62
  -4   6   4    9.63    0.59
   3  -6  -4    3.22    0.33
  -3   6   4    3.37    0.39
   2  -6  -4    6.16    0.44
  -2   6   4    6.52    0.49
   1  -6  -4    5.64    0.41
  -1   6   4    5.88    0.48
   0  -6  -4    0.01    0.16
   0   6   4   -0.17    0.15
   0   6   4   -0.20    0.20
   0   6   4   -0.26    0.11
  -1  -6  -4    8.57    0.75
  -1  -6  -4    9.41    0.57
   1   6   4   10.23    0.58
   1   6   4    8.64    0.66
   1   6   4    8.06    0.61
  -2  -6  -4   17.69    1.06
  -2  -6  -4   19.55    0.98
   2   6   4   17.02    1.03
   2   6   4   18.53    1.05
   2   6   4   19.73    0.97
  -3  -6  -4    0.34    0.40
  -3  -6  -4    0.47    0.23
   3   6   4    0.15    0.31
   3   6   4    0.39    0.24
   3   6   4    0.16    0.35
  -4  -6  -4   10.74    0.97
  -4  -6  -4    9.45    0.66
   4   6   4    8.24    0.96
   4   6   4    9.43    0.79
   4   6   4    9.47    0.65
  -5  -6  -4    0.53    0.70
   5   6   4    0.62    0.60
   5   6   4    0.36    0.33
  10  -7  -4    5.82    0.73
 -10   7   4    4.98    0.53
   9  -7  -4   -0.39    0.42
  -9   7   4    0.10    0.26
   8  -7  -4    0.48    0.39
   8  -7  -4    0.74    0.59
  -8   7   4    0.58    0.27
   7  -7  -4   35.75    1.77
   7  -7  -4   38.10    1.90
  -7   7   4   41.55    1.82
   6  -7  -4   23.89    1.09
   6  -7  -4   22.63    1.24
  -6   7   4   23.99    1.21
   5  -7  -4    1.37    0.31
  -5   7   4    1.08    0.24
   4  -7  -4    6.70    0.55
  -4   7   4    6.69    0.52
   3  -7  -4    2.30    0.32
  -3   7   4    3.02    0.38
   2  -7  -4    0.59    0.22
  -2   7   4    1.04    0.28
   1  -7  -4    0.04    0.19
  -1   7   4   -0.08    0.27
   0  -7  -4   -0.03    0.19
   0   7   4    0.00    0.16
   0   7   4    0.09    0.29
  -1  -7  -4   15.53    0.96
  -1  -7  -4   15.41    0.86
   1   7   4   13.75    0.83
   1   7   4   15.62    0.96
  -2  -7  -4    1.31    0.30
  -2  -7  -4    0.70    0.37
   2   7   4    1.40    0.30
   2   7   4    0.12    0.35
   2   7   4    0.70    0.35
  -3  -7  -4    1.03    0.31
  -3  -7  -4    1.03    0.60
   3   7   4    0.38    0.44
   3   7   4    1.50    0.32
  -4  -7  -4   19.34    1.15
   4   7   4   20.58    1.27
   4   7   4   19.47    1.13
   9  -8  -4   -0.04    0.49
  -9   8   4    0.08    0.29
   8  -8  -4   47.38    2.45
  -8   8   4   52.10    2.32
   7  -8  -4   20.87    1.24
  -7   8   4   21.41    1.14
   6  -8  -4    0.14    0.33
  -6   8   4   -0.07    0.25
   5  -8  -4    5.54    0.59
  -5   8   4    5.25    0.62
   2  -8  -4    4.68    0.67
   1  -8  -4    2.57    0.34
  -1   8   4    3.09    0.49
   0  -8  -4    1.08    0.31
   0   8   4    1.64    0.44
  -1  -8  -4    1.43    0.30
   1   8   4    2.00    0.45
  -2  -8  -4    1.29    0.35
   2   8   4    0.38    0.27
   2   8   4    0.98    0.46
  -3  -8  -4   19.73    1.13
   3   8   4   19.60    1.15
   3   8   4   19.35    1.28
   9  -9  -4    0.16    0.54
  -9   9   4    0.23    0.36
   8  -9  -4    6.45    0.74
  -8   9   4    7.11    0.66
   7  -9  -4    8.77    0.77
  -7   9   4    7.83    0.72
   6  -9  -4   11.48    0.92
  -6   9   4   12.40    0.81
   5  -9  -4   -0.06    0.34
  -5   9   4    0.02    0.35
   4  -9  -4    0.82    0.34
  -4   9   4    1.35    0.43
   3  -9  -4    0.41    0.32
  -3   9   4    0.54    0.41
   2  -9  -4    1.34    0.34
  -2   9   4    0.35    0.36
   1  -9  -4   15.83    0.95
  -1   9   4   16.34    1.15
   0  -9  -4    1.62    0.38
   0   9   4    1.79    0.53
  -1  -9  -4    0.39    0.35
   1   9   4   -0.28    0.46
  -2  -9  -4    4.06    0.54
   2   9   4    1.28    0.61
   2   9   4    3.12    0.47
   8 -10  -4    2.63    0.58
  -8  10   4    1.57    0.41
   7 -10  -4    4.46    0.66
  -7  10   4    6.65    0.73
   6 -10  -4    3.25    0.53
   5 -10  -4    2.32    0.46
  -5  10   4    1.55    0.43
   4 -10  -4    2.03    0.42
  -4  10   4    2.97    0.55
   3 -10  -4    0.50    0.38
  -3  10   4    0.43    0.43
   2 -10  -4    3.50    0.52
  -2  10   4    4.60    0.66
   1 -10  -4   -0.45    0.37
  -1  10   4   -0.48    0.55
   0 -10  -4    0.60    0.37
   0  10   4    0.18    0.59
   6 -11  -4    0.39    0.54
  -6  11   4    1.14    0.51
   5 -11  -4    2.53    0.55
  -5  11   4    3.05    0.60
   4 -11  -4   22.26    1.37
  -4  11   4   22.47    1.51
   3 -11  -4    0.15    0.45
  -3  11   4    0.73    0.63
  -1  11  -5    7.11    1.03
   1 -11   5    6.98    0.80
  -2  11  -5    3.75    0.77
   2 -11   5    3.61    0.51
  -3  11  -5    0.16    0.70
   3 -11   5    0.26    0.43
  -4  11  -5   -0.43    0.63
   4 -11   5   -0.33    0.42
  -5  11  -5    6.64    0.88
   5 -11   5    6.05    0.73
  -6  11  -5    1.10    0.66
   6 -11   5    1.23    0.58
   1  10  -5   -0.06    0.64
   0  10  -5    4.44    0.80
   0 -10   5    3.17    0.54
  -1  10  -5    1.04    0.66
  -2  10  -5    2.30    0.60
   2 -10   5    2.02    0.40
  -3  10  -5    0.70    0.58
   3 -10   5    0.71    0.39
  -4  10  -5    0.48    0.52
   4 -10   5    0.51    0.38
  -5  10  -5   41.53    2.18
   5 -10   5   43.96    2.17
  -6  10  -5    7.99    0.88
   6 -10   5    7.24    0.78
  -7  10  -5    5.88    0.71
   7 -10   5    9.55    0.98
   3   9  -5    7.45    1.07
   3   9  -5    9.69    0.76
  -3  -9   5    9.30    1.09
   2   9  -5   -0.17    0.54
  -2  -9   5    0.51    0.65
   1   9  -5   -0.03    0.26
   1   9  -5   -0.85    0.49
  -1  -9   5    0.04    0.25
  -1  -9   5   -0.15    0.55
   0   9  -5    0.78    0.24
   0   9  -5    0.96    0.55
   0  -9   5    0.83    0.56
   0  -9   5    1.87    0.32
  -1   9  -5    6.19    0.45
  -1   9  -5    6.70    0.80
   1  -9   5    5.81    0.79
   1  -9   5    6.15    0.52
  -2   9  -5    0.21    0.41
  -2   9  -5   -0.11    0.18
   2  -9   5   -0.07    0.26
  -3   9  -5    3.48    0.58
  -3   9  -5    3.67    0.42
   3  -9   5    4.10    0.47
  -4   9  -5    0.04    0.27
   4  -9   5    0.12    0.35
  -5   9  -5    2.24    0.49
  -5   9  -5    1.51    0.39
   5  -9   5    1.34    0.41
  -6   9  -5    1.16    0.48
  -6   9  -5    0.22    0.40
   6  -9   5    1.02    0.46
  -7   9  -5   19.54    1.37
  -7   9  -5   19.72    1.19
   7  -9   5   19.79    1.33
  -8   9  -5    0.56    0.68
   8  -9   5    0.13    0.57
   4   8  -5   -0.73    0.58
   4   8  -5    0.20    0.41
  -4  -8   5    0.65    0.72
   3   8  -5   -1.24    0.58
   3   8  -5    0.27    0.32
  -3  -8   5    0.46    0.62
   2   8  -5    8.27    0.65
   2   8  -5    8.48    1.03
  -2  -8   5    9.24    0.58
  -2  -8   5    8.70    1.04
   1   8  -5    7.39    0.95
   1   8  -5    9.50    0.60
  -1  -8   5    9.96    0.59
  -1  -8   5   10.04    0.90
   0   8  -5   18.91    0.97
   0   8  -5   19.80    1.30
   0  -8   5   20.69    1.00
   0  -8   5   18.41    1.24
  -1   8  -5    0.67    0.37
  -1   8  -5    1.37    0.21
   1  -8   5    1.87    0.27
   1  -8   5    1.05    0.45
  -2   8  -5    3.32    0.50
  -2   8  -5    3.38    0.31
   2  -8   5    2.68    0.48
   2  -8   5    2.82    0.35
  -3   8  -5    0.87    0.38
  -3   8  -5    0.64    0.20
   3  -8   5    0.83    0.27
  -4   8  -5   18.91    1.16
  -4   8  -5   18.88    1.03
   4  -8   5   21.17    1.11
  -5   8  -5   16.84    0.99
  -5   8  -5   16.02    1.01
   5  -8   5   17.27    1.05
  -6   8  -5   14.25    0.92
  -6   8  -5   15.63    1.04
   6  -8   5   14.68    1.03
  -7   8  -5    1.34    0.56
  -7   8  -5    1.59    0.36
   7  -8   5    1.03    0.47
  -8   8  -5    0.25    0.63
   8  -8   5    0.49    0.45
  -9   8  -5    6.62    0.98
   9  -8   5    5.81    0.87
   5   7  -5   23.52    1.60
   5   7  -5   27.41    1.89
  -5  -7   5   24.91    1.71
   4   7  -5    0.88    0.58
   4   7  -5    1.99    0.41
  -4  -7   5    0.73    0.58
   3   7  -5   28.02    1.73
   3   7  -5   30.40    1.50
   3   7  -5   29.27    1.35
  -3  -7   5   30.59    1.37
  -3  -7   5   28.32    1.69
   2   7  -5   -0.15    0.21
   2   7  -5   -0.16    0.37
  -2  -7   5    0.17    0.16
  -2  -7   5    0.06    0.38
   1   7  -5    4.25    0.58
   1   7  -5    4.33    0.39
  -1  -7   5    3.87    0.35
  -1  -7   5    4.05    0.59
   0   7  -5   11.30    0.84
   0   7  -5   11.74    0.63
   0  -7   5   12.06    0.65
   0  -7   5   10.87    0.84
  -1   7  -5    4.00    0.31
  -1   7  -5    3.56    0.51
   1  -7   5    4.11    0.38
   1  -7   5    4.17    0.54
  -2   7  -5    2.76    0.43
  -2   7  -5    2.71    0.26
   2  -7   5    2.79    0.42
   2  -7   5    2.49    0.31
  -3   7  -5    2.07    0.38
  -3   7  -5    2.43    0.30
   3  -7   5    2.38    0.38
   3  -7   5    2.59    0.32
  -4   7  -5    9.55    0.60
  -4   7  -5    9.04    0.69
   4  -7   5    9.45    0.67
  -5   7  -5    0.85    0.29
  -5   7  -5    0.06    0.29
   5  -7   5    0.20    0.31
  -6   7  -5   14.95    0.96
  -6   7  -5   13.60    0.83
   6  -7   5   12.22    0.99
  -7   7  -5   12.41    0.75
  -7   7  -5   11.68    0.99
   7  -7   5   13.01    1.01
  -8   7  -5   15.61    1.29
   8  -7   5   15.69    1.22
  -9   7  -5    0.42    0.78
   9  -7   5    1.03    0.56
   6   6  -5    0.90    0.56
   6   6  -5   -0.11    0.91
  -6  -6   5    1.72    0.72
   5   6  -5    0.77    0.58
   5   6  -5    1.10    0.47
  -5  -6   5    0.50    0.58
   4   6  -5    0.70    0.17
   4   6  -5    0.89    0.41
  -4  -6   5    0.97    0.50
   3   6  -5   31.40    1.53
   3   6  -5   29.95    1.37
  -3  -6   5   31.32    1.38
  -3  -6   5   29.37    1.66
   2   6  -5    3.08    0.34
   2   6  -5    2.50    0.32
  -2  -6   5    2.39    0.46
  -2  -6   5    2.72    0.24
   1   6  -5   25.34    1.21
   1   6  -5   26.65    1.23
  -1  -6   5   23.37    1.36
  -1  -6   5   25.26    1.16
   0   6  -5    2.93    0.40
   0   6  -5    3.14    0.28
   0   6  -5    2.69    0.32
   0  -6   5    2.64    0.39
   0  -6   5    2.96    0.28
  -1   6  -5   26.95    1.45
  -1   6  -5   27.95    1.27
   1  -6   5   28.55    1.31
   1  -6   5   27.75    1.45
  -2   6  -5    0.09    0.21
  -2   6  -5    0.13    0.11
   2  -6   5    0.36    0.21
   2  -6   5    0.01    0.17
  -3   6  -5    2.77    0.28
  -3   6  -5    2.67    0.36
   3  -6   5    2.91    0.36
   3  -6   5    2.88    0.38
  -4   6  -5    8.74    0.60
  -4   6  -5    9.59    0.63
   4  -6   5    9.84    0.65
  -5   6  -5    0.95    0.30
  -5   6  -5    0.92    0.26
   5  -6   5    1.28    0.28
  -6   6  -5   31.26    1.50
  -6   6  -5   31.03    1.66
   6  -6   5   33.59    1.67
  -7   6  -5    3.66    0.58
   7  -6   5    3.83    0.50
  -8   6  -5   14.07    1.14
   8  -6   5   14.79    1.06
  -9   6  -5    3.64    0.84
   9  -6   5    4.36    0.66
   7   5  -5    0.00    0.52
  -7  -5   5    0.27    0.67
   6   5  -5   27.17    1.63
  -6  -5   5   30.96    1.74
   5   5  -5    0.20    0.33
   5   5  -5   -0.04    0.18
   4   5  -5    7.58    0.68
   4   5  -5    8.13    0.45
  -4  -5   5    8.69    0.81
   3   5  -5   22.19    1.00
   3   5  -5   21.38    1.16
   3   5  -5   22.37    1.06
  -3  -5   5   21.76    1.24
  -3  -5   5   22.28    1.00
   2   5  -5   12.19    0.70
   2   5  -5   13.00    0.84
  -2  -5   5   12.82    0.60
  -2  -5   5   12.38    0.82
   1   5  -5   14.89    0.71
   1   5  -5   13.18    0.72
  -1  -5   5   13.16    0.84
  -1  -5   5   13.97    0.66
   0   5  -5    4.72    0.37
   0   5  -5    4.91    0.32
   0  -5   5    5.18    0.32
   0  -5   5    3.77    0.47
  -1   5  -5    5.06    0.35
  -1   5  -5    4.91    0.30
   1  -5   5    3.97    0.33
   1  -5   5    4.00    0.41
  -2   5  -5    4.82    0.31
  -2   5  -5    4.68    0.43
   2  -5   5    4.92    0.43
   2  -5   5    4.59    0.35
  -3   5  -5   23.77    1.13
  -3   5  -5   22.71    1.16
   3  -5   5   22.88    1.17
   3  -5   5   24.01    1.16
  -4   5  -5    0.31    0.22
  -4   5  -5    0.37    0.19
  -4   5  -5    0.45    0.22
   4  -5   5    0.27    0.19
  -5   5  -5    1.96    0.27
  -5   5  -5    1.61    0.35
   5  -5   5    2.40    0.36
  -6   5  -5    7.23    0.43
  -6   5  -5    5.96    0.69
   6  -5   5    7.17    0.60
  -7   5  -5    2.83    0.51
   7  -5   5    3.44    0.48
  -8   5  -5   36.84    2.16
   8  -5   5   40.38    2.03
  -9   5  -5    3.26    0.79
   9  -5   5    4.48    0.65
 -10   5  -5    2.56    0.97
  10  -5   5    2.05    0.65
   8   4  -5    0.13    0.61
  -8  -4   5    0.86    0.71
   7   4  -5    5.01    0.76
  -7  -4   5    4.64    0.71
   6   4  -5    8.82    0.82
   6   4  -5    8.19    0.78
  -6  -4   5    7.61    0.85
   5   4  -5    1.97    0.22
   5   4  -5    1.23    0.38
  -5  -4   5    2.32    0.47
   4   4  -5   31.38    1.64
   4   4  -5   34.03    1.48
   4   4  -5   34.12    1.45
  -4  -4   5   31.51    1.67
   3   4  -5    3.14    0.36
   3   4  -5    3.20    0.20
   3   4  -5    3.21    0.28
  -3  -4   5    3.28    0.43
   2   4  -5  129.04    5.07
   2   4  -5  120.83    5.04
   2   4  -5  111.96    5.16
  -2  -4   5  120.42    5.04
  -2  -4   5  113.74    5.23
   1   4  -5   13.67    0.64
   1   4  -5   12.92    0.67
  -1  -4   5   12.72    0.79
  -1  -4   5   13.44    0.61
   0   4  -5    2.42    0.21
   0   4  -5    2.84    0.23
   0  -4   5    2.36    0.20
   0  -4   5    2.09    0.28
  -1   4  -5    1.08    0.14
  -1   4  -5    0.84    0.14
   1  -4   5    1.19    0.19
   1  -4   5    0.69    0.18
   1  -4   5    1.02    0.15
  -2   4  -5    0.92    0.20
  -2   4  -5    0.66    0.16
  -2   4  -5    0.89    0.14
   2  -4   5    0.85    0.17
   2  -4   5    0.42    0.18
  -3   4  -5   21.21    1.08
  -3   4  -5   22.03    1.08
  -3   4  -5   23.27    1.06
   3  -4   5   22.98    1.09
   3  -4   5   22.15    1.10
  -4   4  -5    2.11    0.27
  -4   4  -5    2.83    0.37
  -4   4  -5    2.61    0.27
   4  -4   5    2.17    0.29
  -5   4  -5   13.06    0.87
  -5   4  -5   14.30    0.69
  -5   4  -5   14.04    0.68
   5  -4   5   14.39    0.85
  -6   4  -5   12.41    0.54
  -6   4  -5   10.90    0.83
  -6   4  -5   11.82    0.52
   6  -4   5   10.86    0.79
  -7   4  -5   28.55    1.63
  -8   4  -5    0.94    0.60
   8  -4   5    1.10    0.42
  -9   4  -5    0.49    0.68
   9  -4   5    1.31    0.54
 -10   4  -5    4.78    0.94
  10  -4   5    3.40    0.78
   8   3  -5    0.33    0.63
  -8  -3   5    0.20    0.55
   7   3  -5    3.34    0.63
  -7  -3   5    3.48    0.59
   6   3  -5    8.13    0.83
   6   3  -5    8.81    0.53
  -6  -3   5    7.89    0.76
   5   3  -5    0.30    0.14
   5   3  -5    0.28    0.28
   5   3  -5    0.39    0.14
  -5  -3   5    0.53    0.30
   4   3  -5   25.35    1.07
   4   3  -5   25.26    1.07
   4   3  -5   22.42    1.25
  -4  -3   5   21.54    1.23
   3   3  -5    3.66    0.23
   3   3  -5    3.82    0.20
   3   3  -5    3.36    0.35
  -3  -3   5    3.19    0.36
   2   3  -5   29.76    1.21
   2   3  -5   28.08    1.19
   2   3  -5   26.02    1.31
  -2  -3   5   28.27    1.19
  -2  -3   5   25.98    1.34
   1   3  -5   14.58    0.75
   1   3  -5   16.65    0.69
  -1  -3   5   16.11    0.68
  -1  -3   5   14.25    0.82
   0   3  -5   99.66    4.39
   0   3  -5  107.78    4.43
   0   3  -5  105.56    4.37
   0  -3   5  105.66    4.43
   0  -3   5  100.93    4.36
   0  -3   5   96.70    4.45
  -1   3  -5   11.47    0.57
  -1   3  -5    9.91    0.54
  -1   3  -5   11.28    0.53
   1  -3   5   11.38    0.55
   1  -3   5   10.59    0.55
   1  -3   5   10.49    0.60
  -2   3  -5    0.62    0.13
  -2   3  -5    0.38    0.12
  -2   3  -5    0.48    0.12
   2  -3   5    0.58    0.12
   2  -3   5    0.62    0.14
   2  -3   5    0.58    0.14
  -3   3  -5   23.18    0.99
  -3   3  -5   21.31    1.01
  -3   3  -5   20.74    1.06
   3  -3   5   21.62    1.06
   3  -3   5   21.32    1.01
  -4   3  -5    7.77    0.42
  -4   3  -5    8.58    0.39
  -4   3  -5    7.18    0.56
   4  -3   5    7.61    0.50
  -5   3  -5    5.20    0.52
   5  -3   5    4.70    0.42
  -6   3  -5   51.47    2.60
   6  -3   5   55.96    2.52
  -7   3  -5   16.81    1.16
  -8   3  -5    3.68    0.67
   8  -3   5    4.89    0.62
  -9   3  -5    1.80    0.74
   9  -3   5    2.02    0.55
   9   2  -5    1.09    0.69
   8   2  -5   -0.68    0.57
  -8  -2   5    0.04    0.47
   7   2  -5    7.81    0.55
   7   2  -5    6.95    0.87
  -7  -2   5    5.11    0.66
   6   2  -5    1.55    0.24
   6   2  -5    1.85    0.42
  -6  -2   5    1.53    0.34
   5   2  -5    2.48    0.40
   5   2  -5    3.60    0.25
   5   2  -5    3.64    0.28
  -5  -2   5    2.78    0.40
   4   2  -5   37.59    1.57
   4   2  -5   36.39    1.55
   4   2  -5   35.18    1.75
  -4  -2   5   34.12    1.70
   3   2  -5    3.64    0.19
   3   2  -5    3.49    0.19
   3   2  -5    3.43    0.33
  -3  -2   5    4.02    0.36
   2   2  -5  127.53    5.51
  -2  -2   5  128.91    5.53
   1   2  -5   20.25    0.91
  -1  -2   5   18.92    0.94
  -1  -2   5   18.77    0.94
   0   2  -5    1.27    0.11
   0   2  -5    1.55    0.17
   0  -2   5    1.31    0.17
   0  -2   5    1.55    0.18
   0  -2   5    1.25    0.13
  -1   2  -5    5.51    0.38
  -1   2  -5    6.77    0.34
  -1   2  -5    7.31    0.36
   1  -2   5    6.60    0.38
   1  -2   5    6.98    0.37
   1  -2   5    6.94    0.37
  -2   2  -5    2.13    0.18
  -2   2  -5    1.80    0.15
  -2   2  -5    1.56    0.19
   2  -2   5    1.98    0.18
   2  -2   5    1.88    0.19
   2  -2   5    2.02    0.19
  -3   2  -5   10.54    0.62
  -3   2  -5   11.74    0.49
   3  -2   5   10.65    0.52
   3  -2   5    9.71    0.57
  -4   2  -5    4.57    0.46
   4  -2   5    5.07    0.39
  -5   2  -5    0.39    0.27
   5  -2   5    0.85    0.20
  -6   2  -5   10.56    0.83
   6  -2   5   10.87    0.70
  -7   2  -5   11.54    1.21
   7  -2   5   11.02    0.93
  -8   2  -5   15.37    1.32
   8  -2   5   15.35    1.05
  -9   2  -5    7.44    1.00
   9  -2   5    8.64    0.93
   9   1  -5   -0.52    0.66
  -9  -1   5    0.00    0.59
   8   1  -5    1.10    0.34
   8   1  -5    0.00    0.55
  -8  -1   5    0.44    0.40
   7   1  -5   19.68    1.02
   7   1  -5   19.70    1.41
  -7  -1   5   19.12    1.10
   6   1  -5    0.34    0.19
   6   1  -5    0.51    0.36
   6   1  -5    0.00    0.15
  -6  -1   5   -0.07    0.24
  -6  -1   5    0.38    0.15
   5   1  -5   17.35    0.80
   5   1  -5   15.45    0.98
   5   1  -5   16.80    0.76
  -5  -1   5   15.49    0.88
  -5  -1   5   16.90    0.76
   4   1  -5    0.01    0.18
   4   1  -5    0.00    0.09
   4   1  -5    0.11    0.07
  -4  -1   5    0.12    0.07
  -4  -1   5    0.12    0.14
   3   1  -5   55.27    2.62
   3   1  -5   59.54    2.48
   3   1  -5   61.65    2.49
  -3  -1   5   54.95    2.59
  -3  -1   5   61.96    2.48
   2   1  -5   55.12    2.54
   2   1  -5   61.78    2.51
  -2  -1   5   57.73    2.58
  -2  -1   5   56.75    2.54
   1   1  -5   52.34    2.25
   1   1  -5   53.18    2.24
  -1  -1   5   52.20    2.27
  -1  -1   5   50.61    2.19
  -1  -1   5   52.16    2.28
  -1  -1   5   50.45    2.19
   0   1  -5   95.84    4.10
   0   1  -5   98.73    4.12
   0   1  -5   95.07    4.13
   0  -1   5   94.77    4.10
   0  -1   5   96.37    4.10
   0  -1   5   97.89    4.14
   0  -1   5   99.35    4.14
  -1   1  -5   54.35    2.36
  -1   1  -5   57.12    2.35
  -1   1  -5   51.34    2.39
   1  -1   5   53.51    2.37
   1  -1   5   57.90    2.38
   1  -1   5   55.86    2.36
   1  -1   5   54.79    2.37
  -2   1  -5    3.99    0.20
  -2   1  -5    3.55    0.29
  -2   1  -5    3.59    0.26
   2  -1   5    3.88    0.22
   2  -1   5    4.00    0.28
  -3   1  -5   33.07    1.43
  -3   1  -5   32.26    1.59
   3  -1   5   33.63    1.52
   3  -1   5   34.84    1.44
  -4   1  -5   12.17    0.76
   4  -1   5   12.18    0.66
  -5   1  -5    0.45    0.27
   5  -1   5    0.30    0.17
  -6   1  -5    3.02    0.52
   6  -1   5    2.94    0.38
  -7   1  -5    3.41    0.66
   7  -1   5    3.67    0.48
  -8   1  -5    0.61    0.57
   8  -1   5    0.91    0.36
  -9   1  -5    9.57    1.28
   9  -1   5   11.28    1.01
  10   0  -5    0.39    0.80
   9   0  -5    2.26    0.80
  -9   0   5    2.03    0.52
   8   0  -5   22.60    1.46
   8   0  -5   22.17    1.22
  -8   0   5   22.21    1.27
  -8   0   5   27.33    1.54
   7   0  -5    6.80    0.79
   7   0  -5    7.65    0.56
  -7   0   5    8.01    0.59
   6   0  -5    7.30    0.64
   6   0  -5    7.02    0.47
  -6   0   5    7.75    0.43
  -6   0   5    7.34    0.51
   5   0  -5    3.12    0.28
   5   0  -5    3.85    0.42
  -5   0   5    3.46    0.30
  -5   0   5    3.61    0.25
   4   0  -5   30.29    1.34
   4   0  -5   28.41    1.45
  -4   0   5   29.63    1.39
  -4   0   5   32.09    1.32
   3   0  -5   24.24    1.22
   3   0  -5   28.20    1.14
   3   0  -5   27.76    1.18
   3   0  -5   25.22    1.28
  -3   0   5   26.27    1.13
  -3   0   5   25.07    1.27
  -3   0   5   25.17    1.19
   2   0  -5   58.89    2.51
   2   0  -5   60.98    2.49
   2   0  -5   59.39    2.44
  -2   0   5   48.68    2.52
  -2   0   5   57.38    2.54
  -2   0   5   59.51    2.45
   1   0  -5   78.83    3.33
   1   0  -5   83.63    3.32
   1   0  -5   74.96    3.29
  -1   0   5   76.07    3.35
  -1   0   5   78.48    3.33
  -1   0   5   75.97    3.29
  -1   0   5   76.66    3.30
   0   0  -5    1.38    0.12
   0   0  -5    1.65    0.15
   0   0  -5    1.64    0.13
   0   0   5    1.53    0.14
   0   0   5    1.74    0.13
   0   0   5    1.55    0.13
   0   0   5    1.54    0.12
  -1   0  -5    0.49    0.07
  -1   0  -5    0.31    0.08
  -1   0  -5    0.57    0.11
   1   0   5    0.56    0.07
   1   0   5    0.52    0.10
   1   0   5    0.42    0.08
   1   0   5    0.41    0.09
  -2   0  -5   42.78    1.82
  -2   0  -5   38.72    1.91
  -2   0  -5   42.60    1.86
   2   0   5   40.28    1.86
   2   0   5   41.98    1.86
   2   0   5   45.27    1.81
   2   0   5   43.85    1.88
  -3   0  -5    6.35    0.49
  -3   0  -5    6.62    0.38
   3   0   5    6.73    0.41
   3   0   5    7.44    0.32
  -4   0  -5    0.37    0.23
   4   0   5    0.24    0.12
  -5   0  -5    2.95    0.45
   5   0   5    2.38    0.31
  -6   0  -5    0.32    0.40
   6   0   5    0.58    0.24
  -7   0  -5    2.02    0.60
   7   0   5    1.25    0.32
  -8   0  -5    4.20    0.80
   8   0   5    4.73    0.60
  -9   0  -5    6.00    1.07
   9   0   5    5.85    0.72
  10  -1  -5    0.60    0.79
   9  -1  -5   14.10    0.98
   9  -1  -5   14.88    1.20
  -9   1   5   18.00    1.34
  -9   1   5   13.76    0.94
   8  -1  -5   22.78    1.41
   8  -1  -5   21.53    1.18
  -8   1   5   25.64    1.44
  -8   1   5   21.35    1.18
   7  -1  -5    1.14    0.27
   7  -1  -5    1.75    0.47
  -7   1   5    2.10    0.48
  -7   1   5    1.47    0.26
   6  -1  -5    0.44    0.30
   6  -1  -5    0.66    0.18
  -6   1   5    0.72    0.18
  -6   1   5    0.99    0.21
   5  -1  -5   11.28    0.71
   5  -1  -5   11.31    0.59
  -5   1   5   10.74    0.59
  -5   1   5   11.18    0.57
   4  -1  -5   15.11    0.70
   4  -1  -5   14.79    0.79
  -4   1   5   14.56    0.70
  -4   1   5   13.95    0.71
   3  -1  -5   25.07    1.14
   3  -1  -5   25.64    1.13
   3  -1  -5   26.98    1.25
  -3   1   5   25.35    1.14
  -3   1   5   23.74    1.14
  -3   1   5   25.00    1.23
   2  -1  -5    6.33    0.34
   2  -1  -5    6.45    0.34
   2  -1  -5    6.23    0.32
  -2   1   5    6.26    0.34
  -2   1   5    5.69    0.36
  -2   1   5    5.86    0.38
   1  -1  -5   41.60    1.85
   1  -1  -5   42.57    1.85
   1  -1  -5   44.15    1.87
  -1   1   5   44.17    1.86
  -1   1   5   41.48    1.86
  -1   1   5   42.56    1.85
   0  -1  -5  143.75    6.20
   0  -1  -5  140.62    6.20
   0  -1  -5  146.50    6.20
   0   1   5  150.19    6.20
   0   1   5  144.76    6.19
   0   1   5  151.52    6.20
   0   1   5  147.14    6.20
  -1  -1  -5   17.36    0.82
  -1  -1  -5   16.28    0.82
  -1  -1  -5   17.46    0.86
   1   1   5   20.00    0.83
   1   1   5   18.48    0.83
   1   1   5   16.55    0.82
   1   1   5   17.70    0.79
  -2  -1  -5    0.09    0.11
  -2  -1  -5    0.11    0.16
   2   1   5    0.21    0.08
   2   1   5    0.10    0.05
   2   1   5    0.30    0.14
  -3  -1  -5    0.86    0.25
  -3  -1  -5    1.10    0.16
   3   1   5    1.07    0.16
   3   1   5    1.06    0.16
   3   1   5    1.12    0.10
  -4  -1  -5   34.52    1.87
   4   1   5   39.02    1.61
   4   1   5   39.33    1.64
   4   1   5   37.15    1.73
  -5  -1  -5    2.69    0.49
   5   1   5    2.23    0.31
  -6  -1  -5   -0.03    0.43
  -7  -1  -5   10.49    1.08
   7   1   5    8.21    0.66
  -8  -1  -5    2.68    0.83
   8   1   5    1.96    0.50
  10  -2  -5   22.54    1.42
  10  -2  -5   21.86    1.61
 -10   2   5   27.70    1.69
   9  -2  -5    5.22    0.67
   9  -2  -5    5.36    0.76
  -9   2   5    4.62    0.50
  -9   2   5    8.58    0.99
   8  -2  -5    1.95    0.51
   8  -2  -5    2.95    0.39
  -8   2   5    2.88    0.56
  -8   2   5    2.85    0.34
   7  -2  -5    2.85    0.33
   7  -2  -5    2.21    0.41
  -7   2   5    2.97    0.44
  -7   2   5    2.08    0.26
   6  -2  -5    3.78    0.50
   6  -2  -5    2.99    0.34
  -6   2   5    3.54    0.29
   5  -2  -5    3.63    0.40
   5  -2  -5    4.12    0.33
  -5   2   5    3.74    0.28
  -5   2   5    3.75    0.34
   4  -2  -5    0.01    0.12
   4  -2  -5   -0.53    0.23
   4  -2  -5    0.27    0.11
  -4   2   5   -0.11    0.13
  -4   2   5   -0.06    0.08
   3  -2  -5    9.77    0.49
   3  -2  -5    9.75    0.50
   3  -2  -5    9.89    0.57
  -3   2   5    9.15    0.55
  -3   2   5    9.10    0.48
  -3   2   5    9.03    0.51
   2  -2  -5    7.10    0.37
   2  -2  -5    6.70    0.40
   2  -2  -5    7.17    0.36
  -2   2   5    6.79    0.37
  -2   2   5    7.11    0.40
  -2   2   5    6.83    0.40
   1  -2  -5   99.90    4.03
   1  -2  -5   92.95    4.00
  -1   2   5   91.39    4.03
  -1   2   5   92.73    4.01
   0  -2  -5    8.79    0.49
   0  -2  -5    7.94    0.44
   0  -2  -5    8.61    0.45
   0   2   5    8.90    0.42
   0   2   5    8.09    0.45
   0   2   5    8.75    0.44
  -1  -2  -5    6.98    0.44
  -1  -2  -5    7.05    0.44
  -1  -2  -5    6.47    0.38
   1   2   5    7.43    0.38
   1   2   5    7.06    0.39
   1   2   5    6.67    0.39
  -2  -2  -5   10.88    0.62
  -2  -2  -5   12.51    0.66
  -2  -2  -5   11.55    0.71
   2   2   5   13.29    0.59
   2   2   5   11.94    0.62
  -3  -2  -5    4.06    0.51
  -3  -2  -5    5.51    0.41
   3   2   5    4.70    0.38
   3   2   5    5.10    0.36
   3   2   5    5.26    0.31
  -4  -2  -5   11.46    0.84
   4   2   5   11.97    0.56
   4   2   5   10.70    0.63
   4   2   5   10.67    0.61
  -5  -2  -5    0.74    0.42
   5   2   5    0.50    0.21
   5   2   5    0.72    0.12
  -6  -2  -5    1.85    0.55
   6   2   5    0.19    0.28
  -7  -2  -5    1.30    0.71
   7   2   5    1.47    0.39
  -8  -2  -5   -0.26    0.70
   8   2   5    0.78    0.45
  10  -3  -5    1.04    0.49
  10  -3  -5    0.98    0.66
 -10   3   5    3.38    0.77
 -10   3   5    0.91    0.48
   9  -3  -5    0.62    0.37
   9  -3  -5    0.76    0.51
  -9   3   5    1.98    0.61
  -9   3   5    0.40    0.27
   8  -3  -5    0.79    0.29
   8  -3  -5    1.12    0.38
  -8   3   5    1.19    0.45
  -8   3   5    0.62    0.22
   7  -3  -5    5.69    0.51
   7  -3  -5    5.22    0.55
  -7   3   5    5.89    0.41
  -7   3   5    6.91    0.64
   6  -3  -5    3.27    0.40
   6  -3  -5    3.06    0.34
  -6   3   5    2.52    0.26
   5  -3  -5   10.50    0.63
   5  -3  -5    9.63    0.59
  -5   3   5   11.15    0.56
   4  -3  -5    0.39    0.15
   4  -3  -5    0.23    0.12
   4  -3  -5    0.45    0.22
  -4   3   5    0.65    0.21
  -4   3   5    0.37    0.11
   3  -3  -5    3.61    0.29
   3  -3  -5    4.39    0.35
   3  -3  -5    4.38    0.25
  -3   3   5    3.78    0.34
  -3   3   5    3.95    0.27
  -3   3   5    3.58    0.35
   2  -3  -5   -0.05    0.09
   2  -3  -5    0.04    0.05
  -2   3   5    0.11    0.09
  -2   3   5    0.11    0.15
  -2   3   5    0.01    0.10
   1  -3  -5   71.51    3.05
   1  -3  -5   65.34    2.93
   1  -3  -5   66.47    2.89
  -1   3   5   63.26    2.93
  -1   3   5   71.92    3.01
  -1   3   5   67.78    2.88
   0  -3  -5    0.91    0.13
   0  -3  -5    0.81    0.19
   0  -3  -5    0.70    0.16
   0   3   5    1.03    0.14
   0   3   5    0.65    0.13
  -1  -3  -5   24.09    1.21
  -1  -3  -5   24.54    1.21
  -1  -3  -5   23.14    1.15
   1   3   5   27.75    1.15
   1   3   5   24.38    1.15
   1   3   5   24.53    1.15
  -2  -3  -5    0.35    0.23
  -2  -3  -5    0.53    0.26
  -2  -3  -5    0.41    0.14
   2   3   5    0.41    0.14
   2   3   5    0.49    0.25
   2   3   5    0.40    0.14
  -3  -3  -5   11.14    0.65
  -3  -3  -5   11.45    0.79
   3   3   5   11.82    0.62
   3   3   5   11.92    0.65
   3   3   5   11.54    0.71
  -4  -3  -5    0.17    0.36
   4   3   5    0.09    0.17
   4   3   5    0.07    0.17
   4   3   5    0.11    0.27
  -5  -3  -5   -0.06    0.47
   5   3   5    0.09    0.19
   5   3   5    0.45    0.19
  -6  -3  -5    0.70    0.57
   6   3   5    0.23    0.31
  -7  -3  -5    2.39    0.84
   7   3   5    1.45    0.36
  10  -4  -5   -0.02    0.46
  10  -4  -5   -0.16    0.64
 -10   4   5   -0.14    0.34
 -10   4   5    1.34    0.69
   9  -4  -5    3.34    0.48
   9  -4  -5    2.92    0.58
  -9   4   5    4.01    0.62
  -9   4   5    2.79    0.36
   8  -4  -5    0.83    0.43
   8  -4  -5    0.97    0.32
  -8   4   5    1.79    0.45
  -8   4   5    0.67    0.21
   7  -4  -5    4.76    0.58
   7  -4  -5    5.18    0.51
  -7   4   5    5.96    0.40
   6  -4  -5    5.36    0.48
   6  -4  -5    5.54    0.47
  -6   4   5    5.53    0.38
   5  -4  -5    0.29    0.17
   5  -4  -5    0.47    0.30
   5  -4  -5    0.14    0.18
  -5   4   5    0.38    0.13
   4  -4  -5    0.78    0.23
   4  -4  -5    0.81    0.14
   4  -4  -5    0.68    0.17
  -4   4   5    0.81    0.16
   3  -4  -5   39.34    1.57
   3  -4  -5   34.23    1.65
   3  -4  -5   37.11    1.63
  -3   4   5   34.77    1.65
   2  -4  -5   18.08    0.78
   2  -4  -5   16.61    0.85
  -2   4   5   17.92    0.80
  -2   4   5   16.85    0.86
   1  -4  -5   56.00    2.36
   1  -4  -5   51.36    2.40
  -1   4   5   54.27    2.43
  -1   4   5   56.26    2.33
   0  -4  -5   20.21    1.02
   0  -4  -5   21.65    1.04
   0   4   5   20.45    1.04
   0   4   5   23.66    0.97
  -1  -4  -5   32.40    1.54
   1   4   5   31.38    1.56
   1   4   5   36.97    1.53
  -2  -4  -5   -0.03    0.24
  -2  -4  -5    0.16    0.15
   2   4   5   -0.05    0.12
   2   4   5    0.24    0.18
  -3  -4  -5   27.82    1.34
  -3  -4  -5   27.04    1.49
   3   4   5   27.31    1.33
   3   4   5   28.35    1.34
  -4  -4  -5    4.28    0.61
   4   4   5    3.95    0.55
   4   4   5    4.47    0.44
  -5  -4  -5    1.04    0.53
   5   4   5    1.60    0.33
  -6  -4  -5    0.35    0.69
   6   4   5   -0.17    0.28
  -7  -4  -5    0.09    0.86
   7   4   5   -0.21    0.41
  10  -5  -5    1.09    0.52
  10  -5  -5    0.40    0.63
 -10   5   5    0.42    0.31
   9  -5  -5    1.19    0.44
   9  -5  -5    0.96    0.53
  -9   5   5    1.65    0.29
   8  -5  -5    4.76    0.62
   8  -5  -5    5.31    0.60
  -8   5   5    5.69    0.44
   7  -5  -5    7.71    0.65
   7  -5  -5    7.69    0.63
  -7   5   5    8.59    0.52
   6  -5  -5    0.04    0.23
   6  -5  -5    0.24    0.21
  -6   5   5    0.04    0.15
   5  -5  -5   35.60    1.72
   5  -5  -5   35.96    1.75
   5  -5  -5   39.56    1.68
  -5   5   5   38.11    1.71
   4  -5  -5    0.38    0.17
   4  -5  -5    0.59    0.09
   4  -5  -5    0.26    0.19
  -4   5   5    0.40    0.17
   3  -5  -5    1.03    0.22
   3  -5  -5    1.28    0.10
  -3   5   5    1.14    0.20
   2  -5  -5    0.34    0.15
  -2   5   5    0.10    0.16
   1  -5  -5   28.65    1.27
   1  -5  -5   28.14    1.34
  -1   5   5   29.19    1.23
  -1   5   5   27.63    1.37
   0  -5  -5   18.39    0.98
   0  -5  -5   20.07    0.98
   0   5   5   18.40    1.01
   0   5   5   22.49    0.91
  -1  -5  -5    4.07    0.46
  -1  -5  -5    4.19    0.35
   1   5   5    3.88    0.42
   1   5   5    4.83    0.36
  -2  -5  -5    9.58    0.60
  -2  -5  -5    8.42    0.69
   2   5   5    9.82    0.59
   2   5   5    9.30    0.64
  -3  -5  -5    4.88    0.60
  -3  -5  -5    4.66    0.64
   3   5   5    4.09    0.48
   3   5   5    3.73    0.56
  -4  -5  -5    0.60    0.49
   4   5   5    0.14    0.26
   4   5   5   -0.49    0.27
  -5  -5  -5   11.94    1.22
   5   5   5    9.80    0.70
  -6  -5  -5    0.20    0.80
   6   5   5    1.37    0.39
  10  -6  -5    3.20    0.72
  10  -6  -5    1.41    0.63
 -10   6   5    2.90    0.40
   9  -6  -5    5.97    0.66
   9  -6  -5    6.55    0.77
  -9   6   5    6.81    0.53
   8  -6  -5    0.26    0.35
   8  -6  -5   -0.42    0.33
  -8   6   5    0.48    0.23
   7  -6  -5   -0.14    0.26
   7  -6  -5    0.40    0.28
  -7   6   5    0.04    0.17
   6  -6  -5   -0.11    0.23
  -6   6   5   -0.10    0.17
   5  -6  -5   24.11    1.15
   5  -6  -5   26.57    1.11
   5  -6  -5   24.51    1.27
  -5   6   5   24.20    1.22
   4  -6  -5   19.46    1.04
  -4   6   5   21.07    1.05
   3  -6  -5    4.95    0.40
  -3   6   5    4.67    0.45
   2  -6  -5   62.73    2.80
  -2   6   5   62.68    2.84
   1  -6  -5    0.44    0.17
  -1   6   5    0.47    0.21
   0  -6  -5   19.75    1.00
   0  -6  -5   20.40    1.04
   0   6   5   19.90    1.11
   0   6   5   22.06    0.93
  -1  -6  -5   10.22    0.71
  -1  -6  -5   12.05    0.68
   1   6   5   10.68    0.74
  -2  -6  -5    4.48    0.43
  -2  -6  -5    2.80    0.46
   2   6   5    3.46    0.44
   2   6   5    3.58    0.41
  -3  -6  -5    0.64    0.30
  -3  -6  -5    0.88    0.47
   3   6   5    0.18    0.26
   3   6   5    0.10    0.30
  -4  -6  -5   -0.31    0.59
  -4  -6  -5    0.34    0.32
   4   6   5    0.18    0.50
   4   6   5   -0.62    0.33
   4   6   5   -0.50    0.28
  -5  -6  -5    6.94    0.93
   5   6   5    5.60    0.84
   5   6   5    6.07    0.69
  10  -7  -5    1.44    0.58
 -10   7   5    1.07    0.35
   9  -7  -5    9.44    0.89
  -9   7   5   10.31    0.68
   8  -7  -5    4.86    0.60
  -8   7   5    4.25    0.46
   7  -7  -5    6.34    0.65
  -7   7   5    6.80    0.53
   6  -7  -5    0.67    0.31
  -6   7   5    0.69    0.25
   5  -7  -5    3.99    0.49
  -5   7   5    3.13    0.38
   4  -7  -5   24.53    1.26
  -4   7   5   24.19    1.25
   3  -7  -5   25.54    1.28
  -3   7   5   25.67    1.33
   2  -7  -5   36.79    1.73
  -2   7   5   36.00    1.78
   1  -7  -5    4.92    0.45
  -1   7   5    4.19    0.53
   0   7   5   44.19    2.12
  -1  -7  -5    0.78    0.27
   1   7   5    0.13    0.31
   1   7   5    0.77    0.46
  -2  -7  -5    6.98    0.58
   2   7   5    6.22    0.54
   2   7   5    5.62    0.70
  -3  -7  -5    6.82    0.67
   3   7   5    5.16    0.58
   3   7   5    5.52    0.62
  -4  -7  -5    6.83    0.70
   4   7   5    4.52    0.55
   9  -8  -5    3.08    0.56
  -9   8   5    2.29    0.39
   8  -8  -5   38.16    2.06
  -8   8   5   42.93    1.95
   7  -8  -5    0.17    0.37
  -7   8   5   -0.08    0.23
   6  -8  -5    1.81    0.37
  -6   8   5    1.78    0.36
   5  -8  -5    0.87    0.32
  -5   8   5    1.05    0.30
   4  -8  -5    5.32    0.51
  -4   8   5    5.22    0.55
   3  -8  -5    5.23    0.53
  -3   8   5    5.99    0.62
   2  -8  -5    2.29    0.38
  -2   8   5    2.72    0.44
   1  -8  -5    5.12    0.52
  -1   8   5    4.79    0.58
   0  -8  -5   12.51    0.79
   0   8   5   13.25    0.91
  -1  -8  -5    0.95    0.32
   1   8   5    0.42    0.38
  -2  -8  -5   13.12    0.90
   2   8   5   12.71    1.00
   2   8   5   13.58    0.83
  -3  -8  -5    0.44    0.47
   3   8   5    0.18    0.49
   3   8   5    0.16    0.38
   9  -9  -5   13.31    1.17
  -9   9   5   13.96    0.91
   8  -9  -5    9.76    0.87
  -8   9   5   10.42    0.78
   7  -9  -5    0.56    0.37
  -7   9   5    0.80    0.37
   6  -9  -5    1.09    0.40
  -6   9   5    0.72    0.33
   5  -9  -5    0.96    0.35
  -5   9   5    1.40    0.37
   4  -9  -5    1.55    0.34
  -4   9   5    1.93    0.42
   3  -9  -5    0.53    0.32
  -3   9   5    0.23    0.38
   2  -9  -5    0.87    0.31
  -2   9   5    1.12    0.37
   1  -9  -5    7.35    0.69
  -1   9   5    7.14    0.74
   0  -9  -5    0.92    0.36
   0   9   5    0.30    0.46
  -1  -9  -5    2.20    0.47
   1   9   5    2.34    0.55
   1   9   5    2.59    0.44
   7 -10  -5    1.51    0.52
  -7  10   5    2.10    0.47
   6 -10  -5    2.75    0.55
  -6  10   5    2.84    0.46
   5 -10  -5   -0.12    0.42
  -5  10   5    1.04    0.49
   4 -10  -5    0.71    0.36
  -4  10   5   -0.10    0.44
   3 -10  -5    1.65    0.40
  -3  10   5    1.01    0.46
   2 -10  -5    1.06    0.43
  -2  10   5    2.36    0.53
   1 -10  -5    0.98    0.42
  -1  10   5    2.29    0.62
  -2  11  -6    2.03    0.80
   2 -11   6   -0.18    0.41
  -3  11  -6    3.19    0.73
   3 -11   6    2.26    0.47
  -4  11  -6    9.34    1.04
   4 -11   6    9.68    0.93
  -5  11  -6    3.98    0.77
   5 -11   6    3.53    0.62
   1  10  -6    5.29    0.86
  -1 -10   6    3.44    0.90
   0  10  -6    8.10    1.05
   0 -10   6    6.80    0.88
  -1  10  -6    4.24    0.83
   1 -10   6    3.47    0.45
  -2  10  -6    0.87    0.62
  -3  10  -6    5.79    0.79
   3 -10   6    5.11    0.58
  -4  10  -6    8.78    0.95
   4 -10   6    6.56    0.72
  -5  10  -6   25.35    1.54
   5 -10   6   24.68    1.46
  -6  10  -6    0.51    0.56
   6 -10   6    0.26    0.49
   7 -10   6    2.36    0.63
   3   9  -6    0.11    0.79
   3   9  -6    1.04    0.39
  -3  -9   6   -0.05    0.78
   2   9  -6    7.10    0.63
   2   9  -6    4.61    0.81
  -2  -9   6    5.68    0.86
   1   9  -6    0.75    0.55
   1   9  -6    0.62    0.30
  -1  -9   6    1.29    0.58
   0   9  -6    3.07    0.34
   0   9  -6    2.87    0.65
   0  -9   6    2.59    0.66
   0  -9   6    2.86    0.36
  -1   9  -6    1.36    0.52
  -1   9  -6    1.88    0.29
   1  -9   6    2.39    0.60
   1  -9   6    2.13    0.34
  -2   9  -6    4.81    0.62
  -2   9  -6    3.12    0.39
   2  -9   6    4.34    0.61
   2  -9   6    3.78    0.44
  -3   9  -6    8.73    0.61
  -3   9  -6    9.49    0.93
   3  -9   6    9.25    0.69
  -4   9  -6   11.14    0.75
  -4   9  -6   10.75    0.93
  -5   9  -6   -0.13    0.46
  -5   9  -6    0.17    0.36
   5  -9   6    0.79    0.37
  -6   9  -6    2.16    0.50
  -6   9  -6    1.95    0.51
   6  -9   6    3.41    0.52
  -7   9  -6    3.35    0.73
   7  -9   6    4.22    0.66
  -8   9  -6    4.44    0.86
   8  -9   6    5.37    0.79
   4   8  -6    6.00    0.96
   4   8  -6    6.27    0.75
  -4  -8   6    5.29    0.97
   3   8  -6    5.70    0.82
   3   8  -6    5.60    0.58
  -3  -8   6    5.18    0.83
   2   8  -6    8.16    0.61
   2   8  -6    6.13    0.80
  -2  -8   6    7.90    0.92
   1   8  -6    2.73    0.55
   1   8  -6    2.99    0.39
  -1  -8   6    3.15    0.37
  -1  -8   6    2.92    0.59
   0   8  -6   12.32    0.97
   0   8  -6   12.58    0.69
   0  -8   6   11.84    1.00
   0  -8   6   12.51    0.70
  -1   8  -6    3.80    0.36
   1  -8   6    4.22    0.44
  -2   8  -6    0.53    0.37
  -2   8  -6    0.31    0.19
   2  -8   6    0.47    0.26
   2  -8   6   -0.05    0.33
  -3   8  -6   95.07    4.38
  -3   8  -6   96.96    4.22
   3  -8   6   96.62    4.28
   3  -8   6   98.34    4.40
  -4   8  -6   39.31    1.96
  -4   8  -6   38.44    1.84
   4  -8   6   38.64    1.90
  -5   8  -6    5.95    0.62
  -5   8  -6    6.29    0.68
   5  -8   6    7.30    0.70
  -6   8  -6    1.02    0.44
  -6   8  -6    0.43    0.35
   6  -8   6    1.10    0.41
  -7   8  -6    6.48    0.80
   7  -8   6    6.27    0.76
  -8   8  -6    0.16    0.65
   8  -8   6   -0.51    0.49
  -9   8  -6    1.52    0.84
   9  -8   6    1.72    0.74
   5   7  -6    3.38    0.59
   5   7  -6    1.92    0.74
  -5  -7   6    3.93    0.78
   4   7  -6    0.37    0.37
   4   7  -6    0.73    0.67
  -4  -7   6    1.15    0.64
   3   7  -6    1.12    0.46
  -3  -7   6    0.27    0.47
   2   7  -6   -0.22    0.39
   2   7  -6    0.06    0.24
  -2  -7   6    0.41    0.17
  -2  -7   6    0.30    0.42
   1   7  -6    0.34    0.41
   1   7  -6    0.38    0.20
  -1  -7   6   -0.10    0.15
  -1  -7   6    0.10    0.37
   0   7  -6   -0.34    0.36
   0   7  -6   -0.11    0.14
   0  -7   6    0.41    0.34
   0  -7   6    0.07    0.16
  -1   7  -6    2.60    0.43
  -1   7  -6    3.68    0.30
   1  -7   6    4.28    0.46
   1  -7   6    2.26    0.42
  -2   7  -6    0.52    0.16
  -2   7  -6    0.34    0.34
   2  -7   6    0.90    0.34
   2  -7   6    0.26    0.22
  -3   7  -6    0.44    0.18
  -3   7  -6    0.01    0.29
   3  -7   6    0.15    0.28
   3  -7   6    0.28    0.23
  -4   7  -6    3.19    0.44
  -4   7  -6    3.46    0.40
   4  -7   6    3.11    0.39
  -5   7  -6   58.03    2.72
  -5   7  -6   57.01    2.69
   5  -7   6   60.40    2.75
  -6   7  -6    9.55    0.84
  -6   7  -6    9.99    0.73
   6  -7   6   10.66    0.81
  -7   7  -6    5.42    0.86
   7  -7   6    6.61    0.75
  -8   7  -6    0.26    0.59
   8  -7   6    0.99    0.59
  -9   7  -6    0.84    0.77
   9  -7   6    0.85    0.64
   6   6  -6    1.78    0.61
  -6  -6   6    1.49    0.73
   5   6  -6    7.28    0.73
  -5  -6   6    7.31    0.90
   4   6  -6    0.32    0.34
  -4  -6   6    0.38    0.53
   3   6  -6    1.05    0.17
   3   6  -6    0.95    0.28
   2   6  -6   13.82    0.79
  -2  -6   6   13.53    0.95
  -2  -6   6   13.65    0.69
   1   6  -6    3.89    0.36
   1   6  -6    4.11    0.42
  -1  -6   6    4.20    0.53
   0   6  -6    1.06    0.24
   0   6  -6    0.73    0.17
   0  -6   6    0.87    0.33
   0  -6   6    0.75    0.17
  -1   6  -6    0.78    0.29
  -1   6  -6    0.79    0.15
   1  -6   6    0.59    0.18
   1  -6   6    0.20    0.27
  -2   6  -6   31.78    1.64
  -2   6  -6   32.85    1.50
   2  -6   6   33.18    1.65
   2  -6   6   32.91    1.54
  -3   6  -6   12.92    0.70
  -3   6  -6   12.73    0.79
   3  -6   6   13.12    0.81
   3  -6   6   11.59    0.73
  -4   6  -6   16.58    0.89
  -4   6  -6   14.48    0.88
   4  -6   6   16.52    0.93
  -5   6  -6    1.78    0.36
  -5   6  -6    1.89    0.31
   5  -6   6    2.10    0.37
  -6   6  -6    1.90    0.29
  -6   6  -6    3.10    0.49
   6  -6   6    2.39    0.39
  -7   6  -6   20.48    1.58
   7  -6   6   25.90    1.44
  -8   6  -6    1.44    0.68
   8  -6   6    1.69    0.54
  -9   6  -6    1.56    0.80
   9  -6   6    0.36    0.61
   7   5  -6    8.28    1.10
  -7  -5   6   10.65    1.23
   6   5  -6    2.20    0.60
  -6  -5   6    1.38    0.56
   5   5  -6   24.99    1.38
  -5  -5   6   23.36    1.50
   4   5  -6    6.69    0.60
   4   5  -6    8.21    0.42
  -4  -5   6    6.60    0.77
   3   5  -6    6.76    0.35
   3   5  -6    6.28    0.55
   3   5  -6    7.00    0.59
  -3  -5   6    6.68    0.65
   2   5  -6    2.48    0.29
   2   5  -6    2.72    0.33
  -2  -5   6    2.96    0.46
  -2  -5   6    2.89    0.20
   1   5  -6    3.13    0.29
   1   5  -6    2.78    0.29
  -1  -5   6    2.56    0.37
  -1  -5   6    2.70    0.21
   0   5  -6    2.71    0.24
   0   5  -6    3.04    0.29
   0  -5   6    2.98    0.26
   0  -5   6    2.60    0.38
  -1   5  -6    0.07    0.15
  -1   5  -6   -0.01    0.10
   1  -5   6   -0.17    0.14
   1  -5   6   -0.27    0.21
  -2   5  -6    2.46    0.24
  -2   5  -6    1.80    0.31
   2  -5   6    1.96    0.24
   2  -5   6    2.50    0.34
  -3   5  -6    4.92    0.38
  -3   5  -6    5.14    0.46
   3  -5   6    4.39    0.46
   3  -5   6    5.28    0.43
  -4   5  -6   24.72    1.26
  -4   5  -6   25.66    1.31
  -4   5  -6   28.83    1.29
   4  -5   6   26.74    1.33
   4  -5   6   24.70    1.27
  -5   5  -6    3.51    0.35
  -5   5  -6    3.23    0.44
   5  -5   6    2.89    0.39
  -6   5  -6   17.12    1.12
  -6   5  -6   19.59    0.90
   6  -5   6   18.94    1.12
  -7   5  -6    4.19    0.76
   7  -5   6    3.85    0.49
  -8   5  -6    2.29    0.68
   8  -5   6    2.91    0.54
  -9   5  -6    6.47    1.02
   9  -5   6    6.55    0.82
   7   4  -6    0.69    0.48
  -7  -4   6    1.12    0.59
   6   4  -6    0.84    0.43
  -6  -4   6    0.36    0.48
   5   4  -6   31.75    1.33
   5   4  -6   27.84    1.69
  -5  -4   6   27.42    1.61
   4   4  -6    9.54    0.47
   4   4  -6    8.93    0.67
   4   4  -6    9.84    0.56
  -4  -4   6    8.45    0.71
   3   4  -6    4.62    0.29
   3   4  -6    4.48    0.24
   3   4  -6    4.77    0.45
  -3  -4   6    4.32    0.53
   2   4  -6    3.08    0.16
   2   4  -6    3.37    0.21
   2   4  -6    2.63    0.28
  -2  -4   6    2.78    0.17
  -2  -4   6    2.31    0.33
   1   4  -6    0.15    0.11
   1   4  -6    0.27    0.09
  -1  -4   6    0.26    0.07
  -1  -4   6    0.18    0.21
   0   4  -6    4.45    0.27
   0   4  -6    3.74    0.28
   0  -4   6    4.87    0.29
   0  -4   6    4.44    0.42
  -1   4  -6    0.19    0.10
  -1   4  -6    0.27    0.12
   1  -4   6    0.22    0.11
   1  -4   6    0.58    0.19
  -2   4  -6   48.32    2.16
  -2   4  -6   49.98    2.14
  -2   4  -6   50.69    2.17
   2  -4   6   47.30    2.17
   2  -4   6   46.90    2.21
  -3   4  -6   18.06    0.90
  -3   4  -6   19.50    0.86
  -3   4  -6   16.15    0.94
   3  -4   6   18.31    0.92
   3  -4   6   15.09    0.94
  -4   4  -6   19.06    0.86
  -4   4  -6   17.95    0.89
  -4   4  -6   17.07    0.97
   4  -4   6   18.29    0.98
   4  -4   6   17.69    0.89
  -5   4  -6   10.92    0.57
  -5   4  -6    9.77    0.77
  -5   4  -6   11.70    0.54
   5  -4   6   11.11    0.74
  -6   4  -6   22.42    1.31
   6  -4   6   22.82    1.26
  -7   4  -6   14.76    1.11
   7  -4   6   17.05    1.04
  -8   4  -6    2.70    0.72
   8  -4   6    1.56    0.50
  -9   4  -6    0.70    0.70
   9  -4   6    0.88    0.57
   8   3  -6   31.27    1.94
  -8  -3   6   30.30    1.86
   7   3  -6    0.15    0.44
  -7  -3   6    0.42    0.48
   6   3  -6    3.37    0.57
  -6  -3   6    3.46    0.51
   5   3  -6   19.22    0.86
   5   3  -6   18.11    1.12
  -5  -3   6   17.30    1.06
   4   3  -6    2.19    0.19
   4   3  -6    2.17    0.37
   4   3  -6    2.09    0.18
  -4  -3   6    2.39    0.35
   3   3  -6   31.10    1.49
  -3  -3   6   30.45    1.53
   2   3  -6    8.52    0.51
  -2  -3   6    8.69    0.56
   1   3  -6    2.92    0.24
  -1  -3   6    2.80    0.31
  -1  -3   6    3.44    0.17
   0   3  -6    7.34    0.35
   0   3  -6    6.86    0.39
   0  -3   6    7.15    0.47
   0  -3   6    6.67    0.37
  -1   3  -6    6.89    0.40
  -1   3  -6    7.00    0.41
  -1   3  -6    7.27    0.37
   1  -3   6    7.50    0.40
   1  -3   6    6.18    0.44
  -2   3  -6    1.33    0.16
  -2   3  -6    1.40    0.16
  -2   3  -6    1.30    0.18
   2  -3   6    1.41    0.20
   2  -3   6    1.15    0.19
  -3   3  -6    3.58    0.35
  -3   3  -6    4.58    0.26
   3  -3   6    3.97    0.35
   3  -3   6    3.61    0.30
  -4   3  -6   55.29    2.67
  -4   3  -6   64.63    2.50
  -4   3  -6   57.25    2.53
   4  -3   6   56.18    2.63
  -5   3  -6    0.19    0.26
   5  -3   6   -0.10    0.21
  -6   3  -6   42.79    2.25
   6  -3   6   45.47    2.13
  -7   3  -6    2.37    0.60
   7  -3   6    3.05    0.45
  -8   3  -6    2.37    0.71
   8  -3   6    3.57    0.58
  -9   3  -6    6.29    1.03
   9  -3   6    4.57    0.71
   9   2  -6    2.04    0.74
  -9  -2   6    2.69    0.70
   8   2  -6   11.35    1.16
  -8  -2   6   12.07    0.99
   7   2  -6    2.38    0.52
  -7  -2   6    2.54    0.48
   6   2  -6   44.50    1.90
   6   2  -6   43.75    2.18
  -6  -2   6   39.09    2.05
   5   2  -6    0.56    0.30
   5   2  -6    1.07    0.12
   5   2  -6    0.79    0.14
  -5  -2   6    0.56    0.28
   4   2  -6   61.70    2.79
   4   2  -6   62.84    2.59
  -4  -2   6   58.09    2.76
   3   2  -6    3.30    0.33
  -3  -2   6    4.02    0.37
   2   2  -6    0.05    0.09
  -2  -2   6    0.13    0.12
   1   2  -6   21.40    0.96
  -1  -2   6   19.15    0.99
   0   2  -6   12.16    0.63
   0   2  -6   13.73    0.60
   0   2  -6   13.19    0.63
   0  -2   6   12.38    0.67
   0  -2   6   13.17    0.67
   0  -2   6   13.24    0.61
  -1   2  -6   79.27    3.28
  -1   2  -6   80.85    3.29
  -1   2  -6   69.56    3.31
   1  -2   6   76.39    3.30
   1  -2   6   77.74    3.33
  -2   2  -6   40.15    1.73
  -2   2  -6   42.78    1.71
  -2   2  -6   36.49    1.77
   2  -2   6   39.63    1.75
   2  -2   6   37.05    1.75
  -3   2  -6   25.37    1.33
  -3   2  -6   30.45    1.20
   3  -2   6   27.29    1.30
   3  -2   6   27.07    1.24
  -4   2  -6    4.12    0.49
   4  -2   6    5.28    0.39
  -5   2  -6    3.05    0.44
   5  -2   6    2.77    0.36
  -6   2  -6    0.82    0.39
   6  -2   6    1.13    0.28
  -7   2  -6    4.98    0.74
   7  -2   6    4.81    0.54
  -8   2  -6    3.81    0.77
   8  -2   6    4.84    0.63
  -9   2  -6    5.94    1.02
   9  -2   6    7.98    0.86
   9   1  -6   10.85    1.09
  -9  -1   6    6.90    0.91
   8   1  -6   -0.31    0.49
  -8  -1   6   -0.52    0.39
   7   1  -6    0.31    0.22
   7   1  -6    0.12    0.36
  -7  -1   6    0.51    0.30
   6   1  -6   60.42    2.82
   6   1  -6   59.76    2.58
   6   1  -6   60.96    2.60
  -6  -1   6   55.07    2.70
   5   1  -6    0.44    0.12
   5   1  -6    0.41    0.10
   5   1  -6    0.68    0.26
  -5  -1   6    1.01    0.22
  -5  -1   6    0.66    0.10
   4   1  -6   38.80    1.62
   4   1  -6   38.10    1.60
   4   1  -6   36.69    1.78
  -4  -1   6   34.95    1.74
  -4  -1   6   39.00    1.60
   3   1  -6    0.69    0.17
  -3  -1   6    0.39    0.15
   2   1  -6   32.23    1.46
  -2  -1   6   31.79    1.47
   1   1  -6   21.59    0.94
   1   1  -6   19.52    0.94
  -1  -1   6   19.19    0.96
  -1  -1   6   20.02    0.88
  -1  -1   6   21.49    0.89
  -1  -1   6   20.67    0.99
   0   1  -6    6.22    0.32
   0   1  -6    5.61    0.33
   0   1  -6    6.05    0.30
   0  -1   6    6.02    0.30
   0  -1   6    6.16    0.30
   0  -1   6    5.57    0.34
   0  -1   6    5.46    0.33
  -1   1  -6   28.89    1.23
  -1   1  -6   24.47    1.27
  -1   1  -6   28.23    1.24
   1  -1   6   28.78    1.25
   1  -1   6   29.39    1.27
   1  -1   6   27.94    1.26
   1  -1   6   28.54    1.25
  -2   1  -6    8.16    0.38
  -2   1  -6    7.12    0.47
  -2   1  -6    8.00    0.43
   2  -1   6    7.75    0.44
   2  -1   6    8.35    0.41
   2  -1   6    8.23    0.45
  -3   1  -6   18.75    0.81
  -3   1  -6   17.09    0.96
   3  -1   6   17.20    0.89
   3  -1   6   19.76    0.83
  -4   1  -6   62.73    2.91
   4  -1   6   63.64    2.81
  -5   1  -6   46.37    2.32
   5  -1   6   47.62    2.17
  -6   1  -6    1.57    0.47
   6  -1   6    1.10    0.28
  -7   1  -6   -0.53    0.50
   7  -1   6    0.85    0.31
  -8   1  -6   19.94    1.59
   8  -1   6   22.14    1.32
  -9   1  -6    0.66    0.77
   9  -1   6   -0.92    0.44
   9   0  -6    1.77    0.67
  -9   0   6    2.98    0.54
   8   0  -6    2.50    0.53
   8   0  -6    2.55    0.36
  -8   0   6    2.59    0.43
   7   0  -6   14.11    0.80
   7   0  -6   15.90    1.07
  -7   0   6   14.41    0.86
   6   0  -6    2.82    0.30
   6   0  -6    2.28    0.39
  -6   0   6    2.08    0.25
  -6   0   6    2.18    0.29
   5   0  -6    1.25    0.29
   5   0  -6    1.14    0.16
  -5   0   6    0.84    0.19
  -5   0   6    1.29    0.14
   4   0  -6  205.97    9.01
   4   0  -6  227.23    8.88
  -4   0   6  197.02    8.96
  -4   0   6  211.59    8.87
   3   0  -6    1.74    0.22
   3   0  -6    1.96    0.13
  -3   0   6    1.69    0.19
  -3   0   6    1.95    0.15
   2   0  -6    1.86    0.18
   2   0  -6    2.22    0.13
  -2   0   6    2.18    0.16
  -2   0   6    1.99    0.18
  -2   0   6    1.88    0.26
   1   0  -6    0.06    0.05
   1   0  -6    0.06    0.08
   1   0  -6    0.09    0.08
  -1   0   6    0.05    0.07
  -1   0   6    0.19    0.12
  -1   0   6    0.19    0.06
  -1   0   6    0.05    0.04
   0   0  -6   40.16    1.68
   0   0  -6   37.04    1.67
   0   0   6   37.46    1.67
   0   0   6   40.01    1.70
   0   0   6   38.35    1.68
   0   0   6   38.08    1.67
  -1   0  -6   39.58    1.71
  -1   0  -6   35.84    1.75
   1   0   6   39.67    1.70
   1   0   6   40.74    1.74
   1   0   6   40.24    1.73
  -2   0  -6    0.02    0.13
  -2   0  -6    0.23    0.09
   2   0   6    0.14    0.06
   2   0   6    0.06    0.09
  -3   0  -6    0.06    0.11
  -3   0  -6    0.05    0.21
   3   0   6    0.26    0.13
   3   0   6    0.31    0.06
  -4   0  -6   12.48    0.81
   4   0   6   12.42    0.68
  -5   0  -6    8.56    0.74
   5   0   6    8.89    0.58
  -6   0  -6   14.22    1.06
  -7   0  -6   17.15    1.37
   7   0   6   18.07    1.06
  -8   0  -6    5.50    0.88
   8   0   6    7.71    0.81
  10  -1  -6   -1.19    0.73
   9  -1  -6   14.67    1.27
   8  -1  -6   -0.18    0.47
   8  -1  -6   -0.07    0.27
  -8   1   6    0.03    0.27
   7  -1  -6   14.04    0.98
   7  -1  -6   13.42    0.76
  -7   1   6   13.93    0.80
   6  -1  -6    1.55    0.22
   6  -1  -6    2.36    0.38
  -6   1   6    2.07    0.23
  -6   1   6    1.77    0.27
   5  -1  -6   69.80    2.87
   5  -1  -6   64.31    2.98
  -5   1   6   64.77    2.85
  -5   1   6   64.92    2.90
   4  -1  -6    8.13    0.43
   4  -1  -6    7.52    0.50
  -4   1   6    8.20    0.44
  -4   1   6    8.44    0.47
   3  -1  -6    2.21    0.30
   3  -1  -6    2.62    0.19
   3  -1  -6    2.76    0.24
  -3   1   6    2.41    0.32
  -3   1   6    2.46    0.21
  -3   1   6    2.64    0.23
   2  -1  -6  132.70    5.84
   2  -1  -6  151.72    5.86
   2  -1  -6  139.37    5.78
  -2   1   6  123.61    5.80
  -2   1   6  133.87    5.84
  -2   1   6  138.24    5.80
   1  -1  -6   21.13    0.93
   1  -1  -6   21.42    0.95
   1  -1  -6   20.55    0.92
  -1   1   6   19.77    0.93
  -1   1   6   19.38    0.93
  -1   1   6   20.69    0.95
   0  -1  -6    0.82    0.13
   0  -1  -6    1.03    0.14
   0   1   6    0.89    0.13
   0   1   6    1.16    0.15
   0   1   6    1.05    0.12
  -1  -1  -6   23.13    1.06
  -1  -1  -6   21.00    1.05
  -1  -1  -6   21.22    1.08
   1   1   6   22.48    1.05
   1   1   6   23.98    1.02
   1   1   6   23.89    1.07
   1   1   6   25.15    1.06
  -2  -1  -6    0.04    0.17
  -2  -1  -6   -0.03    0.13
   2   1   6    0.13    0.05
   2   1   6    0.05    0.09
  -3  -1  -6    0.58    0.25
  -3  -1  -6    0.87    0.17
   3   1   6    0.96    0.17
   3   1   6    0.76    0.15
   3   1   6    0.84    0.10
  -4  -1  -6    0.92    0.34
   4   1   6    0.56    0.14
   4   1   6    0.54    0.07
   4   1   6    0.69    0.17
  -5  -1  -6    8.31    0.82
   5   1   6    7.69    0.57
  -6  -1  -6   -0.24    0.52
   6   1   6   -0.21    0.27
  -7  -1  -6   11.87    1.17
   7   1   6   13.80    0.93
  -8  -1  -6    6.96    1.11
   8   1   6    5.48    0.64
  10  -2  -6    6.09    0.92
 -10   2   6    7.15    0.81
   9  -2  -6    0.95    0.38
   9  -2  -6    0.28    0.51
  -9   2   6   -0.12    0.32
   8  -2  -6    0.28    0.27
  -8   2   6   -0.13    0.23
   7  -2  -6    5.00    0.61
   7  -2  -6    5.44    0.46
  -7   2   6    5.00    0.41
   6  -2  -6   17.19    0.87
   6  -2  -6   15.90    0.97
  -6   2   6   17.03    0.86
   5  -2  -6   53.99    2.42
   5  -2  -6   55.13    2.50
  -5   2   6   55.60    2.43
  -5   2   6   55.23    2.43
   4  -2  -6    3.50    0.28
   4  -2  -6    3.60    0.31
  -4   2   6    3.92    0.26
  -4   2   6    3.48    0.33
   3  -2  -6   65.13    2.78
   3  -2  -6   65.34    2.69
  -3   2   6   60.35    2.75
  -3   2   6   56.67    2.69
  -3   2   6   62.97    2.71
   2  -2  -6    0.06    0.07
   2  -2  -6    0.02    0.08
  -2   2   6   -0.05    0.08
  -2   2   6   -0.04    0.12
  -2   2   6   -0.02    0.13
   1  -2  -6    3.20    0.23
   1  -2  -6    3.03    0.30
   1  -2  -6    3.52    0.22
  -1   2   6    3.15    0.22
  -1   2   6    3.21    0.26
   0  -2  -6   46.03    2.08
   0  -2  -6   48.16    2.10
   0  -2  -6   45.73    2.12
   0   2   6   51.43    2.07
   0   2   6   46.53    2.07
  -1  -2  -6    0.07    0.08
  -1  -2  -6   -0.03    0.15
  -1  -2  -6   -0.14    0.16
   1   2   6    0.16    0.12
   1   2   6    0.01    0.08
  -2  -2  -6    0.32    0.19
  -2  -2  -6    0.31    0.21
  -2  -2  -6    0.27    0.11
   2   2   6    0.19    0.10
   2   2   6    0.29    0.09
  -3  -2  -6    0.51    0.27
  -3  -2  -6    0.57    0.23
   3   2   6    0.69    0.11
   3   2   6    0.50    0.16
   3   2   6    0.29    0.21
  -4  -2  -6    0.41    0.33
   4   2   6    0.09    0.19
   4   2   6    0.10    0.09
   4   2   6   -0.12    0.20
  -5  -2  -6    0.69    0.44
  -6  -2  -6    2.89    0.71
   6   2   6    3.41    0.44
  -7  -2  -6    9.73    1.16
   7   2   6   10.64    0.79
  10  -3  -6   12.37    1.01
  10  -3  -6   13.11    1.22
 -10   3   6   12.12    0.91
   9  -3  -6    0.08    0.47
   9  -3  -6    0.35    0.38
  -9   3   6   -0.01    0.33
   8  -3  -6    4.46    0.53
   8  -3  -6    4.62    0.59
  -8   3   6    4.49    0.44
   7  -3  -6    0.46    0.24
   7  -3  -6    0.10    0.28
  -7   3   6    0.54    0.19
   6  -3  -6    0.28    0.24
   6  -3  -6   -0.05    0.19
  -6   3   6    0.27    0.14
   5  -3  -6    9.55    0.58
   5  -3  -6    9.17    0.55
  -5   3   6    9.12    0.51
   4  -3  -6    3.73    0.30
   4  -3  -6    3.84    0.31
   4  -3  -6    4.24    0.48
  -4   3   6    3.24    0.41
  -4   3   6    3.82    0.27
   3  -3  -6   93.88    3.85
   3  -3  -6   84.47    3.88
   3  -3  -6   96.33    3.93
  -3   3   6   82.91    3.87
  -3   3   6   87.33    3.90
  -3   3   6   95.78    3.98
   2  -3  -6   20.12    0.89
   2  -3  -6   19.32    0.93
  -2   3   6   19.47    0.93
  -2   3   6   19.97    0.93
   1  -3  -6   22.86    1.09
   1  -3  -6   23.75    1.07
  -1   3   6   23.71    1.10
  -1   3   6   23.96    1.06
   0  -3  -6   13.80    0.71
   0  -3  -6   13.56    0.71
   0   3   6   14.57    0.66
   0   3   6   13.79    0.69
  -1  -3  -6    3.91    0.30
  -1  -3  -6    4.30    0.38
   1   3   6    3.76    0.29
   1   3   6    3.80    0.30
   1   3   6    4.96    0.33
  -2  -3  -6   19.73    1.00
  -2  -3  -6   19.35    1.09
  -2  -3  -6   21.45    1.15
   2   3   6   20.85    1.07
   2   3   6   20.26    1.00
   2   3   6   20.71    0.97
  -3  -3  -6    0.44    0.17
  -3  -3  -6    0.28    0.30
  -3  -3  -6    0.67    0.31
   3   3   6    0.45    0.17
   3   3   6    0.47    0.14
   3   3   6   -0.05    0.28
  -4  -3  -6    2.04    0.48
   4   3   6    2.70    0.28
   4   3   6    2.38    0.31
  -5  -3  -6    9.04    0.91
   5   3   6    9.81    0.65
  -6  -3  -6    0.98    0.66
   6   3   6    1.16    0.33
  -7  -3  -6    7.07    1.04
   7   3   6    7.05    0.79
  10  -4  -6    4.34    0.78
  10  -4  -6    3.74    0.60
 -10   4   6    4.54    0.50
   9  -4  -6    0.52    0.38
   9  -4  -6    0.28    0.48
  -9   4   6   -0.05    0.30
   8  -4  -6    0.61    0.38
   8  -4  -6    0.91    0.32
  -8   4   6    0.59    0.20
   7  -4  -6    3.71    0.49
   7  -4  -6    3.60    0.41
  -7   4   6    4.43    0.34
   6  -4  -6    6.59    0.50
   6  -4  -6    6.97    0.51
  -6   4   6    6.76    0.44
   5  -4  -6    8.95    0.56
   5  -4  -6    8.77    0.52
   5  -4  -6    7.63    0.67
  -5   4   6    9.30    0.51
   4  -4  -6    5.45    0.49
   4  -4  -6    5.17    0.41
   4  -4  -6    6.41    0.35
  -4   4   6    5.59    0.38
   3  -4  -6    4.35    0.24
   3  -4  -6    3.70    0.32
  -3   4   6    3.99    0.30
  -3   4   6    4.05    0.35
   2  -4  -6    2.47    0.19
   2  -4  -6    3.02    0.27
  -2   4   6    2.20    0.24
  -2   4   6    2.60    0.24
   1  -4  -6   57.08    2.44
   1  -4  -6   52.81    2.47
  -1   4   6   58.03    2.40
  -1   4   6   55.77    2.48
   0  -4  -6    3.16    0.36
   0  -4  -6    3.69    0.32
   0   4   6    4.01    0.26
   0   4   6    3.55    0.32
  -1  -4  -6    9.71    0.65
  -1  -4  -6    9.93    0.58
   1   4   6   11.00    0.57
   1   4   6   10.01    0.58
   1   4   6   10.02    0.57
  -2  -4  -6   22.02    1.08
  -2  -4  -6   20.98    1.17
   2   4   6   21.11    1.06
   2   4   6   22.02    1.07
  -3  -4  -6    1.83    0.41
  -3  -4  -6    1.83    0.26
   3   4   6    1.40    0.23
   3   4   6    1.84    0.27
  -4  -4  -6    0.94    0.49
   4   4   6    0.34    0.23
   4   4   6    0.61    0.22
  -5  -4  -6    0.97    0.62
   5   4   6    1.31    0.34
  -6  -4  -6    0.51    0.74
   6   4   6    0.25    0.34
  10  -5  -6    5.20    0.64
  10  -5  -6    4.13    0.72
 -10   5   6    4.55    0.59
   9  -5  -6    1.03    0.44
   9  -5  -6    0.66    0.44
  -9   5   6    1.13    0.29
   8  -5  -6    7.37    0.71
   8  -5  -6    8.46    0.71
  -8   5   6    8.23    0.55
   7  -5  -6    0.00    0.24
   7  -5  -6    0.45    0.27
  -7   5   6    0.05    0.18
   6  -5  -6    0.29    0.20
   6  -5  -6   -0.19    0.20
  -6   5   6    0.16    0.16
   5  -5  -6    0.52    0.19
   5  -5  -6    0.21    0.29
   5  -5  -6    0.58    0.15
  -5   5   6    0.47    0.15
   4  -5  -6    0.01    0.15
   4  -5  -6    0.09    0.22
   4  -5  -6    0.11    0.09
  -4   5   6    0.03    0.15
   3  -5  -6   86.20    3.84
   3  -5  -6   88.28    3.72
   3  -5  -6   88.37    3.76
  -3   5   6   88.57    3.84
   2  -5  -6   16.05    0.73
   2  -5  -6   15.74    0.82
  -2   5   6   15.72    0.73
  -2   5   6   14.87    0.82
   1  -5  -6    1.74    0.24
   1  -5  -6    1.96    0.23
  -1   5   6    2.18    0.18
  -1   5   6    1.77    0.26
   0  -5  -6    3.34    0.36
   0  -5  -6    3.77    0.42
   0   5   6    4.47    0.40
   0   5   6    4.01    0.27
  -1  -5  -6   27.12    1.41
  -1  -5  -6   26.72    1.35
   1   5   6   27.79    1.35
   1   5   6   32.84    1.36
   1   5   6   26.47    1.37
  -2  -5  -6    1.10    0.36
  -2  -5  -6    0.42    0.21
   2   5   6    0.57    0.19
   2   5   6    0.54    0.25
  -3  -5  -6    0.94    0.44
  -3  -5  -6    0.45    0.25
   3   5   6    1.59    0.29
   3   5   6    0.74    0.26
  -4  -5  -6   -0.02    0.55
   4   5   6    0.60    0.31
   4   5   6   -0.50    0.28
  -5  -5  -6    1.03    0.63
   5   5   6    0.29    0.33
  10  -6  -6    1.07    0.54
 -10   6   6    1.33    0.36
   9  -6  -6    0.79    0.44
   9  -6  -6    1.08    0.47
  -9   6   6    1.04    0.28
   8  -6  -6    0.37    0.36
   8  -6  -6   -0.56    0.33
  -8   6   6   -0.05    0.21
   7  -6  -6    6.50    0.52
   7  -6  -6    5.60    0.53
  -7   6   6    5.53    0.55
   6  -6  -6    7.93    0.62
   6  -6  -6    8.89    0.54
  -6   6   6    8.36    0.53
   5  -6  -6    1.32    0.30
   5  -6  -6    1.73    0.18
  -5   6   6    1.02    0.23
   4  -6  -6    7.96    0.58
  -4   6   6    8.71    0.55
   3  -6  -6   20.83    1.09
  -3   6   6   22.23    1.11
   2  -6  -6    1.60    0.26
  -2   6   6    1.17    0.26
   1  -6  -6   63.54    2.87
   1  -6  -6   66.84    2.98
  -1   6   6   68.16    3.02
  -1   6   6   68.44    2.84
   0  -6  -6   21.82    1.11
   0  -6  -6   22.49    1.13
   0   6   6   22.91    1.18
  -1  -6  -6    4.49    0.57
   1   6   6    5.33    0.52
  -2  -6  -6    9.31    0.78
  -2  -6  -6    8.70    0.59
   2   6   6    7.65    0.57
   2   6   6    8.80    0.68
  -3  -6  -6    2.85    0.58
  -3  -6  -6    3.05    0.45
   3   6   6    3.93    0.51
   3   6   6    2.89    0.39
  -4  -6  -6    0.20    0.63
   4   6   6    0.25    0.28
   5   6   6    2.45    0.80
   5   6   6    2.09    0.41
   9  -7  -6    0.28    0.44
  -9   7   6    0.41    0.29
   8  -7  -6    2.80    0.45
  -8   7   6    2.96    0.39
   7  -7  -6    4.34    0.51
  -7   7   6    4.61    0.47
  -6   7   6    2.40    0.36
   5  -7  -6    3.95    0.46
   4  -7  -6    6.56    0.51
  -4   7   6    6.33    0.51
   3  -7  -6    7.62    0.55
  -3   7   6    8.34    0.60
   2  -7  -6    8.30    0.61
  -2   7   6    9.03    0.66
   1  -7  -6    0.94    0.46
  -1   7   6    0.68    0.27
   0  -7  -6    1.41    0.30
   0   7   6    1.57    0.34
  -1  -7  -6   14.42    0.84
   1   7   6   14.21    0.82
   1   7   6   13.36    0.91
  -2  -7  -6    4.67    0.54
   2   7   6    3.65    0.45
  -3  -7  -6    4.13    0.52
   3   7   6    4.23    0.50
   3   7   6    3.92    0.53
   4   7   6    0.28    0.41
   9  -8  -6    0.31    0.52
  -9   8   6    0.11    0.33
   8  -8  -6    9.71    0.85
  -8   8   6    8.29    0.67
   7  -8  -6   -0.11    0.38
  -7   8   6    1.24    0.32
   6  -8  -6    0.24    0.31
  -6   8   6    0.71    0.31
   5  -8  -6    0.52    0.29
  -5   8   6    0.11    0.28
   4  -8  -6   21.34    1.19
  -4   8   6   23.64    1.24
   3  -8  -6    1.39    0.30
  -3   8   6    0.97    0.39
   2  -8  -6   19.36    1.10
  -2   8   6   20.24    1.14
   1  -8  -6    2.16    0.39
  -1   8   6    2.95    0.49
   0  -8  -6    4.87    0.59
   0   8   6    5.67    0.68
  -1  -8  -6    0.36    0.35
   1   8   6    0.47    0.41
   1   8   6    0.54    0.30
  -2  -8  -6    0.48    0.36
   2   8   6    0.65    0.36
   2   8   6    0.99    0.47
   8  -9  -6    0.34    0.45
  -8   9   6    0.67    0.32
   7  -9  -6   -0.05    0.37
  -7   9   6    0.22    0.30
   6  -9  -6    0.17    0.39
  -6   9   6    0.77    0.34
   5  -9  -6    2.89    0.43
  -5   9   6    2.84    0.45
   4  -9  -6   10.47    0.80
  -4   9   6   10.85    0.81
   3  -9  -6    1.08    0.36
  -3   9   6    1.57    0.41
   2  -9  -6   15.99    1.04
  -2   9   6   18.19    1.11
   1  -9  -6   -0.43    0.32
  -1   9   6    1.15    0.48
   0  -9  -6    7.29    0.66
   0   9   6    8.84    0.90
  -1  -9  -6    3.14    0.53
   1   9   6    2.88    0.47
   1   9   6    4.61    0.62
   7 -10  -6   -0.42    0.49
  -7  10   6    0.23    0.42
   6 -10  -6    0.19    0.46
  -6  10   6   -0.06    0.37
   5 -10  -6    0.13    0.45
  -5  10   6    0.11    0.39
   4 -10  -6    1.33    0.42
  -4  10   6    1.62    0.51
   3 -10  -6    4.59    0.58
  -3  10   6    4.78    0.65
   2 -10  -6    5.51    0.66
  -2  10   6    7.33    0.90
  -1  10   6    0.49    0.56
  -3  11  -7    0.90    0.67
   3 -11   7    1.25    0.48
  -4  11  -7    4.00    0.82
   4 -11   7    3.62    0.59
   1  10  -7   10.38    1.35
  -1 -10   7   11.53    1.29
   0  10  -7    5.05    0.92
   0 -10   7    4.91    0.93
  -1  10  -7    3.07    0.58
  -1  10  -7    3.72    0.74
   1 -10   7    2.25    0.71
  -2  10  -7    3.21    0.69
  -2  10  -7    3.37    0.41
   2 -10   7    2.95    0.47
  -3  10  -7    0.36    0.34
  -3  10  -7   -0.13    0.61
   3 -10   7    0.96    0.41
  -4  10  -7    1.00    0.47
  -4  10  -7    0.85    0.59
   4 -10   7    0.74    0.44
  -5  10  -7    0.19    0.59
   5 -10   7    0.04    0.46
  -6  10  -7   -0.18    0.57
   6 -10   7    1.37    0.54
   2   9  -7   -0.26    0.32
   2   9  -7   -1.20    0.71
  -2  -9   7    0.98    0.76
   1   9  -7   27.88    1.88
   1   9  -7   33.51    1.56
  -1  -9   7   33.30    2.04
   0   9  -7    1.68    0.65
   0   9  -7    1.69    0.31
   0  -9   7    1.97    0.65
  -1   9  -7    2.68    0.33
  -1   9  -7    3.18    0.70
   1  -9   7    2.60    0.36
   1  -9   7    2.08    0.63
  -2   9  -7    8.66    0.62
  -2   9  -7    9.81    0.91
   2  -9   7    9.61    0.91
   2  -9   7    9.13    0.71
  -3   9  -7    1.61    0.32
  -3   9  -7    2.69    0.58
   3  -9   7    1.40    0.37
  -4   9  -7    2.93    0.57
  -4   9  -7    2.39    0.41
  -5   9  -7    2.05    0.43
   5  -9   7    2.07    0.46
  -6   9  -7    2.28    0.55
  -6   9  -7    1.59    0.56
   6  -9   7    2.52    0.54
  -7   9  -7    5.76    0.83
   7  -9   7    6.19    0.81
   4   8  -7    0.24    0.43
   4   8  -7    0.82    0.76
  -4  -8   7    0.49    0.69
   3   8  -7    3.20    0.68
   3   8  -7    4.34    0.56
  -3  -8   7    4.24    0.80
   2   8  -7   14.94    0.86
   2   8  -7   12.34    1.13
  -2  -8   7   13.39    1.15
   1   8  -7    4.95    0.72
   1   8  -7    6.17    0.51
  -1  -8   7    5.41    0.76
   0   8  -7    5.65    0.45
   0   8  -7    4.94    0.66
   0  -8   7    5.87    0.77
   0  -8   7    6.46    0.48
  -1   8  -7   22.44    1.10
  -1   8  -7   22.87    1.42
   1  -8   7   20.41    1.40
   1  -8   7   22.30    1.12
  -2   8  -7    8.52    0.54
  -2   8  -7    7.07    0.81
   2  -8   7    7.62    0.59
   2  -8   7    6.89    0.75
  -3   8  -7   42.18    2.15
  -3   8  -7   43.67    1.99
   3  -8   7   43.11    2.17
   3  -8   7   41.99    2.03
  -4   8  -7    0.05    0.27
  -4   8  -7    0.03    0.39
   4  -8   7    0.78    0.31
  -5   8  -7    1.10    0.40
  -5   8  -7    1.54    0.40
   5  -8   7    0.74    0.43
  -6   8  -7    8.58    0.79
   6  -8   7   10.91    0.92
  -7   8  -7    7.78    0.97
   7  -8   7    7.92    0.95
  -8   8  -7   13.45    1.29
   8  -8   7   14.98    1.33
   5   7  -7    2.88    0.50
   5   7  -7    2.52    0.70
  -5  -7   7    3.51    0.83
   4   7  -7    3.81    0.51
  -4  -7   7    2.63    0.75
   3   7  -7    4.16    0.50
  -3  -7   7    3.40    0.65
   2   7  -7   20.14    1.05
  -2  -7   7   18.34    1.27
   1   7  -7    1.68    0.28
  -1  -7   7    1.28    0.45
  -1  -7   7    1.69    0.21
   0   7  -7    1.52    0.23
   0   7  -7    1.97    0.44
   0  -7   7    1.69    0.24
   0  -7   7    1.61    0.44
  -1   7  -7   16.29    0.84
  -1   7  -7   15.41    1.09
   1  -7   7   16.27    0.87
   1  -7   7   17.64    1.10
  -2   7  -7   39.03    1.76
  -2   7  -7   38.20    1.92
   2  -7   7   37.76    1.93
   2  -7   7   37.25    1.78
  -3   7  -7    7.23    0.51
  -3   7  -7    7.10    0.67
   3  -7   7    7.34    0.58
   3  -7   7    7.17    0.68
  -4   7  -7    4.38    0.47
  -4   7  -7    4.40    0.52
   4  -7   7    5.44    0.56
  -5   7  -7    3.52    0.45
  -5   7  -7    4.27    0.54
   5  -7   7    4.54    0.53
  -6   7  -7    5.87    0.58
  -6   7  -7    5.27    0.71
   6  -7   7    7.29    0.70
  -7   7  -7    0.85    0.52
   7  -7   7    0.84    0.51
  -8   7  -7    0.33    0.64
   8  -7   7    0.94    0.55
  -9   7  -7    5.07    0.97
   9  -7   7    4.43    0.83
   6   6  -7    0.98    0.53
  -6  -6   7    0.40    0.76
   5   6  -7    0.11    0.40
  -5  -6   7    0.40    0.67
   4   6  -7    0.36    0.34
  -4  -6   7    0.01    0.52
   3   6  -7    6.94    0.56
  -3  -6   7    7.60    0.77
   2   6  -7   11.02    0.66
   2   6  -7   10.55    0.53
  -2  -6   7   11.80    0.55
  -2  -6   7   11.55    0.89
   1   6  -7    1.12    0.21
   1   6  -7    1.84    0.29
  -1  -6   7    1.38    0.16
  -1  -6   7    1.20    0.38
   0   6  -7   20.27    0.99
   0   6  -7   20.32    1.00
   0  -6   7   19.67    1.18
   0  -6   7   21.16    0.98
  -1   6  -7   32.88    1.48
   1  -6   7   31.65    1.48
   1  -6   7   30.78    1.65
  -2   6  -7   37.00    1.84
  -2   6  -7   38.93    1.72
   2  -6   7   36.21    1.74
   2  -6   7   37.81    1.85
  -3   6  -7   14.80    0.89
  -3   6  -7   15.27    0.81
   3  -6   7   14.31    0.83
   3  -6   7   14.67    0.90
  -4   6  -7    8.05    0.57
  -4   6  -7    6.68    0.56
   4  -6   7    7.34    0.58
   4  -6   7    7.24    0.61
  -5   6  -7   21.26    1.22
  -5   6  -7   19.63    1.11
   5  -6   7   24.13    1.22
  -6   6  -7   -0.01    0.24
  -6   6  -7    0.05    0.41
   6  -6   7    1.20    0.62
  -7   6  -7    0.79    0.53
   7  -6   7    0.28    0.40
  -8   6  -7    0.12    0.63
   8  -6   7    0.49    0.47
  -9   6  -7    0.60    0.82
   9  -6   7   -1.00    0.61
   7   5  -7    9.34    1.10
  -7  -5   7    5.80    0.93
   6   5  -7    0.45    0.50
  -6  -5   7    1.10    0.54
   5   5  -7    0.85    0.41
  -5  -5   7    0.75    0.54
  -4  -5   7    2.91    0.55
   3   5  -7    7.37    0.55
   3   5  -7    7.69    0.36
  -3  -5   7    6.56    0.72
   2   5  -7    0.97    0.11
   2   5  -7    1.17    0.15
   2   5  -7    0.87    0.22
  -2  -5   7    0.89    0.32
  -2  -5   7    0.92    0.10
   1   5  -7    2.97    0.25
   1   5  -7    3.55    0.32
  -1  -5   7    3.85    0.47
  -1  -5   7    2.89    0.21
   0   5  -7    3.56    0.31
   0   5  -7    3.28    0.28
   0  -5   7    3.79    0.28
   0  -5   7    3.71    0.48
  -1   5  -7   53.41    2.29
  -1   5  -7   52.63    2.32
   1  -5   7   52.96    2.45
   1  -5   7   50.07    2.31
  -2   5  -7   16.02    0.82
   2  -5   7   16.52    0.92
   2  -5   7   15.99    0.84
  -3   5  -7   27.58    1.29
  -3   5  -7   24.41    1.31
   3  -5   7   26.73    1.30
   3  -5   7   26.31    1.32
  -4   5  -7   13.50    0.81
  -4   5  -7   15.47    0.86
   4  -5   7   14.81    0.87
   4  -5   7   14.36    0.81
  -5   5  -7   14.78    0.94
  -5   5  -7   15.51    0.87
   5  -5   7   15.38    0.95
  -6   5  -7    1.79    0.40
   6  -5   7    1.88    0.43
  -7   5  -7    3.68    0.72
   7  -5   7    4.47    0.61
  -8   5  -7   -0.71    0.66
   8  -5   7   -0.34    0.44
  -9   5  -7    1.28    0.81
   9  -5   7    0.35    0.64
   7   4  -7   11.92    1.11
  -7  -4   7   10.71    1.12
   6   4  -7    0.23    0.41
  -6  -4   7    0.73    0.52
   5   4  -7   -0.16    0.35
   4   4  -7    5.82    0.51
  -4  -4   7    4.41    0.55
   3   4  -7    1.93    0.28
  -3  -4   7    2.65    0.41
   2   4  -7    0.20    0.14
  -2  -4   7    0.37    0.22
   1   4  -7    0.25    0.13
   1   4  -7    0.19    0.07
  -1  -4   7    0.03    0.20
  -1  -4   7    0.42    0.07
   0   4  -7   59.16    2.43
   0   4  -7   55.99    2.48
   0  -4   7   53.62    2.58
   0  -4   7   56.67    2.44
  -1   4  -7    4.08    0.28
  -1   4  -7    4.21    0.29
   1  -4   7    3.76    0.41
   1  -4   7    4.20    0.31
  -2   4  -7    0.18    0.12
   2  -4   7    0.08    0.14
   2  -4   7   -0.04    0.18
  -3   4  -7   34.44    1.58
  -3   4  -7   35.06    1.50
   3  -4   7   30.84    1.55
   3  -4   7   31.93    1.57
  -4   4  -7   48.17    1.96
  -4   4  -7   42.69    2.10
  -4   4  -7   43.69    2.00
   4  -4   7   43.47    2.01
   4  -4   7   44.79    2.09
  -5   4  -7   34.16    1.52
  -5   4  -7   36.72    1.49
  -5   4  -7   30.26    1.71
   5  -4   7   33.68    1.68
  -6   4  -7    4.78    0.63
   6  -4   7    4.13    0.52
  -7   4  -7    3.25    0.61
   7  -4   7    3.24    0.54
  -8   4  -7    1.93    0.73
   8  -4   7    2.57    0.57
  -9   4  -7    1.34    0.82
   9  -4   7    0.56    0.61
   8   3  -7    3.03    0.75
  -8  -3   7    2.63    0.72
   7   3  -7    9.25    0.88
  -7  -3   7    7.33    0.88
   6   3  -7    5.16    0.64
   5   3  -7   17.61    1.04
  -5  -3   7   16.47    1.05
   4   3  -7    6.03    0.54
  -4  -3   7    5.06    0.51
   3   3  -7    6.51    0.46
  -3  -3   7    4.99    0.49
   2   3  -7    0.33    0.13
  -2  -3   7    0.31    0.22
   1   3  -7    2.12    0.24
   1   3  -7    2.63    0.13
  -1  -3   7    1.87    0.27
  -1  -3   7    2.21    0.14
  -1  -3   7    2.49    0.13
   0   3  -7    2.74    0.22
   0   3  -7    2.73    0.18
   0  -3   7    2.19    0.29
   0  -3   7    2.84    0.21
  -1   3  -7   20.70    1.02
  -1   3  -7   22.52    0.98
   1  -3   7   19.76    1.06
   1  -3   7   22.76    1.01
  -2   3  -7   69.25    3.13
  -2   3  -7   78.60    3.08
  -2   3  -7   71.74    3.08
   2  -3   7   70.50    3.12
   2  -3   7   66.06    3.13
  -3   3  -7    1.86    0.19
  -3   3  -7    1.53    0.26
   3  -3   7    1.44    0.22
   3  -3   7    1.46    0.24
  -4   3  -7    5.39    0.36
  -4   3  -7    6.05    0.29
  -4   3  -7    5.67    0.53
   4  -3   7    5.70    0.47
   4  -3   7    4.80    0.36
  -5   3  -7   21.79    1.23
   5  -3   7   20.95    1.14
  -6   3  -7   15.18    1.12
   6  -3   7   15.92    0.95
   7  -3   7   21.92    1.29
  -8   3  -7    0.26    0.70
   8  -3   7    0.77    0.43
  -9   3  -7   -0.83    0.73
   9  -3   7    0.57    0.62
   8   2  -7    3.90    0.69
  -8  -2   7    3.04    0.59
   7   2  -7    7.06    0.85
  -7  -2   7    6.78    0.73
   6   2  -7    1.32    0.43
  -6  -2   7    1.03    0.34
   5   2  -7    7.06    0.62
  -5  -2   7    5.70    0.57
   4   2  -7    2.79    0.36
  -4  -2   7    3.07    0.37
   3   2  -7    5.80    0.41
  -3  -2   7    5.30    0.43
   2   2  -7    4.09    0.32
  -2  -2   7    3.65    0.36
   1   2  -7    5.04    0.36
  -1  -2   7    6.06    0.28
  -1  -2   7    5.83    0.41
   0   2  -7   33.77    1.39
   0   2  -7   28.95    1.44
   0  -2   7   29.16    1.48
   0  -2   7   32.17    1.41
   0  -2   7   35.50    1.40
  -1   2  -7   36.76    1.58
  -1   2  -7   37.71    1.59
  -1   2  -7   32.56    1.61
   1  -2   7   32.31    1.63
   1  -2   7   40.01    1.59
   1  -2   7   36.10    1.60
  -2   2  -7   13.95    0.78
  -2   2  -7   14.70    0.64
  -2   2  -7   12.93    0.72
   2  -2   7   13.81    0.69
   2  -2   7   12.27    0.69
  -3   2  -7   15.47    0.88
  -3   2  -7   17.60    0.74
   3  -2   7   16.46    0.85
   3  -2   7   16.12    0.79
  -4   2  -7   52.49    2.14
  -4   2  -7   48.73    2.38
  -4   2  -7   49.26    2.16
   4  -2   7   49.63    2.16
   4  -2   7   51.37    2.30
  -5   2  -7   36.50    1.90
   5  -2   7   36.95    1.76
  -6   2  -7    0.27    0.48
   6  -2   7    0.46    0.25
  -7   2  -7    1.42    0.60
   7  -2   7    2.26    0.43
  -8   2  -7    0.20    0.68
   8  -2   7   -0.07    0.46
  -9   2  -7    5.17    1.04
   9  -2   7    4.22    0.72
   9   1  -7    0.45    0.60
  -9  -1   7    0.46    0.53
   8   1  -7    3.66    0.63
  -8  -1   7    3.01    0.51
   7   1  -7   21.97    1.31
  -7  -1   7   19.71    1.19
   6   1  -7    4.51    0.33
   6   1  -7    3.80    0.51
  -6  -1   7    4.03    0.46
   5   1  -7    0.48    0.10
   5   1  -7    0.03    0.23
   5   1  -7    0.22    0.08
  -5  -1   7    0.26    0.23
   4   1  -7    0.35    0.19
  -4  -1   7    0.35    0.17
   3   1  -7   10.15    0.57
  -3  -1   7    9.68    0.59
   2   1  -7    3.75    0.28
  -2  -1   7    3.67    0.29
   1   1  -7    3.93    0.28
  -1  -1   7    3.73    0.21
  -1  -1   7    3.74    0.30
  -1  -1   7    4.27    0.22
   0   1  -7   13.89    0.71
   0   1  -7   15.80    0.70
   0  -1   7   15.40    0.68
   0  -1   7   15.00    0.68
   0  -1   7   13.60    0.72
  -1   1  -7    0.16    0.08
  -1   1  -7    0.09    0.08
  -1   1  -7   -0.01    0.09
   1  -1   7    0.16    0.11
   1  -1   7   -0.04    0.10
  -2   1  -7   37.50    1.57
  -2   1  -7   34.06    1.67
   2  -1   7   38.27    1.61
   2  -1   7   34.96    1.63
  -3   1  -7    0.45    0.21
  -3   1  -7    0.54    0.10
   3  -1   7    0.48    0.11
   3  -1   7    0.44    0.16
  -4   1  -7   95.16    4.34
   4  -1   7   98.67    4.24
  -5   1  -7    1.29    0.38
   5  -1   7    1.78    0.30
  -6   1  -7    6.04    0.75
   6  -1   7    6.21    0.60
  -7   1  -7    1.80    0.64
   7  -1   7    2.22    0.44
  -8   1  -7    6.86    0.98
   8  -1   7    7.75    0.85
   9   0  -7   -0.29    0.63
  -9   0   7   -0.12    0.45
   8   0  -7   20.11    1.29
  -8   0   7   18.68    1.26
   7   0  -7    4.22    0.41
   7   0  -7    4.65    0.88
  -7   0   7    4.05    0.47
   6   0  -7   36.47    1.57
   6   0  -7   34.96    1.76
  -6   0   7   32.91    1.67
   5   0  -7    3.69    0.44
   5   0  -7    3.61    0.27
  -5   0   7    3.32    0.37
  -5   0   7    3.83    0.24
   4   0  -7    2.45    0.33
   4   0  -7    2.64    0.18
  -4   0   7    2.37    0.27
  -4   0   7    2.36    0.18
   3   0  -7    1.80    0.12
   3   0  -7    1.34    0.19
  -3   0   7    1.72    0.21
  -3   0   7    1.47    0.15
   2   0  -7    5.58    0.27
   2   0  -7    5.02    0.34
  -2   0   7    5.46    0.35
  -2   0   7    5.43    0.27
  -2   0   7    5.35    0.30
   1   0  -7    1.29    0.12
   1   0  -7    1.26    0.15
  -1   0   7    0.92    0.14
  -1   0   7    1.40    0.12
  -1   0   7    1.49    0.15
   0   0  -7    4.64    0.31
   0   0  -7    5.31    0.31
   0   0   7    5.50    0.31
   0   0   7    5.25    0.30
   0   0   7    5.38    0.29
  -1   0  -7   14.52    0.77
  -1   0  -7   16.30    0.73
   1   0   7   15.72    0.72
   1   0   7   14.67    0.73
   1   0   7   15.68    0.75
  -2   0  -7    4.89    0.31
  -2   0  -7    4.60    0.38
   2   0   7    5.52    0.28
   2   0   7    4.48    0.33
  -3   0  -7    9.05    0.47
  -3   0  -7    7.71    0.59
   3   0   7    8.71    0.42
   3   0   7    8.05    0.50
  -4   0  -7    0.25    0.30
   4   0   7   -0.30    0.13
  -5   0  -7    1.41    0.43
   5   0   7    1.07    0.24
  -6   0  -7   17.04    1.28
   6   0   7   16.93    1.01
  -7   0  -7    5.17    0.83
   7   0   7    6.31    0.69
  -8   0  -7    3.19    0.86
   8   0   7    3.41    0.57
  10  -1  -7    0.46    0.71
 -10   1   7    0.92    0.57
   9  -1  -7    0.41    0.53
  -9   1   7    0.98    0.43
   8  -1  -7   25.28    1.28
   8  -1  -7   26.67    1.54
  -8   1   7   25.76    1.36
   7  -1  -7    0.33    0.31
   7  -1  -7    0.35    0.23
  -7   1   7    0.21    0.22
   6  -1  -7   34.71    1.61
   6  -1  -7   34.84    1.75
  -6   1   7   35.57    1.57
  -6   1   7   35.21    1.66
   5  -1  -7    0.21    0.21
   5  -1  -7   -0.02    0.12
  -5   1   7    0.13    0.16
  -5   1   7    0.19    0.14
   4  -1  -7   13.26    0.74
   4  -1  -7   15.37    0.68
  -4   1   7   13.54    0.73
  -4   1   7   14.04    0.69
   3  -1  -7   19.70    0.99
   3  -1  -7   22.32    0.94
  -3   1   7   22.32    0.98
  -3   1   7   19.36    0.98
   2  -1  -7    4.37    0.25
   2  -1  -7    4.14    0.28
  -2   1   7    4.42    0.29
  -2   1   7    3.93    0.36
  -2   1   7    3.81    0.27
   1  -1  -7    2.62    0.20
   1  -1  -7    2.52    0.20
  -1   1   7    2.22    0.18
  -1   1   7    2.63    0.22
  -1   1   7    3.06    0.26
  -1   1   7    2.68    0.20
   0  -1  -7   19.17    0.90
   0  -1  -7   20.51    0.92
   0  -1  -7   18.41    0.91
   0   1   7   19.45    0.89
   0   1   7   18.88    0.89
   0   1   7   19.36    0.91
   0   1   7   19.94    0.91
  -1  -1  -7   -0.10    0.13
  -1  -1  -7   -0.21    0.13
  -1  -1  -7   -0.03    0.09
   1   1   7    0.25    0.08
   1   1   7    0.03    0.09
  -2  -1  -7   75.52    3.25
  -2  -1  -7   72.18    3.33
   2   1   7   73.67    3.25
   2   1   7   77.79    3.19
  -3  -1  -7   65.82    2.75
  -3  -1  -7   59.16    2.88
   3   1   7   61.76    2.78
   3   1   7   63.84    2.68
  -4  -1  -7    0.58    0.35
   4   1   7    0.27    0.07
   4   1   7    0.11    0.16
   4   1   7    0.28    0.16
  -5  -1  -7    2.37    0.49
   5   1   7    2.46    0.39
  -6  -1  -7   19.46    1.40
   6   1   7   22.48    1.18
  -7  -1  -7    1.00    0.64
   7   1   7   -0.07    0.39
  -8  -1  -7    2.21    0.82
   8   1   7    2.40    0.54
  10  -2  -7   11.38    1.24
 -10   2   7   10.09    0.95
   9  -2  -7   13.65    1.10
  -9   2   7   11.69    0.85
   8  -2  -7    1.27    0.31
   8  -2  -7    0.87    0.43
  -8   2   7    0.97    0.31
   7  -2  -7    2.08    0.42
   7  -2  -7    2.26    0.30
  -7   2   7    2.19    0.31
   6  -2  -7   66.29    2.88
   6  -2  -7   64.02    2.98
  -6   2   7   66.14    2.91
   5  -2  -7    8.27    0.56
   5  -2  -7    8.77    0.51
  -5   2   7    9.03    0.55
  -5   2   7    8.54    0.50
   4  -2  -7   33.74    1.60
  -4   2   7   36.67    1.60
  -4   2   7   34.46    1.58
   3  -2  -7    0.38    0.11
  -3   2   7    0.16    0.10
  -3   2   7    0.39    0.23
  -3   2   7    0.05    0.17
   2  -2  -7   15.11    0.70
   2  -2  -7   14.32    0.71
  -2   2   7   14.36    0.72
  -2   2   7   15.53    0.75
  -2   2   7   15.00    0.77
   1  -2  -7    0.54    0.11
   1  -2  -7    0.38    0.10
  -1   2   7    0.18    0.14
  -1   2   7    0.37    0.12
  -1   2   7    0.40    0.11
   0  -2  -7    1.22    0.17
   0  -2  -7    1.43    0.18
   0   2   7    1.49    0.18
   0   2   7    1.22    0.15
   0   2   7    1.60    0.18
  -1  -2  -7    2.17    0.22
  -1  -2  -7    1.77    0.27
  -1  -2  -7    1.36    0.26
   1   2   7    2.14    0.20
   1   2   7    2.00    0.17
  -2  -2  -7    2.78    0.32
  -2  -2  -7    2.17    0.25
  -2  -2  -7    3.06    0.40
   2   2   7    2.27    0.24
   2   2   7    2.59    0.19
  -3  -2  -7    3.45    0.47
  -3  -2  -7    3.38    0.36
   3   2   7    3.07    0.22
   3   2   7    3.73    0.31
   3   2   7    2.98    0.34
  -4  -2  -7    8.06    0.75
   4   2   7    9.33    0.44
   4   2   7    9.26    0.58
  -5  -2  -7   20.73    1.43
   5   2   7   23.72    1.20
  -6  -2  -7    8.01    1.02
   6   2   7    5.12    0.55
  -7  -2  -7    3.02    0.85
   7   2   7    3.30    0.55
  10  -3  -7    0.46    0.63
 -10   3   7    0.82    0.43
   9  -3  -7    4.21    0.65
   9  -3  -7    5.56    0.64
  -9   3   7    3.76    0.47
   8  -3  -7    0.44    0.39
   8  -3  -7    0.00    0.28
  -8   3   7    0.10    0.23
   7  -3  -7   26.89    1.32
   7  -3  -7   26.14    1.40
  -7   3   7   27.17    1.31
   6  -3  -7    7.28    0.50
   6  -3  -7    7.67    0.58
  -6   3   7    7.21    0.47
   5  -3  -7   16.55    0.84
   5  -3  -7   16.32    0.85
  -5   3   7   16.04    0.82
   4  -3  -7    9.48    0.52
   4  -3  -7    9.67    0.53
  -4   3   7    8.92    0.73
  -4   3   7    9.34    0.52
   3  -3  -7    0.76    0.15
  -3   3   7    1.32    0.25
  -3   3   7    0.78    0.13
   2  -3  -7    9.07    0.45
   2  -3  -7    7.91    0.46
  -2   3   7    7.86    0.45
  -2   3   7    7.41    0.48
   1  -3  -7   30.99    1.39
   1  -3  -7   30.33    1.41
  -1   3   7   31.17    1.38
  -1   3   7   31.33    1.41
   0  -3  -7    0.79    0.18
   0  -3  -7    0.68    0.16
   0   3   7    0.60    0.13
   0   3   7    0.45    0.13
  -1  -3  -7   13.61    0.71
  -1  -3  -7   13.34    0.77
   1   3   7   13.32    0.70
   1   3   7   14.18    0.69
  -2  -3  -7    0.59    0.30
  -2  -3  -7   -0.22    0.14
   2   3   7    0.02    0.13
   2   3   7   -0.09    0.11
  -3  -3  -7    2.96    0.49
   3   3   7    3.96    0.36
   3   3   7    3.57    0.28
  -4  -3  -7    0.43    0.45
   4   3   7    0.40    0.14
   4   3   7    0.29    0.24
  -5  -3  -7   18.90    1.36
   5   3   7   17.73    1.04
  -6  -3  -7    4.92    0.79
   6   3   7    4.95    0.57
  -7  -3  -7   17.48    1.64
   7   3   7   14.27    1.04
  10  -4  -7    0.75    0.62
  10  -4  -7   -0.08    0.58
 -10   4   7    0.32    0.38
   9  -4  -7    1.80    0.52
   9  -4  -7    1.44    0.42
  -9   4   7    2.37    0.37
   8  -4  -7    8.55    0.75
   8  -4  -7   10.55    0.73
  -8   4   7    9.27    0.83
   7  -4  -7   43.42    2.02
   7  -4  -7   42.37    2.05
  -7   4   7   44.27    1.99
   6  -4  -7    0.23    0.20
   6  -4  -7    0.40    0.23
  -6   4   7    0.53    0.18
   5  -4  -7    9.81    0.61
   5  -4  -7    9.93    0.57
  -5   4   7   11.02    0.59
   4  -4  -7    3.07    0.33
   4  -4  -7    3.21    0.29
   4  -4  -7    4.00    0.43
  -4   4   7    3.83    0.31
  -4   4   7    3.71    0.44
   3  -4  -7    5.14    0.46
   3  -4  -7    4.59    0.28
   3  -4  -7    4.39    0.36
  -3   4   7    4.79    0.43
  -3   4   7    4.95    0.33
   2  -4  -7    6.71    0.45
   2  -4  -7    7.14    0.39
  -2   4   7    7.31    0.44
  -2   4   7    7.34    0.45
   1  -4  -7    2.62    0.29
   1  -4  -7    3.46    0.30
  -1   4   7    3.18    0.25
  -1   4   7    2.70    0.29
   0  -4  -7    3.66    0.39
   0  -4  -7    3.85    0.34
   0   4   7    4.00    0.28
   0   4   7    3.65    0.33
  -1  -4  -7    9.15    0.66
  -1  -4  -7   10.21    0.59
   1   4   7    9.09    0.55
   1   4   7    9.36    0.55
  -2  -4  -7    4.59    0.58
  -2  -4  -7    4.01    0.37
   2   4   7    3.69    0.35
   2   4   7    3.99    0.35
  -3  -4  -7    8.99    0.64
  -3  -4  -7    8.94    0.89
   3   4   7   10.41    0.58
   3   4   7   10.29    0.64
  -4  -4  -7    3.51    0.64
   4   4   7    4.62    0.44
   4   4   7    3.66    0.38
  -5  -4  -7    8.52    0.97
   5   4   7    9.26    0.73
  -6  -4  -7    1.79    0.85
   6   4   7    2.21    0.44
  10  -5  -7    2.51    0.56
  10  -5  -7    2.71    0.64
 -10   5   7    2.97    0.47
   9  -5  -7    0.25    0.39
  -9   5   7    0.56    0.27
   8  -5  -7    0.37    0.33
   8  -5  -7    0.31    0.34
  -8   5   7    0.39    0.23
   7  -5  -7    7.86    0.59
   7  -5  -7    7.92    0.62
  -7   5   7    7.78    0.56
   6  -5  -7   11.63    0.73
   6  -5  -7   11.20    0.65
  -6   5   7   11.59    0.65
   5  -5  -7   59.00    2.70
   5  -5  -7   61.06    2.61
   5  -5  -7   57.51    2.71
  -5   5   7   62.69    2.68
   4  -5  -7   -0.45    0.25
   4  -5  -7    0.19    0.15
   4  -5  -7    0.26    0.10
  -4   5   7    0.11    0.14
   3  -5  -7    1.41    0.21
   3  -5  -7    1.27    0.17
   3  -5  -7    2.13    0.28
  -3   5   7    1.21    0.20
  -3   5   7    1.59    0.24
   2  -5  -7   28.11    1.27
   2  -5  -7   26.87    1.34
  -2   5   7   28.31    1.27
  -2   5   7   28.44    1.35
   1  -5  -7    0.25    0.20
   1  -5  -7    0.04    0.17
  -1   5   7    0.41    0.13
  -1   5   7    0.29    0.16
   0  -5  -7   15.44    0.84
   0   5   7   16.32    0.75
   0   5   7   14.83    0.82
  -1  -5  -7    3.21    0.42
  -1  -5  -7    2.16    0.30
   1   5   7    2.85    0.34
   1   5   7    2.95    0.37
  -2  -5  -7   24.42    1.36
  -2  -5  -7   23.15    1.21
   2   5   7   23.07    1.20
   2   5   7   24.92    1.20
  -3  -5  -7    0.34    0.47
  -3  -5  -7    0.02    0.24
   3   5   7    0.02    0.21
   3   5   7    0.22    0.25
  -4  -5  -7   -0.04    0.61
   4   5   7    0.00    0.26
  -5  -5  -7   13.47    1.42
   5   5   7   15.30    0.99
  10  -6  -7    0.17    0.53
 -10   6   7    0.32    0.35
   9  -6  -7    0.75    0.43
  -9   6   7    0.30    0.29
   8  -6  -7   11.08    0.80
   8  -6  -7   12.33    0.87
  -8   6   7   12.76    0.76
   7  -6  -7    1.93    0.36
   7  -6  -7    3.07    0.40
  -7   6   7    2.46    0.32
   6  -6  -7    0.06    0.16
   6  -6  -7    0.10    0.26
   5  -6  -7    7.13    0.57
   5  -6  -7    7.94    0.40
  -5   6   7    7.55    0.52
   4  -6  -7    5.62    0.45
   4  -6  -7    5.92    0.31
  -4   6   7    5.96    0.45
   3  -6  -7   63.23    2.82
  -3   6   7   61.99    2.82
   2  -6  -7    3.24    0.27
   2  -6  -7    3.02    0.34
  -2   6   7    2.83    0.36
   1  -6  -7    0.06    0.20
   1  -6  -7    0.22    0.22
  -1   6   7    0.32    0.21
   0  -6  -7   29.36    1.59
   0  -6  -7   32.67    1.54
   0   6   7   33.40    1.57
  -1  -6  -7    0.14    0.36
  -1  -6  -7   -0.33    0.20
   1   6   7   -0.14    0.19
   1   6   7   -0.01    0.26
  -2  -6  -7    4.40    0.49
  -2  -6  -7    4.82    0.63
   2   6   7    5.39    0.48
   2   6   7    5.64    0.54
  -3  -6  -7    4.61    0.70
  -3  -6  -7    5.01    0.58
   3   6   7    4.75    0.60
   3   6   7    4.13    0.48
   4   6   7    8.96    0.75
   9  -7  -7    2.35    0.58
  -9   7   7    2.27    0.40
   8  -7  -7    3.04    0.47
  -8   7   7    2.73    0.38
   7  -7  -7    0.00    0.36
  -7   7   7    0.51    0.26
   6  -7  -7    3.01    0.41
  -6   7   7    3.42    0.43
  -5   7   7   16.04    0.91
   4  -7  -7    0.45    0.26
  -4   7   7    0.27    0.25
  -3   7   7    1.64    0.36
   2  -7  -7    5.02    0.49
   1  -7  -7   27.52    1.39
   0  -7  -7    4.06    0.48
   0   7   7    4.11    0.75
  -1  -7  -7    0.47    0.28
   1   7   7    0.76    0.27
   1   7   7    0.70    0.34
  -2  -7  -7    1.99    0.37
   2   7   7    2.31    0.43
   2   7   7    2.12    0.37
  -3  -7  -7    0.79    0.36
   3   7   7   -0.09    0.31
   3   7   7    0.18    0.42
   9  -8  -7    1.27    0.52
  -9   8   7    0.05    0.37
   8  -8  -7   -0.21    0.45
  -8   8   7   -0.59    0.30
   7  -8  -7    6.44    0.74
  -7   8   7    8.03    0.64
   6  -8  -7   14.11    0.93
  -6   8   7   15.25    0.91
   5  -8  -7    7.06    0.68
  -5   8   7    7.89    0.61
   4  -8  -7   16.55    0.99
  -4   8   7   16.84    0.98
   3  -8  -7    9.66    0.68
  -3   8   7    9.13    0.73
   2  -8  -7    0.39    0.28
  -2   8   7    0.85    0.36
   1  -8  -7   13.08    0.82
  -1   8   7   13.28    0.94
   0  -8  -7    5.40    0.59
   0   8   7    4.50    0.57
  -1  -8  -7    3.81    0.48
   1   8   7    3.34    0.46
   1   8   7    3.89    0.54
  -2  -8  -7   -0.06    0.37
   2   8   7    0.77    0.37
   2   8   7    0.03    0.43
   8  -9  -7    1.16    0.53
  -8   9   7    1.73    0.43
   7  -9  -7    0.81    0.46
  -7   9   7    1.56    0.42
   6  -9  -7    0.15    0.40
  -6   9   7    0.09    0.31
   5  -9  -7    8.78    0.78
  -5   9   7    8.12    0.77
   4  -9  -7    8.52    0.69
  -4   9   7    8.03    0.70
   3  -9  -7    5.28    0.63
  -3   9   7    4.49    0.58
   2  -9  -7   11.60    0.82
  -2   9   7   11.24    0.87
   1  -9  -7    0.99    0.41
  -1   9   7    1.17    0.43
   0  -9  -7    0.99    0.41
   0   9   7    0.24    0.40
   6 -10  -7    3.71    0.59
  -6  10   7    5.29    0.66
   5 -10  -7    1.17    0.43
  -5  10   7    0.77    0.41
   4 -10  -7    6.82    0.79
  -4  10   7    6.47    0.81
   3 -10  -7   -0.57    0.40
  -3  10   7    1.48    0.52
   2 -10  -7    2.34    0.54
  -2  10   7    2.37    0.54
   0  10  -8    6.75    0.62
   0  10  -8    7.54    1.02
   0 -10   8    6.00    0.94
  -1  10  -8    1.88    0.37
  -1  10  -8    0.56    0.62
   1 -10   8    1.93    0.70
  -2  10  -8    3.60    0.70
  -2  10  -8    3.27    0.43
   2 -10   8    2.34    0.66
  -3  10  -8    1.01    0.38
  -3  10  -8    1.57    0.71
   3 -10   8    1.24    0.44
  -4  10  -8    1.39    0.42
  -4  10  -8    1.27    0.56
   4 -10   8    0.73    0.44
  -5  10  -8    7.95    0.90
  -5  10  -8    8.26    0.98
   5 -10   8    6.52    0.74
   6 -10   8    1.34    0.58
   2   9  -8   13.96    0.91
   2   9  -8   12.77    1.26
  -2  -9   8   11.20    1.44
   1   9  -8    1.24    0.65
   1   9  -8    0.35    0.31
  -1  -9   8    0.14    0.68
   0   9  -8    0.97    0.67
   0   9  -8    1.28    0.32
   0  -9   8    1.90    0.70
  -1   9  -8    0.37    0.62
  -1   9  -8    0.36    0.39
   1  -9   8    0.47    0.59
  -2   9  -8    9.71    1.00
  -2   9  -8    9.57    0.66
   2  -9   8    9.12    0.95
   2  -9   8   10.17    0.76
  -3   9  -8    3.16    0.61
  -3   9  -8    2.16    0.36
   3  -9   8    2.45    0.43
   3  -9   8    1.93    0.59
  -4   9  -8    3.26    0.63
  -4   9  -8    4.23    0.64
   4  -9   8    3.24    0.54
  -5   9  -8   -0.24    0.47
  -5   9  -8    0.94    0.44
   5  -9   8   -0.08    0.40
  -6   9  -8    0.09    0.53
   6  -9   8    0.67    0.53
  -7   9  -8    2.20    0.73
   7  -9   8    0.62    0.60
   3   8  -8   18.79    1.52
   3   8  -8   23.23    1.27
  -3  -8   8   20.33    1.52
   2   8  -8    5.60    0.88
   2   8  -8    5.96    0.58
  -2  -8   8    5.56    0.80
   1   8  -8    1.51    0.52
   1   8  -8    1.02    0.29
  -1  -8   8    1.94    0.57
   0   8  -8    5.38    0.46
   0   8  -8    4.63    0.76
   0  -8   8    5.83    0.79
  -1   8  -8    0.06    0.21
  -1   8  -8    0.35    0.42
   1  -8   8   -0.04    0.45
   1  -8   8    0.39    0.26
  -2   8  -8    0.39    0.23
  -2   8  -8    0.06    0.45
   2  -8   8    0.83    0.30
   2  -8   8    0.90    0.47
  -3   8  -8    1.73    0.45
  -3   8  -8    2.11    0.33
   3  -8   8    1.88    0.37
   3  -8   8    1.67    0.50
  -4   8  -8    0.23    0.28
  -4   8  -8    0.42    0.41
   4  -8   8    0.16    0.35
  -5   8  -8    1.11    0.43
   5  -8   8    0.34    0.38
  -6   8  -8   -0.68    0.45
   6  -8   8    0.49    0.45
  -7   8  -8    7.74    1.03
   7  -8   8    9.22    1.04
  -8   8  -8    0.68    0.75
   8  -8   8    1.05    0.66
   5   7  -8    2.23    0.53
  -5  -7   8    1.99    0.73
   4   7  -8    2.94    0.45
  -4  -7   8    2.57    0.77
   3   7  -8   15.48    0.95
  -3  -7   8   15.44    1.23
   2   7  -8   14.45    0.83
  -2  -7   8   12.94    1.14
   1   7  -8   13.81    0.78
  -1  -7   8   13.77    1.06
   0   7  -8    9.54    0.59
   0  -7   8    9.00    0.55
  -1   7  -8    5.81    0.70
  -1   7  -8    4.89    0.40
   1  -7   8    4.15    0.44
   1  -7   8    4.74    0.60
  -2   7  -8    0.69    0.34
  -2   7  -8    1.02    0.21
   2  -7   8    0.81    0.34
   2  -7   8    0.79    0.26
  -3   7  -8   20.94    1.08
  -3   7  -8   19.43    1.19
   3  -7   8   20.53    1.12
   3  -7   8   21.57    1.23
  -4   7  -8    1.65    0.31
  -4   7  -8    0.59    0.34
   4  -7   8    0.90    0.34
   4  -7   8    1.46    0.34
  -5   7  -8    3.96    0.54
  -5   7  -8    4.55    0.57
   5  -7   8    3.45    0.51
  -6   7  -8    9.79    0.96
   6  -7   8   12.38    0.99
  -7   7  -8    4.00    0.72
   7  -7   8    3.40    0.66
  -8   7  -8    1.81    0.66
   8  -7   8    2.19    0.68
   6   6  -8   -0.27    0.53
  -6  -6   8   -0.97    0.65
   5   6  -8   10.40    0.83
  -5  -6   8   10.03    1.08
   4   6  -8   13.02    0.87
  -4  -6   8   12.49    1.09
   3   6  -8   21.87    1.17
  -3  -6   8   21.61    1.42
   2   6  -8    1.08    0.25
  -2  -6   8    1.66    0.47
   1   6  -8    1.38    0.26
  -1  -6   8    1.72    0.20
  -1  -6   8    2.02    0.43
   0   6  -8   36.96    1.72
   0  -6   8   35.89    1.90
   0  -6   8   38.42    1.71
  -1   6  -8  108.43    4.63
   1  -6   8  107.86    4.80
   1  -6   8  104.02    4.61
  -2   6  -8    0.53    0.17
   2  -6   8    0.66    0.32
   2  -6   8    1.17    0.26
  -3   6  -8    0.81    0.23
  -3   6  -8    0.87    0.30
   3  -6   8    1.16    0.30
   3  -6   8    0.70    0.26
  -4   6  -8    0.93    0.32
  -4   6  -8    1.10    0.31
   4  -6   8    0.96    0.32
   4  -6   8    0.98    0.31
  -5   6  -8    0.22    0.28
  -5   6  -8    0.41    0.32
   5  -6   8    0.21    0.31
  -6   6  -8    4.81    0.66
   6  -6   8    4.75    0.64
  -7   6  -8    0.76    0.49
   7  -6   8   -0.06    0.41
  -8   6  -8    0.34    0.60
   8  -6   8    0.62    0.57
   6   5  -8    1.91    0.53
  -6  -5   8    0.87    0.69
   5   5  -8    3.54    0.54
  -5  -5   8    3.89    0.65
   4   5  -8   12.81    0.83
  -4  -5   8   13.11    1.00
   3   5  -8   -0.20    0.21
  -3  -5   8   -0.18    0.39
   2   5  -8    0.10    0.20
  -2  -5   8   -0.28    0.27
   1   5  -8   37.80    1.77
   1   5  -8   40.20    1.66
  -1  -5   8   39.64    1.66
  -1  -5   8   35.23    1.91
   0   5  -8   13.46    0.64
   0   5  -8   12.84    0.71
   0  -5   8   12.75    0.88
   0  -5   8   14.15    0.67
  -1   5  -8    2.05    0.25
  -1   5  -8    1.76    0.23
   1  -5   8    1.83    0.36
   1  -5   8    2.02    0.24
  -2   5  -8   33.00    1.51
   2  -5   8   32.28    1.60
   2  -5   8   31.10    1.51
  -3   5  -8    8.97    0.63
  -3   5  -8   10.89    0.64
   3  -5   8    9.64    0.64
   3  -5   8    8.67    0.64
  -4   5  -8   15.44    0.92
  -4   5  -8   17.58    0.98
   4  -5   8   17.17    0.94
   4  -5   8   19.20    1.01
  -5   5  -8    3.80    0.52
  -5   5  -8    3.65    0.42
   5  -5   8    3.71    0.47
  -6   5  -8   10.87    0.89
   6  -5   8   11.23    0.90
  -7   5  -8    0.43    0.53
   7  -5   8   -0.03    0.44
  -8   5  -8    2.22    0.71
   8  -5   8    2.14    0.61
   7   4  -8    1.15    0.59
  -7  -4   8    1.06    0.59
   6   4  -8    3.22    0.57
  -6  -4   8    2.69    0.60
   5   4  -8    0.23    0.36
  -5  -4   8   -0.77    0.41
   4   4  -8   16.87    0.95
  -4  -4   8   14.07    1.00
   3   4  -8    3.58    0.41
  -3  -4   8    3.64    0.50
   2   4  -8   11.40    0.67
  -2  -4   8   11.65    0.77
   1   4  -8   21.39    1.07
   1   4  -8   22.52    0.97
  -1  -4   8   22.63    0.94
  -1  -4   8   20.17    1.16
   0   4  -8   37.82    1.54
   0   4  -8   34.04    1.61
   0  -4   8   34.58    1.72
   0  -4   8   35.10    1.57
  -1   4  -8   30.88    1.32
  -1   4  -8   29.05    1.38
   1  -4   8   29.75    1.47
   1  -4   8   28.34    1.41
  -2   4  -8    3.60    0.33
   2  -4   8    3.69    0.40
   2  -4   8    3.79    0.35
  -3   4  -8   17.61    0.94
   3  -4   8   18.57    0.95
   3  -4   8   16.73    0.93
  -4   4  -8    3.48    0.44
  -4   4  -8    4.11    0.31
   4  -4   8    3.89    0.46
  -5   4  -8    2.69    0.27
  -5   4  -8    2.32    0.42
   5  -4   8    2.99    0.43
  -6   4  -8    4.72    0.68
   6  -4   8    5.07    0.64
  -7   4  -8    0.81    0.57
   7  -4   8    0.98    0.43
  -8   4  -8    5.49    0.94
   8  -4   8    7.66    0.95
  -9   4  -8    0.27    0.80
   9  -4   8    0.25    0.63
   8   3  -8    0.23    0.59
  -8  -3   8    0.72    0.69
   7   3  -8    6.91    0.83
  -7  -3   8    5.00    0.72
   6   3  -8    0.96    0.40
  -6  -3   8    0.85    0.39
  -5  -3   8   11.54    0.88
   4   3  -8    0.31    0.23
  -4  -3   8    0.13    0.30
   3   3  -8    1.49    0.26
  -3  -3   8    1.70    0.32
   2   3  -8    0.28    0.15
  -2  -3   8    0.10    0.19
   1   3  -8   75.46    3.26
  -1  -3   8   73.68    3.34
   0   3  -8   30.66    1.27
   0   3  -8   27.68    1.34
   0  -3   8   26.54    1.41
   0  -3   8   27.42    1.30
   0  -3   8   32.86    1.28
  -1   3  -8   25.70    1.13
  -1   3  -8   24.96    1.19
   1  -3   8   23.80    1.23
   1  -3   8   25.85    1.18
  -2   3  -8   13.32    0.64
  -2   3  -8   12.38    0.70
   2  -3   8   13.21    0.70
   2  -3   8   11.75    0.70
  -3   3  -8   23.47    0.97
  -3   3  -8   20.41    1.11
   3  -3   8   19.43    1.08
   3  -3   8   21.17    1.08
  -4   3  -8    1.61    0.32
  -4   3  -8    1.19    0.20
  -4   3  -8    1.43    0.16
   4  -3   8    1.47    0.29
   4  -3   8    0.93    0.19
  -5   3  -8    5.67    0.62
   5  -3   8    6.40    0.58
  -6   3  -8    0.32    0.45
   6  -3   8    0.04    0.34
  -7   3  -8    2.36    0.60
   7  -3   8    2.89    0.53
  -8   3  -8    1.92    0.84
   8  -3   8    2.25    0.52
   8   2  -8    1.01    0.54
  -8  -2   8    1.50    0.55
   7   2  -8    3.61    0.59
  -7  -2   8    4.65    0.63
   6   2  -8    5.21    0.61
  -6  -2   8    4.08    0.77
   5   2  -8    0.67    0.29
  -5  -2   8    1.10    0.33
   4   2  -8   -0.13    0.19
  -4  -2   8    0.10    0.23
   3   2  -8    9.76    0.60
  -3  -2   8   10.59    0.66
   2   2  -8   21.30    1.03
  -2  -2   8   21.01    1.08
   1   2  -8   26.71    1.27
  -1  -2   8   27.43    1.19
  -1  -2   8   26.91    1.32
  -1  -2   8   28.01    1.17
   0   2  -8   13.10    0.69
   0   2  -8   14.54    0.64
   0  -2   8   13.61    0.74
   0  -2   8   13.45    0.66
   0  -2   8   14.26    0.65
  -1   2  -8   39.80    1.93
  -1   2  -8   44.50    1.89
  -1   2  -8   48.77    1.93
   1  -2   8   45.99    1.90
   1  -2   8   38.86    1.95
   1  -2   8   40.56    1.94
  -2   2  -8   73.16    2.94
  -2   2  -8   65.38    3.03
   2  -2   8   66.30    3.00
  -3   2  -8   26.20    1.44
  -3   2  -8   31.44    1.29
   3  -2   8   28.42    1.39
   3  -2   8   30.45    1.35
  -4   2  -8    2.06    0.18
  -4   2  -8    1.52    0.33
   4  -2   8    1.99    0.29
   4  -2   8    2.00    0.23
  -5   2  -8    4.65    0.59
   5  -2   8    5.21    0.50
  -6   2  -8    0.96    0.48
   6  -2   8    1.73    0.36
  -7   2  -8    0.73    0.54
   7  -2   8    1.82    0.42
  -8   2  -8    0.43    0.72
   8  -2   8    0.02    0.49
   9   1  -8   10.16    1.18
  -9  -1   8    7.21    0.88
   8   1  -8   -0.66    0.55
  -8  -1   8    0.45    0.45
   7   1  -8    1.87    0.44
  -7  -1   8    1.86    0.41
   6   1  -8    0.72    0.37
  -6  -1   8    0.71    0.31
   5   1  -8    3.00    0.42
  -5  -1   8    2.26    0.33
   4   1  -8    0.06    0.16
  -4  -1   8    0.16    0.19
   3   1  -8    4.05    0.37
  -3  -1   8    4.05    0.35
   2   1  -8    9.07    0.52
  -2  -1   8    9.78    0.42
  -2  -1   8    8.75    0.54
   1   1  -8    0.21    0.10
  -1  -1   8    0.27    0.08
  -1  -1   8    0.29    0.13
  -1  -1   8    0.17    0.07
   0   1  -8   18.79    0.94
   0  -1   8   20.88    0.91
   0  -1   8   21.50    0.92
   0  -1   8   18.41    0.95
  -1   1  -8   25.41    1.09
  -1   1  -8   24.32    1.10
  -1   1  -8   23.04    1.14
   1  -1   8   22.66    1.10
   1  -1   8   25.32    1.11
   1  -1   8   23.32    1.12
  -2   1  -8   44.83    1.85
  -2   1  -8   39.74    1.96
   2  -1   8   40.70    1.90
   2  -1   8   44.26    1.88
  -3   1  -8   24.50    1.10
  -3   1  -8   22.64    1.26
   3  -1   8   24.01    1.19
   3  -1   8   26.69    1.13
  -4   1  -8   26.75    1.26
  -4   1  -8   28.38    1.47
   4  -1   8   26.80    1.34
   4  -1   8   28.00    1.20
  -5   1  -8   15.97    1.12
   5  -1   8   16.72    0.95
  -6   1  -8    2.23    0.56
  -7   1  -8    7.46    1.00
   7  -1   8    7.24    0.71
  -8   1  -8    1.33    0.85
   8  -1   8    1.13    0.52
   9   0  -8    2.10    0.68
  -9   0   8    1.82    0.57
   8   0  -8   -0.42    0.41
  -8   0   8    0.33    0.42
   7   0  -8    5.78    0.64
  -7   0   8    5.51    0.64
   6   0  -8   15.78    0.71
   6   0  -8   13.74    0.93
  -6   0   8   13.86    0.84
   5   0  -8    1.35    0.30
   5   0  -8    1.40    0.17
  -5   0   8    1.30    0.25
  -5   0   8    1.26    0.16
   4   0  -8    0.38    0.07
   4   0  -8    0.33    0.18
  -4   0   8    0.37    0.17
  -4   0   8    0.36    0.09
   3   0  -8    0.40    0.15
   3   0  -8    0.15    0.06
  -3   0   8    0.22    0.10
  -3   0   8    0.11    0.13
   2   0  -8   21.53    0.94
   2   0  -8   21.08    1.01
  -2   0   8   21.76    0.94
  -2   0   8   20.33    1.02
  -2   0   8   22.18    0.97
   1   0  -8   43.18    1.84
   1   0  -8   41.42    1.88
  -1   0   8   44.10    1.85
  -1   0   8   40.14    1.88
  -1   0   8   42.86    1.83
   0   0  -8   19.31    0.92
   0   0   8   17.51    0.88
   0   0   8   21.15    0.90
   0   0   8   18.88    0.90
  -1   0  -8    2.99    0.30
  -1   0  -8    3.26    0.26
   1   0   8    3.20    0.24
   1   0   8    3.17    0.24
  -2   0  -8   14.66    0.85
  -2   0  -8   14.82    0.75
   2   0   8   15.50    0.77
   2   0   8   16.33    0.73
  -3   0  -8    0.39    0.17
  -3   0  -8    0.11    0.23
   3   0   8    0.57    0.11
   3   0   8    0.42    0.17
  -4   0  -8    0.25    0.31
  -4   0  -8    0.26    0.15
   4   0   8    0.07    0.14
   4   0   8    0.10    0.17
   4   0   8    0.15    0.10
  -5   0  -8    0.11    0.38
   5   0   8    0.09    0.36
  -6   0  -8   -0.36    0.48
   6   0   8    0.25    0.31
  -7   0  -8    8.61    1.06
   7   0   8    8.68    0.75
  -8   0  -8    0.58    0.79
   8   0   8    0.07    0.50
   9  -1  -8   22.91    1.50
  -9   1   8   21.95    1.35
   8  -1  -8   15.96    1.14
  -8   1   8   15.65    0.99
   7  -1  -8    1.97    0.28
   7  -1  -8    2.32    0.45
  -7   1   8    1.54    0.35
   6  -1  -8    1.80    0.23
   6  -1  -8    1.76    0.32
  -6   1   8    1.52    0.30
   5  -1  -8    3.58    0.41
   5  -1  -8    3.74    0.28
  -5   1   8    3.61    0.30
  -5   1   8    3.15    0.33
   4  -1  -8    2.08    0.19
   4  -1  -8    1.51    0.23
  -4   1   8    1.74    0.21
  -4   1   8    1.63    0.23
   3  -1  -8    0.13    0.11
   3  -1  -8    0.23    0.09
  -3   1   8   -0.01    0.14
  -3   1   8    0.20    0.12
   2  -1  -8   31.83    1.35
   2  -1  -8   30.34    1.38
  -2   1   8   30.75    1.37
  -2   1   8   28.86    1.38
   1  -1  -8    0.04    0.09
   1  -1  -8    0.25    0.09
  -1   1   8    0.22    0.09
  -1   1   8   -0.04    0.09
  -1   1   8    0.08    0.12
   0  -1  -8   18.04    0.86
   0  -1  -8   17.20    0.84
   0   1   8   17.42    0.82
   0   1   8   17.80    0.83
  -1  -1  -8   17.53    0.90
  -1  -1  -8   17.53    0.86
  -1  -1  -8   16.80    0.84
   1   1   8   17.13    0.81
   1   1   8   18.08    0.84
  -2  -1  -8  136.15    5.75
  -2  -1  -8  129.85    5.84
   2   1   8  136.79    5.76
  -3  -1  -8    2.67    0.43
  -3  -1  -8    2.64    0.31
   3   1   8    3.25    0.31
   3   1   8    3.08    0.21
  -4  -1  -8    0.90    0.44
   4   1   8    1.49    0.28
   4   1   8    1.52    0.17
   5   1   8   10.98    0.74
  -6  -1  -8   12.08    1.21
   6   1   8   13.30    0.89
  -7  -1  -8    1.49    0.73
   7   1   8   -0.21    0.35
  10  -2  -8    4.09    0.79
   9  -2  -8    3.04    0.61
  -9   2   8    3.86    0.51
   8  -2  -8   12.88    0.94
   8  -2  -8   12.10    0.78
  -8   2   8   12.08    0.82
   7  -2  -8   12.51    0.72
   7  -2  -8   12.91    0.87
  -7   2   8   11.99    0.74
   6  -2  -8   25.26    1.19
   6  -2  -8   24.41    1.28
  -6   2   8   25.06    1.24
   5  -2  -8    3.34    0.31
   5  -2  -8    3.41    0.34
  -5   2   8    3.37    0.31
  -5   2   8    4.10    0.41
   4  -2  -8    4.04    0.30
   4  -2  -8    4.22    0.34
  -4   2   8    4.46    0.32
  -4   2   8    4.20    0.40
   3  -2  -8    8.45    0.45
   3  -2  -8    7.76    0.45
  -3   2   8    8.28    0.46
  -3   2   8    7.60    0.51
   2  -2  -8   26.15    1.23
   2  -2  -8   27.18    1.23
  -2   2   8   27.12    1.27
  -2   2   8   28.16    1.25
   1  -2  -8   10.03    0.52
   1  -2  -8    9.76    0.52
  -1   2   8    9.94    0.51
   0  -2  -8   17.03    0.89
   0  -2  -8   18.04    0.87
   0   2   8   18.36    0.87
   0   2   8   18.38    0.85
  -1  -2  -8    7.19    0.53
  -1  -2  -8    7.87    0.48
   1   2   8    7.87    0.41
   1   2   8    8.05    0.47
  -2  -2  -8    0.48    0.31
  -2  -2  -8    0.89    0.26
   2   2   8    0.72    0.11
   2   2   8    0.75    0.18
  -3  -2  -8   12.81    0.91
  -3  -2  -8   10.92    0.86
   3   2   8   11.96    0.68
   3   2   8   11.74    0.57
   3   2   8   12.60    0.76
  -4  -2  -8   16.35    1.14
   4   2   8   17.23    0.76
   4   2   8   15.57    1.12
  -5  -2  -8    5.56    0.76
   5   2   8    4.37    0.49
  -6  -2  -8    6.91    0.93
   6   2   8    5.32    0.66
  -7  -2  -8    0.10    0.75
   7   2   8    0.69    0.47
  10  -3  -8   14.65    1.26
 -10   3   8   14.39    1.03
   9  -3  -8    0.84    0.50
  -9   3   8    1.08    0.37
   8  -3  -8    3.80    0.43
  -8   3   8    3.96    0.48
   7  -3  -8    0.28    0.23
   7  -3  -8    0.54    0.31
  -7   3   8    0.22    0.23
   6  -3  -8    6.20    0.48
   6  -3  -8    6.58    0.50
  -6   3   8    5.57    0.43
   5  -3  -8    0.26    0.17
   5  -3  -8    0.23    0.16
  -5   3   8    0.02    0.16
   4  -3  -8   12.60    0.66
   4  -3  -8   12.46    0.65
  -4   3   8   12.91    0.68
   3  -3  -8    9.10    0.48
   3  -3  -8    8.71    0.51
  -3   3   8    9.79    0.70
  -3   3   8    9.00    0.50
   2  -3  -8    4.79    0.31
   2  -3  -8    5.03    0.35
  -2   3   8    4.40    0.40
  -2   3   8    5.86    0.36
   1  -3  -8    6.80    0.43
   1  -3  -8    6.76    0.41
  -1   3   8    7.27    0.42
  -1   3   8    6.81    0.42
   0  -3  -8    9.32    0.53
   0  -3  -8    8.70    0.56
   0   3   8    9.51    0.50
   0   3   8    9.19    0.52
  -1  -3  -8    7.66    0.49
  -1  -3  -8    6.13    0.57
   1   3   8    7.71    0.48
   1   3   8    8.31    0.44
  -2  -3  -8    0.88    0.30
  -2  -3  -8    1.07    0.20
   2   3   8    0.91    0.15
   2   3   8    0.81    0.18
  -3  -3  -8    2.85    0.50
   3   3   8    3.03    0.26
   3   3   8    2.70    0.33
  -4  -3  -8   25.34    1.57
   4   3   8   27.23    1.34
  -5  -3  -8    2.75    0.67
   5   3   8    2.54    0.42
  -6  -3  -8    1.83    0.84
   6   3   8    2.76    0.48
  10  -4  -8    7.99    1.00
 -10   4   8    7.76    0.78
   9  -4  -8    3.32    0.53
   9  -4  -8    3.54    0.50
  -9   4   8    3.18    0.44
   8  -4  -8   30.34    1.52
   8  -4  -8   29.62    1.58
  -8   4   8   30.74    1.50
   7  -4  -8    0.21    0.29
   7  -4  -8    0.10    0.25
  -7   4   8    0.33    0.22
   6  -4  -8   10.04    0.62
   6  -4  -8    9.89    0.63
  -6   4   8    9.73    0.61
   5  -4  -8    0.05    0.18
   5  -4  -8    0.01    0.15
  -5   4   8   -0.16    0.13
   4  -4  -8    1.44    0.17
   4  -4  -8    1.17    0.20
   4  -4  -8    1.58    0.43
  -4   4   8    0.99    0.33
  -4   4   8    0.87    0.17
   3  -4  -8    0.78    0.13
   3  -4  -8    1.02    0.19
  -3   4   8    0.79    0.16
  -3   4   8    1.00    0.28
   2  -4  -8    1.50    0.21
  -2   4   8    1.30    0.23
  -2   4   8    1.46    0.20
   1  -4  -8    1.43    0.22
   1  -4  -8    1.68    0.24
  -1   4   8    1.28    0.20
  -1   4   8    1.35    0.20
   0  -4  -8    1.53    0.22
   0  -4  -8    1.34    0.27
   0   4   8    1.56    0.22
   0   4   8    1.48    0.20
  -1  -4  -8   10.36    0.84
  -1  -4  -8   11.29    0.68
   1   4   8   12.08    0.65
   1   4   8   12.29    0.68
  -2  -4  -8    0.71    0.38
  -2  -4  -8    0.38    0.23
   2   4   8    0.14    0.18
   2   4   8    0.14    0.17
  -3  -4  -8    8.17    0.88
  -3  -4  -8    8.04    0.59
   3   4   8    7.24    0.55
   3   4   8    7.95    0.50
  -4  -4  -8    1.62    0.62
   4   4   8    0.84    0.32
  -5  -4  -8    1.97    0.70
   5   4   8    1.28    0.39
   9  -5  -8    3.06    0.53
   9  -5  -8    3.54    0.49
  -9   5   8    3.81    0.47
   8  -5  -8    6.51    0.65
   8  -5  -8    7.97    0.67
  -8   5   8    6.25    0.56
   7  -5  -8    6.67    0.56
   7  -5  -8    7.71    0.63
  -7   5   8    7.45    0.52
   6  -5  -8    3.82    0.38
   6  -5  -8    3.24    0.37
   5  -5  -8    1.37    0.19
   5  -5  -8    1.20    0.27
  -5   5   8    1.47    0.24
   4  -5  -8    7.03    0.38
   4  -5  -8    6.09    0.48
  -4   5   8    6.66    0.44
  -4   5   8    5.23    0.60
   3  -5  -8   15.76    0.78
   3  -5  -8   15.83    0.88
   3  -5  -8   18.13    0.93
  -3   5   8   16.92    0.87
  -3   5   8   17.33    0.90
   2  -5  -8    3.19    0.32
   2  -5  -8    2.56    0.30
  -2   5   8    2.74    0.34
  -2   5   8    3.02    0.34
   1  -5  -8   15.14    0.83
   1  -5  -8   15.27    0.89
  -1   5   8   15.94    0.83
  -1   5   8   16.36    0.78
   0  -5  -8    5.27    0.45
   0  -5  -8    4.63    0.52
   0   5   8    4.73    0.40
  -1  -5  -8    0.77    0.42
  -1  -5  -8    0.43    0.35
   1   5   8    0.35    0.21
  -2  -5  -8    4.46    0.60
  -2  -5  -8    5.86    0.54
   2   5   8    4.76    0.45
   2   5   8    4.95    0.45
  -3  -5  -8   25.24    1.38
  -3  -5  -8   26.10    1.62
   3   5   8   27.31    1.36
   3   5   8   27.21    1.30
  -4  -5  -8    2.41    0.79
   4   5   8    2.61    0.39
  -5  -5  -8   12.73    1.45
   5   5   8   12.11    0.95
   9  -6  -8   15.59    1.09
  -9   6   8   15.34    0.94
   8  -6  -8    2.94    0.44
  -8   6   8    2.33    0.36
   7  -6  -8    8.16    0.77
  -7   6   8    9.65    0.61
   6  -6  -8   -0.01    0.27
  -6   6   8   -0.03    0.19
   5  -6  -8    0.20    0.25
  -5   6   8    0.34    0.19
   4  -6  -8    1.39    0.27
  -4   6   8    1.09    0.25
   3  -6  -8    2.10    0.30
  -3   6   8    2.51    0.33
   2  -6  -8    0.43    0.22
  -2   6   8    0.55    0.20
   1  -6  -8    1.03    0.29
   1  -6  -8    2.07    0.48
  -1   6   8    2.16    0.31
   0  -6  -8    7.26    0.68
   0  -6  -8    6.18    0.49
   0   6   8    4.81    0.47
  -1  -6  -8   14.48    0.86
  -1  -6  -8   14.04    1.29
   1   6   8   13.82    0.82
   1   6   8   13.12    0.82
  -2  -6  -8    9.79    0.72
   2   6   8   10.62    0.71
   2   6   8    9.84    0.71
  -3  -6  -8    2.74    0.45
   3   6   8    2.69    0.47
   3   6   8    3.46    0.46
   4   6   8    9.49    0.75
   9  -7  -8    7.56    0.84
  -9   7   8    6.09    0.60
   8  -7  -8    1.85    0.45
  -8   7   8    1.83    0.37
   7  -7  -8    8.57    0.74
  -7   7   8    8.93    0.65
   6  -7  -8    4.90    0.60
  -6   7   8    6.00    0.53
   5  -7  -8   13.18    0.86
  -5   7   8   14.27    0.81
   4  -7  -8    2.09    0.33
  -4   7   8    2.02    0.32
   3  -7  -8    1.78    0.32
  -3   7   8    2.09    0.35
   2  -7  -8    1.62    0.31
  -2   7   8    1.50    0.32
   1  -7  -8    0.21    0.27
  -1   7   8    0.33    0.26
   0  -7  -8    2.08    0.38
   0   7   8    1.77    0.36
  -1  -7  -8    1.96    0.36
   1   7   8    2.22    0.39
   1   7   8    1.43    0.35
  -2  -7  -8    1.47    0.41
   2   7   8    0.74    0.36
   2   7   8    0.76    0.35
   8  -8  -8    0.98    0.47
  -8   8   8   -0.04    0.29
   7  -8  -8    5.47    0.63
  -7   8   8    5.81    0.55
   6  -8  -8    0.41    0.31
  -6   8   8    1.06    0.31
   5  -8  -8   15.37    0.99
  -5   8   8   15.39    0.94
   4  -8  -8    1.94    0.38
  -4   8   8    1.96    0.36
   3  -8  -8    7.61    0.68
  -3   8   8    9.10    0.70
   2  -8  -8    2.05    0.38
  -2   8   8    2.33    0.41
   1  -8  -8    0.98    0.35
  -1   8   8    1.04    0.38
   0  -8  -8    0.53    0.37
   0   8   8    0.24    0.38
  -1  -8  -8    0.62    0.35
   1   8   8    0.17    0.41
   1   8   8   -0.11    0.29
   7  -9  -8    2.56    0.47
  -7   9   8    3.37    0.48
   6  -9  -8   -0.34    0.34
  -6   9   8    1.01    0.35
   5  -9  -8    4.26    0.55
  -5   9   8    5.35    0.58
   4  -9  -8    4.05    0.55
  -4   9   8    3.46    0.50
   3  -9  -8    4.56    0.54
  -3   9   8    4.84    0.61
   2  -9  -8   -0.33    0.37
  -2   9   8    0.39    0.37
   1  -9  -8    0.64    0.43
  -1   9   8    0.47    0.44
  -1  10  -9    4.53    0.91
  -1  10  -9    5.44    0.59
   1 -10   9    4.79    0.98
  -2  10  -9    1.15    0.37
  -2  10  -9    0.12    0.73
   2 -10   9    1.17    0.73
  -3  10  -9    2.12    0.44
  -3  10  -9    1.65    0.69
  -4  10  -9    2.97    0.54
  -4  10  -9    4.61    0.81
   4 -10   9    3.71    0.57
  -5  10  -9    4.76    0.75
  -5  10  -9    3.39    0.64
   5 -10   9    3.28    0.67
   1   9  -9    3.93    0.47
   1   9  -9    4.92    0.89
  -1  -9   9    4.54    0.95
   0   9  -9    0.56    0.68
   0   9  -9    0.46    0.32
   0  -9   9    1.24    0.63
  -1   9  -9    0.54    0.29
  -1   9  -9   -0.10    0.62
   1  -9   9    1.11    0.71
  -2   9  -9   -0.02    0.50
  -2   9  -9    0.07    0.31
   2  -9   9    0.31    0.58
  -3   9  -9    3.85    0.68
  -3   9  -9    3.85    0.49
   3  -9   9    4.15    0.51
   3  -9   9    3.88    0.71
  -4   9  -9    0.47    0.56
  -4   9  -9    0.26    0.39
   4  -9   9    0.01    0.44
  -5   9  -9    1.82    0.60
  -5   9  -9    1.59    0.54
   5  -9   9    1.99    0.54
  -6   9  -9   12.78    1.12
   6  -9   9   12.43    1.16
   3   8  -9    0.31    0.71
   3   8  -9    0.53    0.39
  -3  -8   9    0.73    0.74
   2   8  -9    8.75    0.69
   2   8  -9    7.70    1.02
  -2  -8   9    6.79    0.93
   1   8  -9    2.71    0.38
   1   8  -9    2.23    0.61
  -1  -8   9    1.72    0.63
   0   8  -9    2.64    0.36
   0   8  -9    2.20    0.64
   0  -8   9    2.61    0.59
  -1   8  -9    0.86    0.47
  -1   8  -9    0.58    0.32
   1  -8   9    1.75    0.52
  -2   8  -9    1.89    0.55
   2  -8   9    2.20    0.58
   2  -8   9    2.38    0.36
  -3   8  -9    3.23    0.69
   3  -8   9    4.81    0.55
   3  -8   9    3.45    0.71
  -4   8  -9    1.51    0.46
  -4   8  -9    0.53    0.35
   4  -8   9    0.53    0.46
   4  -8   9    1.13    0.40
  -5   8  -9    0.00    0.42
  -5   8  -9    1.30    0.46
   5  -8   9    0.99    0.45
  -6   8  -9    1.62    0.53
   6  -8   9    0.51    0.49
  -7   8  -9    4.72    0.79
   7  -8   9    6.57    0.82
   4   7  -9   17.54    1.12
  -4  -7   9   18.57    1.54
   3   7  -9    5.57    0.55
  -3  -7   9    3.95    0.76
   2   7  -9    4.00    0.45
  -2  -7   9    3.18    0.62
   1   7  -9   -0.01    0.23
  -1  -7   9    0.03    0.44
   0   7  -9    1.70    0.28
   0  -7   9    2.03    0.52
  -1   7  -9    0.26    0.21
   1  -7   9    0.29    0.23
   1  -7   9    0.20    0.46
  -2   7  -9   -0.20    0.20
  -2   7  -9    0.70    0.43
   2  -7   9    0.32    0.25
   2  -7   9    0.74    0.41
  -3   7  -9    2.69    0.48
  -3   7  -9    2.69    0.36
   3  -7   9    2.45    0.38
   3  -7   9    2.27    0.48
  -4   7  -9    2.24    0.44
   4  -7   9    2.62    0.45
   4  -7   9    1.88    0.41
  -5   7  -9   -0.21    0.36
  -5   7  -9    0.04    0.37
   5  -7   9    0.01    0.47
  -6   7  -9   -0.30    0.44
   6  -7   9    0.28    0.48
  -7   7  -9    2.87    0.67
   7  -7   9    2.85    0.69
  -8   7  -9    1.97    0.78
   8  -7   9    2.66    0.72
   5   6  -9   13.74    0.99
  -5  -6   9   11.15    1.30
   4   6  -9    3.44    0.46
  -4  -6   9    3.50    0.73
   3   6  -9    1.82    0.32
  -3  -6   9    1.68    0.51
   2   6  -9   21.96    1.24
  -2  -6   9   21.55    1.36
   1   6  -9    1.61    0.27
   0   6  -9    0.97    0.20
   0  -6   9    1.11    0.38
   0  -6   9    1.11    0.19
  -1   6  -9   15.53    0.82
   1  -6   9   14.53    0.80
   1  -6   9   14.93    1.02
  -2   6  -9    9.48    0.58
   2  -6   9    8.81    0.61
   2  -6   9    8.90    0.76
  -3   6  -9    3.91    0.48
  -3   6  -9    3.94    0.44
   3  -6   9    2.98    0.40
   3  -6   9    3.59    0.45
  -4   6  -9   11.46    0.75
  -4   6  -9    9.74    0.77
   4  -6   9   11.27    0.80
   4  -6   9   11.65    0.83
  -5   6  -9   17.74    1.05
  -5   6  -9   19.27    1.18
   5  -6   9   20.24    1.18
  -6   6  -9    2.09    0.58
   6  -6   9    3.22    0.56
  -7   6  -9   18.37    1.39
   7  -6   9   18.56    1.34
  -8   6  -9   -0.18    0.76
   8  -6   9   -0.23    0.59
   6   5  -9    3.33    0.55
  -6  -5   9    2.34    0.67
   5   5  -9   14.02    0.99
  -5  -5   9   14.27    1.15
   4   5  -9    2.04    0.41
  -4  -5   9    1.97    0.52
   3   5  -9    2.69    0.38
  -3  -5   9    2.54    0.48
   2   5  -9   11.21    0.70
  -2  -5   9   11.61    0.91
   1   5  -9    5.13    0.44
  -1  -5   9    5.77    0.64
  -1  -5   9    5.79    0.28
   0   5  -9   21.24    1.09
   0   5  -9   23.05    0.99
   0  -5   9   22.32    1.02
   0  -5   9   20.40    1.22
  -1   5  -9   16.95    0.81
  -1   5  -9   16.51    0.87
   1  -5   9   16.09    0.94
   1  -5   9   17.54    1.03
  -2   5  -9    1.18    0.25
   2  -5   9    1.48    0.25
   2  -5   9    0.98    0.31
  -3   5  -9    0.51    0.26
   3  -5   9    0.14    0.29
   3  -5   9    0.07    0.23
  -4   5  -9    3.70    0.46
  -4   5  -9    3.57    0.40
   4  -5   9    3.07    0.41
   4  -5   9    3.26    0.40
  -5   5  -9   -0.51    0.36
  -5   5  -9    0.47    0.25
   5  -5   9   -0.45    0.35
  -6   5  -9    0.66    0.50
   6  -5   9    1.25    0.40
  -7   5  -9   12.88    1.22
   7  -5   9   11.62    1.08
  -8   5  -9    0.06    0.70
   8  -5   9   -0.64    0.62
   7   4  -9    7.75    1.00
  -7  -4   9    6.88    0.92
   6   4  -9    2.30    0.54
  -6  -4   9    2.87    0.60
   5   4  -9   39.50    1.92
  -5  -4   9   35.01    1.99
   4   4  -9    1.78    0.31
  -4  -4   9    1.56    0.41
   3   4  -9    1.85    0.31
  -3  -4   9    1.61    0.41
   2   4  -9    5.87    0.44
  -2  -4   9    6.10    0.57
   1   4  -9   77.84    3.33
  -1  -4   9   73.22    3.44
   0   4  -9    2.96    0.30
   0   4  -9    2.75    0.22
   0  -4   9    3.14    0.41
   0  -4   9    2.70    0.25
  -1   4  -9    0.29    0.14
  -1   4  -9   -0.03    0.13
   1  -4   9    0.34    0.16
   1  -4   9   -0.01    0.24
  -2   4  -9    0.35    0.17
   2  -4   9    0.19    0.24
   2  -4   9    0.03    0.20
  -3   4  -9   -0.12    0.22
   3  -4   9    0.25    0.23
   3  -4   9   -0.13    0.22
  -4   4  -9    4.24    0.43
  -4   4  -9    4.23    0.49
   4  -4   9    4.39    0.50
   4  -4   9    4.07    0.41
  -5   4  -9    0.27    0.47
   5  -4   9    0.59    0.32
  -6   4  -9    0.64    0.51
   6  -4   9   -0.36    0.34
  -7   4  -9    6.07    0.82
   7  -4   9    6.97    0.85
  -8   4  -9   -0.19    0.75
   8  -4   9   -0.12    0.54
   7   3  -9    0.11    0.51
  -7  -3   9    0.79    0.51
   6   3  -9    3.74    0.56
  -6  -3   9    3.49    0.55
   5   3  -9    4.81    0.59
  -5  -3   9    4.11    0.54
   4   3  -9    1.03    0.30
  -4  -3   9    1.28    0.34
   3   3  -9   35.78    1.70
  -3  -3   9   35.49    1.78
   2   3  -9   15.86    0.83
  -2  -3   9   15.57    0.92
   1   3  -9   13.79    0.72
  -1  -3   9   12.73    0.78
   0   3  -9   17.47    0.90
   0   3  -9   19.40    0.83
   0  -3   9   17.67    0.86
   0  -3   9   19.35    0.84
   0  -3   9   17.41    0.99
  -1   3  -9   12.42    0.69
  -1   3  -9   13.89    0.65
   1  -3   9   12.62    0.70
   1  -3   9   14.67    0.67
   1  -3   9   11.38    0.75
  -2   3  -9    7.82    0.53
   2  -3   9    8.19    0.57
   2  -3   9    9.71    0.55
  -3   3  -9    5.44    0.47
  -3   3  -9    5.98    0.35
   3  -3   9    5.35    0.45
   3  -3   9    5.64    0.48
  -4   3  -9    7.07    0.62
   4  -3   9    7.97    0.60
   4  -3   9    7.92    0.50
   5  -3   9    0.01    0.25
  -6   3  -9    4.26    0.63
   6  -3   9    3.73    0.49
  -7   3  -9    3.32    0.72
   7  -3   9    2.20    0.50
  -8   3  -9    6.78    1.08
   8  -3   9    5.90    0.79
   8   2  -9    2.40    0.70
  -8  -2   9    1.70    0.64
   7   2  -9    0.20    0.42
  -7  -2   9   -0.29    0.39
   6   2  -9   55.42    2.59
  -6  -2   9   51.03    2.58
   5   2  -9    2.04    0.45
  -5  -2   9    2.76    0.40
   4   2  -9    1.53    0.30
  -4  -2   9    0.97    0.28
   3   2  -9   54.36    2.41
  -3  -2   9   51.45    2.46
   2   2  -9   48.86    2.16
  -2  -2   9   46.72    2.22
   1   2  -9   15.65    0.81
  -1  -2   9   16.75    0.74
  -1  -2   9   16.71    0.72
  -1  -2   9   15.79    0.88
   0   2  -9    8.68    0.51
   0  -2   9    9.29    0.48
   0  -2   9    8.37    0.56
   0  -2   9    9.44    0.46
  -1   2  -9   11.29    0.63
  -1   2  -9   11.91    0.58
   1  -2   9   12.14    0.60
   1  -2   9   11.07    0.61
   1  -2   9   10.71    0.65
  -2   2  -9    6.06    0.35
  -2   2  -9    5.86    0.46
   2  -2   9    5.90    0.42
   2  -2   9    5.92    0.42
  -3   2  -9    3.05    0.25
  -3   2  -9    2.97    0.40
   3  -2   9    3.20    0.32
   3  -2   9    3.35    0.32
  -4   2  -9    2.20    0.42
   4  -2   9    1.18    0.26
   4  -2   9    1.62    0.21
  -5   2  -9    1.11    0.49
   5  -2   9    0.81    0.29
  -6   2  -9    9.10    1.03
   6  -2   9   10.01    0.75
  -7   2  -9    0.39    0.64
   7  -2   9    1.46    0.45
  -8   2  -9   10.62    1.28
   8  -2   9    9.28    1.02
   8   1  -9    2.14    0.62
  -8  -1   9    2.09    0.54
   7   1  -9    4.01    0.55
  -7  -1   9    3.14    0.54
   6   1  -9    0.63    0.32
  -6  -1   9    0.87    0.43
   5   1  -9    3.16    0.43
  -5  -1   9    2.27    0.37
   4   1  -9   18.52    0.96
  -4  -1   9   17.25    0.99
   3   1  -9   14.51    0.76
  -3  -1   9   13.20    0.77
   2   1  -9    0.53    0.15
  -2  -1   9    0.44    0.07
  -2  -1   9    0.48    0.18
  -2  -1   9    0.28    0.09
   1   1  -9   88.83    3.94
  -1  -1   9   96.93    3.88
  -1  -1   9   93.07    3.88
  -1  -1   9   85.20    3.96
   0   1  -9   22.13    1.10
   0  -1   9   22.37    1.11
   0  -1   9   24.61    1.06
   0  -1   9   23.32    1.09
  -1   1  -9    4.13    0.33
   1  -1   9    4.24    0.33
   1  -1   9    4.24    0.31
  -2   1  -9    0.01    0.12
  -2   1  -9   -0.02    0.19
   2  -1   9   -0.03    0.13
   2  -1   9    0.04    0.14
  -3   1  -9    1.49    0.20
  -3   1  -9    1.44    0.32
   3  -1   9    2.02    0.22
   3  -1   9    2.24    0.28
  -4   1  -9    6.26    0.65
   4  -1   9    7.12    0.39
   4  -1   9    6.22    0.52
  -5   1  -9    3.77    0.58
   5  -1   9    3.02    0.47
  -6   1  -9    0.71    0.52
   6  -1   9    0.26    0.34
  -7   1  -9    0.51    0.76
   7  -1   9    0.52    0.46
  -8   1  -9   12.84    1.45
   8  -1   9   14.26    1.18
   9   0  -9    4.28    0.81
  -9   0   9    4.68    0.72
   8   0  -9    6.18    0.77
  -8   0   9    5.77    0.76
   7   0  -9    1.08    0.44
  -7   0   9    1.34    0.40
   6   0  -9    0.21    0.29
  -6   0   9    0.10    0.24
   5   0  -9    9.69    0.43
   5   0  -9    8.55    0.64
  -5   0   9    8.70    0.64
   4   0  -9    8.66    0.57
   4   0  -9    9.43    0.42
  -4   0   9    9.34    0.44
  -4   0   9    9.32    0.59
   3   0  -9   23.65    1.15
   3   0  -9   23.99    1.04
  -3   0   9   24.41    1.07
  -3   0   9   22.93    1.17
  -3   0   9   24.27    1.04
   2   0  -9   48.47    2.09
   2   0  -9   48.13    2.17
  -2   0   9   48.56    2.09
  -2   0   9   50.85    2.12
  -2   0   9   47.36    2.19
   1   0  -9   14.98    0.76
  -1   0   9   14.72    0.77
  -1   0   9   15.41    0.72
  -1   0   9   15.21    0.70
   0   0  -9   25.81    1.20
   0   0   9   24.15    1.15
   0   0   9   26.94    1.18
   0   0   9   24.79    1.18
  -1   0  -9   54.20    2.40
   1   0   9   52.82    2.33
   1   0   9   52.05    2.32
  -2   0  -9    4.48    0.37
  -2   0  -9    5.03    0.46
   2   0   9    5.00    0.33
   2   0   9    4.89    0.36
  -3   0  -9   20.86    1.04
  -3   0  -9   21.31    1.21
   3   0   9   23.15    1.01
   3   0   9   21.76    1.09
  -4   0  -9    2.20    0.49
   4   0   9    1.41    0.27
   4   0   9    1.74    0.18
  -5   0  -9    0.10    0.50
   5   0   9   -0.15    0.26
  -6   0  -9    5.30    0.85
   6   0   9    5.61    0.65
  -7   0  -9    2.25    0.90
   7   0   9    3.20    0.58
   9  -1  -9    0.60    0.57
  -9   1   9    0.19    0.51
   8  -1  -9    4.36    0.57
  -8   1   9    4.28    0.55
   7  -1  -9    2.77    0.45
  -7   1   9    2.69    0.38
   6  -1  -9   -0.06    0.27
   6  -1  -9   -0.07    0.15
  -6   1   9   -0.10    0.24
   5  -1  -9    0.07    0.17
   5  -1  -9    0.50    0.13
  -5   1   9    0.05    0.19
  -5   1   9    0.16    0.18
   4  -1  -9   21.61    1.11
   4  -1  -9   24.01    1.02
  -4   1   9   23.35    1.07
  -4   1   9   21.50    1.12
   3  -1  -9    6.48    0.44
   3  -1  -9    7.38    0.38
  -3   1   9    7.49    0.46
  -3   1   9    6.80    0.44
   2  -1  -9   15.68    0.76
  -2   1   9   15.05    0.76
  -2   1   9   15.05    0.77
   1  -1  -9   19.44    0.92
   1  -1  -9   20.00    0.96
  -1   1   9   18.95    0.92
  -1   1   9   21.58    1.00
  -1   1   9   19.89    0.95
   0  -1  -9   42.79    1.92
   0  -1  -9   42.20    1.87
   0   1   9   42.24    1.87
   0   1   9   41.89    1.87
  -1  -1  -9   46.62    2.14
   1   1   9   46.53    2.08
   1   1   9   46.78    2.04
  -2  -1  -9   36.89    1.74
  -2  -1  -9   37.86    1.84
   2   1   9   37.97    1.67
   2   1   9   38.84    1.74
  -3  -1  -9   14.55    0.96
   3   1   9   16.41    0.85
  -4  -1  -9   -0.21    0.42
  -5  -1  -9    1.12    0.54
   5   1   9    0.68    0.31
  -6  -1  -9    1.46    0.71
   6   1   9    0.59    0.35
  -7  -1  -9    0.64    0.78
   7   1   9    1.44    0.44
   9  -2  -9    0.95    0.55
  -9   2   9    1.47    0.42
   8  -2  -9    7.19    0.76
  -8   2   9    5.28    0.58
   7  -2  -9    0.50    0.23
   7  -2  -9    0.32    0.35
  -7   2   9    0.25    0.27
   6  -2  -9    4.43    0.37
   6  -2  -9    3.07    0.40
  -6   2   9    3.99    0.43
   5  -2  -9    0.39    0.16
   5  -2  -9    0.35    0.19
  -5   2   9    0.27    0.25
  -5   2   9    0.67    0.19
   4  -2  -9    4.06    0.33
   4  -2  -9    4.14    0.30
  -4   2   9    3.76    0.33
  -4   2   9    4.03    0.41
   3  -2  -9    2.23    0.23
   3  -2  -9    2.11    0.23
  -3   2   9    2.29    0.26
  -3   2   9    1.81    0.31
   2  -2  -9   32.19    1.47
   2  -2  -9   33.41    1.48
  -2   2   9   32.46    1.49
   1  -2  -9   22.42    1.05
   1  -2  -9   22.04    1.06
  -1   2   9   22.12    1.05
  -1   2   9   22.54    1.04
   0  -2  -9   18.84    0.91
   0  -2  -9   17.95    0.94
   0   2   9   19.01    0.88
   0   2   9   18.58    0.90
  -1  -2  -9   -0.03    0.22
  -1  -2  -9    0.09    0.14
   1   2   9   -0.01    0.14
   1   2   9    0.13    0.10
  -2  -2  -9    4.46    0.56
   2   2   9    4.89    0.31
   2   2   9    5.79    0.42
  -3  -2  -9   14.39    0.99
   3   2   9   15.10    0.81
   3   2   9   14.22    0.69
  -4  -2  -9    0.99    0.50
   4   2   9    0.18    0.26
  -5  -2  -9   10.53    1.13
   5   2   9   10.92    0.77
  -6  -2  -9   -0.89    0.78
   6   2   9    0.15    0.40
   9  -3  -9    4.32    0.64
  -9   3   9    3.23    0.49
   8  -3  -9    3.35    0.49
   8  -3  -9    3.39    0.45
  -8   3   9    2.82    0.42
   7  -3  -9   -0.19    0.28
   7  -3  -9   -0.04    0.25
  -7   3   9   -0.02    0.25
   6  -3  -9    0.54    0.22
   6  -3  -9    0.39    0.23
  -6   3   9    0.45    0.21
   5  -3  -9    7.04    0.47
   5  -3  -9    6.67    0.48
  -5   3   9    7.30    0.47
   4  -3  -9    9.57    0.55
   4  -3  -9    9.50    0.54
  -4   3   9    9.40    0.55
   3  -3  -9    0.18    0.12
   3  -3  -9   -0.04    0.13
  -3   3   9    0.11    0.13
   2  -3  -9    3.28    0.28
   2  -3  -9    3.04    0.31
  -2   3   9    4.18    0.31
   1  -3  -9    5.64    0.40
   1  -3  -9    5.80    0.40
  -1   3   9    5.66    0.37
   0  -3  -9  148.76    6.35
   0  -3  -9  140.83    6.38
   0   3   9  150.56    6.35
   0   3   9  152.39    6.32
  -1  -3  -9   18.51    1.07
  -1  -3  -9   20.06    1.00
   1   3   9   19.20    0.92
   1   3   9   19.57    0.98
  -2  -3  -9    5.53    0.62
  -2  -3  -9    4.64    0.45
   2   3   9    4.81    0.34
   2   3   9    5.00    0.43
  -3  -3  -9    2.95    0.54
   3   3   9    2.67    0.26
   3   3   9    3.36    0.40
  -4  -3  -9    2.01    0.70
   4   3   9    2.43    0.38
  -5  -3  -9    8.19    1.00
   5   3   9    9.04    0.76
  -6  -3  -9   -0.38    0.89
   6   3   9    0.05    0.40
   9  -4  -9    1.68    0.50
  -9   4   9    1.61    0.40
   8  -4  -9    8.87    0.70
   8  -4  -9    8.19    0.70
  -8   4   9    8.03    0.61
   7  -4  -9    9.04    0.65
   7  -4  -9    8.97    0.63
  -7   4   9    8.09    0.58
   6  -4  -9    1.23    0.25
   6  -4  -9    0.90    0.25
  -6   4   9    1.19    0.24
   5  -4  -9    8.45    0.55
   5  -4  -9    8.72    0.52
  -5   4   9    8.88    0.54
   4  -4  -9   11.34    0.64
   4  -4  -9   11.18    0.58
  -4   4   9   10.78    0.62
   3  -4  -9    0.07    0.12
   3  -4  -9   -0.18    0.16
  -3   4   9   -0.04    0.12
   2  -4  -9    4.31    0.37
   2  -4  -9    4.26    0.33
  -2   4   9    4.36    0.33
   1  -4  -9    1.39    0.22
   1  -4  -9    1.04    0.23
  -1   4   9    1.18    0.19
   0  -4  -9    0.99    0.30
   0  -4  -9    1.26    0.25
   0   4   9    1.47    0.20
   0   4   9    1.77    0.24
  -1  -4  -9   10.09    0.65
  -1  -4  -9   10.17    0.75
   1   4   9   10.34    0.64
   1   4   9   10.75    0.59
  -2  -4  -9   15.80    1.08
  -2  -4  -9   15.87    0.90
   2   4   9   15.42    0.88
   2   4   9   15.69    0.80
  -3  -4  -9    2.34    0.56
   3   4   9    1.81    0.35
   3   4   9    2.04    0.24
  -4  -4  -9   16.46    1.35
   4   4   9   17.68    1.04
  -5  -4  -9    1.70    0.84
   5   4   9    0.40    0.41
   9  -5  -9    1.03    0.46
   9  -5  -9    1.69    0.45
  -9   5   9    0.96    0.37
   8  -5  -9    4.06    0.53
   8  -5  -9    3.63    0.47
  -8   5   9    3.41    0.45
   7  -5  -9   -0.39    0.26
   7  -5  -9    0.39    0.30
  -7   5   9    0.39    0.21
   6  -5  -9    3.18    0.37
   6  -5  -9    2.93    0.38
  -6   5   9    3.80    0.36
   5  -5  -9    0.87    0.17
   5  -5  -9    0.36    0.23
  -5   5   9    0.66    0.22
   4  -5  -9    1.17    0.24
   4  -5  -9    0.72    0.16
  -4   5   9    0.74    0.23
   3  -5  -9    1.94    0.22
   3  -5  -9    1.23    0.23
  -3   5   9    1.67    0.24
   2  -5  -9    3.38    0.35
   2  -5  -9    3.12    0.37
  -2   5   9    3.18    0.32
   1  -5  -9   12.84    0.82
   1  -5  -9   14.32    0.79
  -1   5   9   15.19    0.79
   0  -5  -9    0.53    0.35
   0  -5  -9    0.82    0.38
   0   5   9    1.07    0.34
   0   5   9    0.50    0.21
  -1  -5  -9    0.75    0.25
  -1  -5  -9    0.67    0.41
   1   5   9    0.43    0.25
   1   5   9    0.54    0.23
  -2  -5  -9   20.85    1.34
  -2  -5  -9   20.86    1.19
   2   5   9   22.19    1.09
   2   5   9   21.42    1.15
  -3  -5  -9    7.94    1.01
   3   5   9    7.59    0.65
  -4  -5  -9    2.84    0.82
   4   5   9    2.74    0.47
   9  -6  -9    3.91    0.57
  -9   6   9    3.67    0.49
   8  -6  -9    1.87    0.43
  -8   6   9    1.95    0.33
   7  -6  -9    0.04    0.30
  -7   6   9    0.17    0.26
   6  -6  -9    0.96    0.30
  -6   6   9    0.86    0.26
   5  -6  -9    1.99    0.33
  -5   6   9    2.13    0.32
   4  -6  -9    0.79    0.27
  -4   6   9    0.70    0.23
   3  -6  -9    2.15    0.32
  -3   6   9    2.83    0.34
   2  -6  -9    1.53    0.48
   1  -6  -9    5.58    0.53
  -1   6   9    5.57    0.58
   0  -6  -9    0.09    0.28
   0   6   9    0.12    0.24
   0   6   9    0.19    0.24
  -1  -6  -9    2.14    0.36
   1   6   9    1.19    0.32
   1   6   9    1.27    0.31
  -2  -6  -9    3.77    0.49
   2   6   9    3.41    0.42
   2   6   9    4.11    0.45
  -3  -6  -9    3.54    0.48
   3   6   9    2.60    0.41
   8  -7  -9    7.55    0.78
  -8   7   9    7.78    0.67
   7  -7  -9    7.94    0.74
  -7   7   9    8.26    0.65
   6  -7  -9   -0.67    0.31
  -6   7   9   -0.09    0.23
   5  -7  -9    5.96    0.55
  -5   7   9    6.72    0.57
   4  -7  -9    2.22    0.38
  -4   7   9    2.20    0.34
   3  -7  -9    0.34    0.31
  -3   7   9    0.01    0.25
   2  -7  -9    0.26    0.25
  -2   7   9   -0.01    0.28
   1  -7  -9    9.05    0.70
  -1   7   9    9.68    0.70
   0  -7  -9    1.37    0.35
   0   7   9    1.86    0.33
   0   7   9    1.33    0.35
  -1  -7  -9   17.42    1.06
   1   7   9   16.27    1.02
   1   7   9   18.11    1.04
  -2  -7  -9    0.23    0.45
   2   7   9   -0.24    0.36
   2   7   9    0.22    0.38
   8  -8  -9   -0.57    0.44
   7  -8  -9   -0.05    0.37
  -7   8   9   -0.28    0.29
   6  -8  -9    1.07    0.42
  -6   8   9    1.22    0.32
   5  -8  -9    1.40    0.38
  -5   8   9    0.56    0.30
   4  -8  -9    0.54    0.34
  -4   8   9    0.08    0.29
   3  -8  -9    0.50    0.36
  -3   8   9    0.73    0.33
   2  -8  -9    4.53    0.53
  -2   8   9    6.26    0.58
   1  -8  -9    0.05    0.34
  -1   8   9   -0.46    0.35
   0  -8  -9   -0.28    0.38
   0   8   9   -0.02    0.39
   0   8   9    0.19    0.35
   6  -9  -9    2.30    0.50
  -6   9   9    2.26    0.40
   5  -9  -9    0.43    0.40
  -5   9   9    0.96    0.42
   4  -9  -9   -0.68    0.38
  -4   9   9   -0.30    0.32
   3  -9  -9   -0.17    0.34
  -3   9   9   -0.62    0.41
   2  -9  -9    0.14    0.41
  -2   9   9    0.24    0.39
   1   9 -10   -0.05    0.80
   1   9 -10    0.20    0.36
  -1  -9  10   -0.54    0.79
   0   9 -10    5.58    0.84
   0   9 -10    3.83    0.48
   0  -9  10    4.22    0.81
  -1   9 -10   20.77    1.16
  -1   9 -10   20.80    1.56
   1  -9  10   20.78    1.61
  -2   9 -10   -0.38    0.52
  -2   9 -10    0.32    0.35
   2  -9  10    0.80    0.62
  -3   9 -10    2.01    0.67
  -3   9 -10    4.12    0.52
   3  -9  10    4.12    0.74
  -4   9 -10   30.74    1.89
  -4   9 -10   32.59    1.78
   4  -9  10   35.99    1.80
  -5   9 -10    1.86    0.59
   5  -9  10    1.68    0.58
   3   8 -10    4.28    0.55
   2   8 -10    2.87    0.41
  -2  -8  10    2.65    0.73
   1   8 -10    6.49    0.58
  -1  -8  10    6.01    0.83
   0   8 -10    2.40    0.69
   0   8 -10    1.33    0.35
   0  -8  10    1.07    0.62
  -1   8 -10    4.26    0.68
  -1   8 -10    4.72    0.51
   1  -8  10    4.74    0.71
  -2   8 -10    2.86    0.55
  -2   8 -10    2.88    0.41
   2  -8  10    2.33    0.58
  -3   8 -10    9.93    0.74
  -3   8 -10    8.68    0.98
   3  -8  10    9.71    0.77
   3  -8  10   10.11    1.03
  -4   8 -10    6.88    0.74
   4  -8  10    6.44    0.78
  -5   8 -10    0.07    0.46
   5  -8  10   -0.02    0.49
  -6   8 -10    5.57    0.77
   6  -8  10    6.70    0.82
   4   7 -10    1.51    0.45
  -4  -7  10    1.24    0.83
   3   7 -10    3.96    0.46
  -3  -7  10    3.99    0.72
   2   7 -10    0.62    0.32
  -2  -7  10   -0.49    0.48
   1   7 -10    0.16    0.25
  -1  -7  10   -0.19    0.48
   0   7 -10    5.12    0.48
   0  -7  10    4.32    0.67
  -1   7 -10    7.90    0.55
   1  -7  10    7.12    0.90
  -2   7 -10    0.79    0.46
  -2   7 -10    0.14    0.26
   2  -7  10   -0.44    0.40
   2  -7  10    0.42    0.28
  -3   7 -10   11.97    0.93
  -3   7 -10   12.52    0.80
   3  -7  10   11.62    0.96
   3  -7  10   10.85    0.82
  -4   7 -10    8.85    0.85
  -4   7 -10    9.10    0.73
   4  -7  10    8.69    0.79
   4  -7  10    9.78    0.88
  -5   7 -10    0.25    0.43
   5  -7  10   -0.97    0.44
  -6   7 -10   13.93    1.21
   6  -7  10   17.41    1.27
  -7   7 -10   -0.21    0.65
   7  -7  10   -0.39    0.65
   5   6 -10    1.11    0.49
  -5  -6  10    1.29    0.74
   4   6 -10    5.59    0.67
  -4  -6  10    6.61    0.90
   3   6 -10    0.70    0.31
  -3  -6  10    0.52    0.50
   2   6 -10    0.02    0.24
  -2  -6  10    0.59    0.42
   1   6 -10    0.60    0.21
  -1  -6  10    0.67    0.41
   0   6 -10    2.82    0.36
   0  -6  10    3.04    0.55
  -1   6 -10    1.42    0.26
   1  -6  10    1.92    0.28
   1  -6  10    1.49    0.39
  -2   6 -10    0.89    0.26
   2  -6  10    1.32    0.44
   2  -6  10    1.19    0.28
  -3   6 -10    8.06    0.72
   3  -6  10    8.22    0.67
   3  -6  10    8.05    0.72
  -4   6 -10    1.14    0.38
  -4   6 -10    1.09    0.34
   4  -6  10    1.46    0.38
   4  -6  10    1.01    0.36
  -5   6 -10   19.47    1.28
   5  -6  10   21.42    1.27
  -6   6 -10    9.67    0.98
   6  -6  10   10.45    0.99
  -7   6 -10    0.67    0.71
   7  -6  10    0.80    0.58
   6   5 -10   10.41    0.99
  -6  -5  10    9.57    1.16
   5   5 -10    4.69    0.62
  -5  -5  10    3.69    0.68
   4   5 -10   23.91    1.30
  -4  -5  10   22.60    1.46
   3   5 -10    3.97    0.49
  -3  -5  10    3.41    0.60
   2   5 -10    0.44    0.28
  -2  -5  10    0.59    0.37
   1   5 -10    0.04    0.19
  -1  -5  10    0.20    0.31
   0   5 -10    5.24    0.42
   0  -5  10    4.20    0.34
   0  -5  10    4.37    0.54
  -1   5 -10    1.27    0.25
   1  -5  10    1.23    0.37
   1  -5  10    1.31    0.25
  -2   5 -10    4.42    0.42
   2  -5  10    3.30    0.46
   2  -5  10    3.95    0.45
  -3   5 -10    0.86    0.31
   3  -5  10    0.59    0.33
   3  -5  10    0.62    0.30
  -4   5 -10    5.80    0.57
  -4   5 -10    5.03    0.58
   4  -5  10    5.95    0.63
   4  -5  10    5.60    0.59
  -5   5 -10    9.54    0.89
  -6   5 -10    1.24    0.56
   6  -5  10    1.18    0.49
  -7   5 -10    7.68    0.95
   7  -5  10    6.51    0.80
   7   4 -10    9.77    1.09
   6   4 -10   -0.37    0.44
  -6  -4  10    0.37    0.56
   5   4 -10    2.61    0.41
  -5  -4  10    2.36    0.52
   4   4 -10   21.64    1.18
  -4  -4  10   20.45    1.33
   3   4 -10    1.19    0.33
  -3  -4  10    1.81    0.45
   2   4 -10   10.58    0.64
  -2  -4  10    9.08    0.74
   1   4 -10   32.40    1.54
  -1  -4  10   32.37    1.68
   0   4 -10   14.73    0.69
   0   4 -10   14.49    0.80
   0  -4  10   14.25    0.73
   0  -4  10   13.06    0.91
   0  -4  10   16.82    0.72
  -1   4 -10    0.36    0.17
  -1   4 -10    0.54    0.16
   1  -4  10    0.42    0.29
   1  -4  10    0.98    0.19
   1  -4  10    0.37    0.21
  -2   4 -10    0.28    0.21
   2  -4  10    0.16    0.26
   2  -4  10    0.09    0.26
  -3   4 -10    7.76    0.58
   3  -4  10    7.69    0.60
   3  -4  10    7.03    0.60
  -4   4 -10    0.91    0.64
   4  -4  10    2.26    0.39
   4  -4  10    1.72    0.31
  -5   4 -10   16.44    1.10
  -6   4 -10    1.71    0.58
   6  -4  10    0.47    0.42
  -7   4 -10    9.49    1.08
   7  -4  10    9.42    0.91
  -8   4 -10    3.82    0.99
   8  -4  10    2.99    0.72
   7   3 -10   24.69    1.46
  -7  -3  10   21.87    1.55
   6   3 -10    0.14    0.41
  -6  -3  10    0.12    0.48
   5   3 -10    1.68    0.39
  -5  -3  10    0.93    0.42
   4   3 -10    0.99    0.28
  -4  -3  10    1.35    0.40
   3   3 -10    1.10    0.27
  -3  -3  10    1.26    0.35
   2   3 -10   59.99    2.67
  -2  -3  10   58.55    2.76
   1   3 -10    3.13    0.30
  -1  -3  10    3.24    0.21
  -1  -3  10    3.07    0.40
   0   3 -10    0.09    0.12
   0  -3  10   -0.05    0.13
   0  -3  10    0.01    0.15
   0  -3  10    0.37    0.23
  -1   3 -10    1.88    0.26
  -1   3 -10    1.93    0.24
   1  -3  10    2.08    0.26
   1  -3  10    1.73    0.30
  -2   3 -10    6.05    0.49
   2  -3  10    7.32    0.51
   2  -3  10    6.88    0.52
  -3   3 -10    3.00    0.41
   3  -3  10    2.33    0.35
   3  -3  10    3.37    0.42
  -4   3 -10    1.11    0.65
   4  -3  10    1.02    0.30
   4  -3  10    1.30    0.35
  -5   3 -10   16.00    1.08
   5  -3  10   15.16    1.07
  -6   3 -10    0.39    0.49
   6  -3  10    0.23    0.34
  -7   3 -10   16.45    1.44
   7  -3  10   15.81    1.11
   8   2 -10   13.56    1.12
  -8  -2  10   10.25    1.18
   7   2 -10    6.17    0.76
  -7  -2  10    7.37    0.90
   6   2 -10    3.20    0.47
  -6  -2  10    2.88    0.49
   5   2 -10   14.28    0.88
  -5  -2  10   14.21    0.98
   4   2 -10    0.09    0.23
  -4  -2  10   -0.05    0.28
   3   2 -10   52.24    2.34
  -3  -2  10   50.30    2.41
   2   2 -10   30.60    1.44
  -2  -2  10   29.59    1.50
   1   2 -10    9.54    0.58
  -1  -2  10   10.41    0.66
  -1  -2  10   10.53    0.49
  -1  -2  10    9.90    0.51
   0   2 -10   26.45    1.32
   0  -2  10   29.40    1.28
   0  -2  10   25.56    1.36
   0  -2  10   29.76    1.25
  -1   2 -10    5.97    0.42
   1  -2  10    5.30    0.41
   1  -2  10    5.72    0.47
  -2   2 -10    5.30    0.44
   2  -2  10    5.13    0.43
   2  -2  10    4.44    0.41
  -3   2 -10    4.37    0.47
   3  -2  10    4.05    0.42
   3  -2  10    3.47    0.37
  -4   2 -10   -0.03    0.50
   4  -2  10    0.33    0.27
   4  -2  10    0.13    0.20
  -5   2 -10   10.33    0.99
   5  -2  10   11.93    0.81
  -6   2 -10   -0.73    0.60
   6  -2  10    0.45    0.38
  -7   2 -10   13.45    1.36
   7  -2  10   11.12    0.92
   8   1 -10    3.16    0.63
  -8  -1  10    2.71    0.57
   7   1 -10    9.55    0.87
  -7  -1  10    6.17    0.81
   6   1 -10    1.86    0.38
  -6  -1  10    1.60    0.44
   5   1 -10    7.44    0.60
   4   1 -10   43.00    2.01
  -4  -1  10   42.75    2.06
   3   1 -10   47.10    2.11
  -3  -1  10   45.15    2.16
   2   1 -10    2.42    0.29
  -2  -1  10    2.48    0.31
  -2  -1  10    3.05    0.23
  -2  -1  10    2.77    0.19
   1   1 -10   13.96    0.74
  -1  -1  10   14.35    0.67
  -1  -1  10   13.55    0.77
  -1  -1  10   14.17    0.67
   0   1 -10    0.87    0.19
   0  -1  10    1.20    0.16
   0  -1  10    1.23    0.18
   0  -1  10    1.23    0.21
  -1   1 -10    0.35    0.17
   1  -1  10   -0.01    0.15
   1  -1  10    0.04    0.13
  -2   1 -10    2.59    0.36
   2  -1  10    2.61    0.32
   2  -1  10    2.72    0.31
  -3   1 -10    4.56    0.57
   3  -1  10    4.69    0.41
   3  -1  10    5.13    0.43
   4  -1  10   13.33    0.79
  -5   1 -10   -0.16    0.51
   5  -1  10    0.35    0.27
  -6   1 -10    5.52    0.81
   6  -1  10    6.11    0.71
  -7   1 -10    3.33    0.96
   7  -1  10    5.58    0.68
   8   0 -10   27.47    1.58
  -8   0  10   25.25    1.54
   7   0 -10    1.84    0.42
  -7   0  10    1.49    0.43
   6   0 -10    2.60    0.42
  -6   0  10    1.90    0.37
   5   0 -10   42.37    1.96
  -5   0  10   39.88    1.98
   4   0 -10   42.56    1.97
  -4   0  10   41.80    2.00
  -4   0  10   43.36    1.81
   3   0 -10   10.22    0.61
  -3   0  10   10.99    0.55
  -3   0  10   11.31    0.66
  -3   0  10   10.86    0.50
   2   0 -10   17.16    0.87
  -2   0  10   16.98    0.90
  -2   0  10   17.73    0.79
  -2   0  10   17.09    0.83
   1   0 -10   11.32    0.62
  -1   0  10   11.10    0.58
  -1   0  10   10.88    0.55
  -1   0  10   11.39    0.61
   0   0 -10    0.07    0.13
   0   0  10    0.17    0.13
   0   0  10    0.00    0.11
  -1   0 -10   10.56    0.65
   1   0  10   10.70    0.58
   1   0  10   10.61    0.58
  -2   0 -10    0.26    0.25
   2   0  10    0.20    0.14
   2   0  10    0.10    0.15
  -3   0 -10    4.98    0.62
   3   0  10    4.65    0.45
   3   0  10    6.17    0.39
  -5   0 -10    4.48    0.74
   5   0  10    3.85    0.49
  -6   0 -10   20.49    1.58
   6   0  10   21.55    1.27
  -7   0 -10    2.45    0.89
   7   0  10    4.50    0.66
   9  -1 -10    0.25    0.51
  -9   1  10    0.58    0.45
   8  -1 -10    2.80    0.56
  -8   1  10    2.78    0.50
   7  -1 -10   -0.91    0.34
  -7   1  10    0.02    0.34
   6  -1 -10    6.39    0.55
  -6   1  10    6.79    0.61
   5  -1 -10    3.45    0.42
   5  -1 -10    4.23    0.28
  -5   1  10    3.56    0.43
   4  -1 -10    0.45    0.18
   4  -1 -10    0.49    0.12
  -4   1  10    0.18    0.20
  -4   1  10    0.60    0.19
   3  -1 -10   71.51    3.16
   3  -1 -10   73.63    3.09
  -3   1  10   69.98    3.18
  -3   1  10   71.66    3.08
  -3   1  10   72.86    3.14
   2  -1 -10    4.86    0.30
   2  -1 -10    5.29    0.36
  -2   1  10    5.07    0.40
  -2   1  10    4.60    0.30
  -2   1  10    5.12    0.37
   1  -1 -10   12.40    0.65
   1  -1 -10   13.29    0.68
  -1   1  10   13.34    0.67
  -1   1  10   12.52    0.63
   0  -1 -10    1.14    0.20
   0   1  10    1.31    0.18
   0   1  10    1.47    0.19
  -1  -1 -10    0.09    0.22
   1   1  10    0.29    0.12
   1   1  10    0.32    0.15
  -2  -1 -10    0.57    0.30
   2   1  10    0.51    0.19
   2   1  10    0.90    0.15
  -3  -1 -10    5.11    0.69
   3   1  10    6.32    0.38
   3   1  10    6.24    0.49
  -4  -1 -10    0.30    0.48
   4   1  10    0.53    0.25
  -5  -1 -10    1.39    0.52
   5   1  10    0.35    0.34
  -6  -1 -10   14.33    1.45
   6   1  10   15.56    1.06
   9  -2 -10    2.07    0.58
  -9   2  10    1.85    0.48
   8  -2 -10    0.14    0.42
  -8   2  10   -0.61    0.34
   7  -2 -10    1.69    0.38
  -7   2  10    1.41    0.31
   6  -2 -10   17.27    0.86
   6  -2 -10   17.19    0.96
  -6   2  10   17.18    0.95
   5  -2 -10    1.86    0.28
   5  -2 -10    1.89    0.23
  -5   2  10    2.50    0.32
   4  -2 -10   29.42    1.40
   4  -2 -10   29.72    1.36
  -4   2  10   30.48    1.43
   3  -2 -10    1.74    0.20
   3  -2 -10    1.97    0.23
  -3   2  10    1.40    0.23
   2  -2 -10    9.45    0.54
   2  -2 -10    9.42    0.53
  -2   2  10    9.41    0.55
  -2   2  10    9.69    0.51
   1  -2 -10   39.33    1.76
   1  -2 -10   38.59    1.74
  -1   2  10   38.45    1.74
  -1   2  10   37.74    1.72
   0  -2 -10    0.65    0.21
   0  -2 -10    0.28    0.17
   0   2  10    0.27    0.14
   0   2  10    0.46    0.13
  -1  -2 -10    4.95    0.50
  -1  -2 -10    4.91    0.40
   1   2  10    5.15    0.33
   1   2  10    5.37    0.40
  -2  -2 -10   -0.14    0.30
   2   2  10   -0.09    0.12
   2   2  10    0.50    0.19
  -3  -2 -10    3.26    0.51
   3   2  10    3.47    0.28
   3   2  10    3.98    0.44
  -4  -2 -10    2.32    0.58
   4   2  10    2.78    0.39
  -5  -2 -10    1.06    0.69
   5   2  10    1.56    0.35
  -6  -2 -10   -0.52    0.82
   6   2  10   -0.01    0.44
   9  -3 -10    1.90    0.54
  -9   3  10    1.65    0.43
   8  -3 -10   -0.04    0.39
  -8   3  10    0.34    0.34
   7  -3 -10    0.03    0.25
   7  -3 -10    0.06    0.28
  -7   3  10   -0.53    0.25
   6  -3 -10    2.48    0.34
   6  -3 -10    2.30    0.29
  -6   3  10    2.30    0.32
   5  -3 -10    6.91    0.46
   5  -3 -10    7.15    0.49
  -5   3  10    6.04    0.53
   4  -3 -10   52.06    2.33
   4  -3 -10   54.08    2.34
  -4   3  10   51.48    2.36
   3  -3 -10    2.29    0.27
   3  -3 -10    2.04    0.26
  -3   3  10    2.19    0.26
   2  -3 -10   38.44    1.73
   2  -3 -10   36.56    1.72
  -2   3  10   39.25    1.74
   1  -3 -10   11.98    0.69
   1  -3 -10   11.95    0.67
  -1   3  10   12.16    0.65
  -1   3  10   12.48    0.66
   0  -3 -10   30.74    1.42
   0  -3 -10   29.12    1.46
   0   3  10   30.10    1.40
   0   3  10   28.80    1.37
  -1  -3 -10   13.29    0.75
  -1  -3 -10   12.54    0.85
   1   3  10   13.04    0.73
   1   3  10   13.89    0.68
  -2  -3 -10    1.64    0.42
   2   3  10    1.25    0.27
   2   3  10    0.92    0.17
  -3  -3 -10    1.10    0.51
   3   3  10    1.36    0.19
   3   3  10    1.08    0.28
  -4  -3 -10    3.53    0.73
   4   3  10    4.83    0.59
  -5  -3 -10    5.65    0.94
   5   3  10    6.10    0.67
   9  -4 -10    0.67    0.48
  -9   4  10    0.75    0.42
   8  -4 -10   -0.53    0.33
  -8   4  10    0.75    0.34
   7  -4 -10    1.48    0.35
   7  -4 -10    1.28    0.31
  -7   4  10    1.68    0.34
   6  -4 -10    1.76    0.28
   6  -4 -10    1.51    0.29
  -6   4  10    1.20    0.26
   5  -4 -10    5.58    0.46
   5  -4 -10    5.17    0.41
  -5   4  10    5.38    0.43
   4  -4 -10    1.98    0.26
   4  -4 -10    1.46    0.25
  -4   4  10    1.53    0.22
   3  -4 -10    1.12    0.23
   3  -4 -10    1.21    0.19
  -3   4  10    1.32    0.21
   2  -4 -10   37.82    1.71
   2  -4 -10   35.18    1.67
  -2   4  10   37.27    1.69
   1  -4 -10    0.40    0.23
   1  -4 -10    0.34    0.20
  -1   4  10    0.54    0.19
  -1   4  10    0.26    0.15
   0  -4 -10    0.97    0.26
   0  -4 -10    1.00    0.34
   0   4  10    1.01    0.20
   0   4  10    0.80    0.22
  -1  -4 -10    6.33    0.49
  -1  -4 -10    5.71    0.64
   1   4  10    6.33    0.43
   1   4  10    5.16    0.45
  -2  -4 -10   -0.16    0.24
  -2  -4 -10    0.04    0.44
   2   4  10   -0.04    0.18
   2   4  10   -0.17    0.22
  -3  -4 -10   14.27    1.21
   3   4  10   16.35    0.95
  -4  -4 -10   -0.44    0.71
   4   4  10   -0.16    0.37
  -9   5  10    0.66    0.39
   8  -5 -10    0.06    0.56
   8  -5 -10    0.31    0.35
  -8   5  10    0.48    0.29
   7  -5 -10    4.68    0.48
   7  -5 -10    4.86    0.57
  -7   5  10    4.32    0.46
   6  -5 -10    6.58    0.56
   6  -5 -10    6.88    0.50
  -6   5  10    6.55    0.51
   5  -5 -10    2.72    0.31
   5  -5 -10    2.88    0.35
  -5   5  10    3.03    0.35
   4  -5 -10    3.26    0.31
   4  -5 -10    3.81    0.43
  -4   5  10    3.37    0.35
   3  -5 -10    6.34    0.44
   3  -5 -10    6.34    0.50
  -3   5  10    5.74    0.69
   2  -5 -10   68.61    2.96
   2  -5 -10   59.32    2.91
  -2   5  10   69.87    2.94
   1  -5 -10    5.07    0.59
   1  -5 -10    7.76    0.76
  -1   5  10    7.92    0.51
   0  -5 -10    3.99    0.52
   0  -5 -10    4.80    0.49
   0   5  10    4.61    0.41
   0   5  10    4.48    0.46
  -1  -5 -10    1.65    0.32
  -1  -5 -10    0.31    0.48
   1   5  10    1.15    0.27
   1   5  10    1.49    0.26
  -2  -5 -10    4.22    0.49
  -2  -5 -10    3.85    0.68
   2   5  10    2.97    0.41
   2   5  10    4.75    0.45
  -3  -5 -10   10.31    1.22
   3   5  10    9.59    0.77
   8  -6 -10   -1.03    0.37
  -8   6  10   -0.60    0.27
   7  -6 -10   -0.21    0.33
  -7   6  10    0.12    0.27
   6  -6 -10    0.00    0.31
  -6   6  10    0.40    0.25
  -5   6  10    4.97    0.49
   4  -6 -10   -0.08    0.28
  -4   6  10    0.24    0.22
   3  -6 -10    1.17    0.30
  -3   6  10    1.04    0.28
   2  -6 -10    4.80    0.52
  -2   6  10    5.47    0.45
   1  -6 -10    2.13    0.35
  -1   6  10    2.51    0.35
   0  -6 -10   11.79    0.79
   0   6  10    9.85    0.75
   0   6  10   13.43    0.77
  -1  -6 -10   -0.17    0.31
   1   6  10    0.21    0.33
   1   6  10    0.09    0.28
  -2  -6 -10    9.71    0.79
   2   6  10    8.19    0.66
   2   6  10    7.70    0.66
   8  -7 -10    3.29    0.51
  -8   7  10    2.93    0.43
   7  -7 -10    2.10    0.44
  -7   7  10    2.52    0.40
   6  -7 -10    1.91    0.41
  -6   7  10    1.34    0.34
   5  -7 -10    2.40    0.42
  -5   7  10    2.09    0.35
   4  -7 -10    4.97    0.61
  -4   7  10    6.11    0.51
   3  -7 -10   35.26    1.78
  -3   7  10   37.73    1.77
   2  -7 -10    0.29    0.33
  -2   7  10    0.68    0.30
   1  -7 -10    0.31    0.33
  -1   7  10    0.45    0.28
   0  -7 -10   16.26    1.00
   0   7  10   15.11    0.94
   0   7  10   14.66    0.96
  -1  -7 -10    0.89    0.37
   1   7  10    1.47    0.39
   1   7  10    1.73    0.37
   7  -8 -10    2.41    0.51
  -7   8  10    2.30    0.43
   6  -8 -10    2.71    0.47
  -6   8  10    1.50    0.37
   5  -8 -10    0.32    0.38
  -5   8  10    1.53    0.39
   4  -8 -10    2.35    0.47
  -4   8  10    2.47    0.38
   3  -8 -10    1.12    0.40
  -3   8  10    1.72    0.41
   2  -8 -10    2.26    0.44
  -2   8  10    1.51    0.39
   1  -8 -10    5.43    0.64
  -1   8  10    7.17    0.70
   0   9 -11    3.30    0.87
   0   9 -11    4.12    0.52
   0  -9  11    3.25    0.89
  -1   9 -11    1.70    0.71
  -1   9 -11    2.43    0.45
   1  -9  11    1.83    0.72
  -2   9 -11    3.63    0.50
  -2   9 -11    3.08    0.80
   2  -9  11    3.44    0.86
  -3   9 -11    7.23    0.90
  -3   9 -11    7.84    0.80
   3  -9  11    7.30    0.98
  -4   9 -11   13.24    1.18
  -4   9 -11   11.17    1.00
   4  -9  11   10.90    1.21
   2   8 -11    4.91    0.63
  -2  -8  11    3.20    0.90
   1   8 -11    1.99    0.40
  -1  -8  11    2.42    0.79
   0   8 -11   31.02    1.54
   0  -8  11   28.68    1.89
  -1   8 -11    3.80    0.47
  -1   8 -11    3.91    0.74
   1  -8  11    3.83    0.73
  -2   8 -11   16.51    0.96
  -2   8 -11   13.98    1.24
   2  -8  11   14.29    1.26
  -3   8 -11    1.67    0.43
  -3   8 -11    1.61    0.61
   3  -8  11    2.37    0.66
  -4   8 -11    0.40    0.47
  -4   8 -11   -0.45    0.54
   4  -8  11    0.71    0.58
   4  -8  11    0.41    0.48
  -5   8 -11   -0.31    0.53
   5  -8  11   -0.58    0.53
   6  -8  11   -0.11    0.63
   3   7 -11    0.24    0.32
  -3  -7  11    2.18    0.75
  -2  -7  11    2.08    0.69
   1   7 -11    7.38    0.62
  -1  -7  11    8.72    1.07
   0   7 -11    2.81    0.36
   0  -7  11    2.39    0.69
  -1   7 -11    0.95    0.32
   1  -7  11    1.47    0.49
  -2   7 -11   37.66    1.80
   2  -7  11   35.69    2.00
  -3   7 -11    4.72    0.67
  -3   7 -11    5.09    0.61
   3  -7  11    5.11    0.63
   3  -7  11    5.09    0.67
  -4   7 -11   14.91    1.07
  -4   7 -11   14.29    1.12
   4  -7  11   16.80    1.17
   4  -7  11   17.14    1.12
  -5   7 -11   -0.03    0.41
   5  -7  11   -0.19    0.52
  -6   7 -11    0.88    0.63
   6  -7  11    0.40    0.58
   4   6 -11    2.05    0.42
  -4  -6  11    2.31    0.75
   3   6 -11    6.84    0.63
  -3  -6  11    8.40    0.95
   2   6 -11    6.67    0.55
  -2  -6  11    7.22    0.94
   1   6 -11   13.51    0.81
  -1  -6  11   13.89    1.07
   0   6 -11   -0.07    0.25
   0  -6  11    0.72    0.45
  -1   6 -11    8.41    0.59
   1  -6  11    7.07    0.90
  -2   6 -11   10.57    0.67
   2  -6  11    9.71    0.68
   2  -6  11    8.65    0.88
  -3   6 -11    0.41    0.26
   3  -6  11    0.05    0.35
   3  -6  11    0.34    0.39
  -4   6 -11    7.76    0.76
  -4   6 -11    7.50    0.77
   4  -6  11    7.49    0.80
   4  -6  11    8.93    0.82
  -5   6 -11    1.59    0.49
   5  -6  11    2.88    0.55
  -6   6 -11    7.76    0.96
   6  -6  11    9.18    0.97
  -7   6 -11    0.09    0.74
   7  -6  11   -0.27    0.57
   5   5 -11    4.20    0.60
  -5  -5  11    4.26    0.74
   4   5 -11   -0.15    0.34
  -4  -5  11    0.86    0.50
   3   5 -11    1.30    0.33
  -3  -5  11    1.08    0.54
   2   5 -11    1.85    0.33
  -2  -5  11    1.23    0.43
   1   5 -11    3.64    0.41
  -1  -5  11    2.29    0.48
   0   5 -11    3.12    0.35
   0  -5  11    2.54    0.47
  -1   5 -11   26.56    1.60
   1  -5  11   24.83    1.26
   1  -5  11   28.30    1.49
  -2   5 -11    6.91    0.53
   2  -5  11    5.99    0.56
   2  -5  11    7.35    0.72
  -3   5 -11    2.28    0.37
   3  -5  11    1.67    0.38
   3  -5  11    1.49    0.43
  -4   5 -11    7.41    0.74
  -4   5 -11    6.72    0.65
   4  -5  11    8.58    0.68
   4  -5  11    6.97    0.73
  -5   5 -11    2.02    0.53
   5  -5  11    1.75    0.49
  -6   5 -11    5.38    0.83
   6  -5  11    5.41    0.73
  -7   5 -11    3.24    0.84
   7  -5  11    1.40    0.65
   6   4 -11   13.46    0.99
  -6  -4  11   10.12    1.22
   5   4 -11    0.66    0.38
  -5  -4  11    0.19    0.50
   4   4 -11    0.46    0.29
  -4  -4  11    0.48    0.43
   3   4 -11    0.15    0.27
  -3  -4  11    0.05    0.34
   2   4 -11    5.46    0.45
  -2  -4  11    4.75    0.74
   1   4 -11    6.38    0.49
  -1  -4  11    5.88    0.67
   0   4 -11    0.56    0.22
   0  -4  11    0.82    0.19
   0  -4  11    0.53    0.28
  -1   4 -11    7.25    0.55
   1  -4  11    7.36    0.66
   1  -4  11    7.55    0.52
  -2   4 -11   11.40    0.74
   2  -4  11   12.13    0.82
   2  -4  11   12.07    0.76
  -3   4 -11   32.63    1.65
   3  -4  11   33.35    1.64
   3  -4  11   31.92    1.62
  -4   4 -11    8.41    0.74
   4  -4  11    9.64    0.79
   4  -4  11    8.36    0.67
  -5   4 -11    9.42    0.87
   5  -4  11    9.08    0.82
  -6   4 -11   10.28    1.14
   6  -4  11   10.08    0.95
  -7   4 -11    5.54    0.87
   7  -4  11    5.58    0.74
   7   3 -11    5.28    0.72
  -7  -3  11    5.02    0.74
   6   3 -11   11.74    0.83
  -6  -3  11    7.73    0.91
   5   3 -11    0.54    0.35
  -5  -3  11    0.69    0.42
   4   3 -11   14.71    0.89
  -4  -3  11   15.65    1.08
   3   3 -11    3.69    0.40
  -3  -3  11    3.96    0.51
   2   3 -11   10.93    0.66
  -2  -3  11    9.84    0.75
   1   3 -11    8.17    0.53
  -1  -3  11    8.20    0.65
  -1  -3  11    8.28    0.41
   0   3 -11   13.68    0.77
   0  -3  11   14.66    0.74
   0  -3  11   13.94    0.86
  -1   3 -11    0.17    0.19
   1  -3  11    0.54    0.28
   1  -3  11    0.23    0.21
  -2   3 -11   24.46    1.29
   2  -3  11   25.27    1.29
   2  -3  11   26.08    1.27
  -3   3 -11   12.08    1.04
   3  -3  11   16.00    0.89
   3  -3  11   14.74    0.87
  -4   3 -11    5.42    0.71
   4  -3  11    4.68    0.52
  -5   3 -11    8.53    0.87
   5  -3  11    9.73    0.80
  -6   3 -11    3.06    0.64
   6  -3  11    3.98    0.59
  -7   3 -11    1.90    0.73
   7  -3  11    3.42    0.64
   7   2 -11   10.99    0.94
  -7  -2  11   12.58    1.05
   6   2 -11    8.88    0.80
  -6  -2  11    7.67    0.83
   5   2 -11    2.63    0.43
  -5  -2  11    2.05    0.43
   4   2 -11    0.35    0.27
  -4  -2  11    0.00    0.29
   3   2 -11    4.39    0.41
  -3  -2  11    4.81    0.52
   2   2 -11    0.07    0.17
  -2  -2  11    0.25    0.27
   1   2 -11    3.40    0.36
  -1  -2  11    4.38    0.46
  -1  -2  11    3.88    0.30
  -1  -2  11    4.88    0.35
   0   2 -11   19.28    0.98
   0  -2  11   18.34    0.92
   0  -2  11   19.87    0.91
   0  -2  11   18.50    1.02
  -1   2 -11    4.25    0.38
   1  -2  11    3.95    0.37
   1  -2  11    3.52    0.40
  -2   2 -11    9.59    0.68
   2  -2  11    9.95    0.64
   2  -2  11    9.14    0.61
   3  -2  11    6.59    0.53
   3  -2  11    6.57    0.55
  -4   2 -11   11.66    0.91
   4  -2  11   11.96    0.81
  -5   2 -11   21.68    1.45
   5  -2  11   24.44    1.32
  -6   2 -11    3.85    0.79
   6  -2  11    4.27    0.57
  -7   2 -11    1.17    0.73
   7  -2  11    2.19    0.56
   8   1 -11   -1.03    0.55
  -8  -1  11    0.53    0.56
   7   1 -11    0.19    0.37
  -7  -1  11   -0.16    0.43
   6   1 -11    9.08    0.78
  -6  -1  11    9.39    0.85
   5   1 -11    7.15    0.61
  -5  -1  11    5.56    0.62
   4   1 -11   41.76    1.96
   3   1 -11    0.66    0.20
  -3  -1  11    0.28    0.24
   2   1 -11    0.61    0.18
  -2  -1  11    0.75    0.23
  -2  -1  11    0.76    0.26
  -2  -1  11    0.74    0.12
   1   1 -11   16.83    0.88
  -1  -1  11   16.20    0.92
  -1  -1  11   17.73    0.81
  -1  -1  11   17.02    0.81
   0   1 -11   29.70    1.43
   0  -1  11   29.83    1.36
   0  -1  11   29.61    1.43
  -1   1 -11   19.60    1.03
   1  -1  11   19.52    1.00
   1  -1  11   19.71    0.97
  -2   1 -11   19.62    1.09
   2  -1  11   18.67    0.98
   2  -1  11   19.51    0.98
  -3   1 -11   16.14    1.21
   3  -1  11   18.88    0.93
   3  -1  11   18.15    0.97
  -4   1 -11    2.56    0.50
   4  -1  11    2.50    0.39
  -5   1 -11   10.13    1.07
   5  -1  11    8.85    0.77
  -6   1 -11   -0.74    0.66
   6  -1  11    0.18    0.45
   8   0 -11    2.48    0.53
  -8   0  11    2.12    0.52
   7   0 -11    5.40    0.63
  -7   0  11    5.46    0.66
   6   0 -11    0.19    0.33
  -6   0  11    0.44    0.32
   5   0 -11   14.78    1.14
  -5   0  11   15.92    0.93
   4   0 -11   13.82    0.77
  -4   0  11   13.24    0.83
   3   0 -11    3.63    0.37
  -3   0  11    3.11    0.42
  -3   0  11    4.38    0.25
   2   0 -11   23.28    1.11
  -2   0  11   22.92    1.07
  -2   0  11   22.69    1.02
  -2   0  11   21.61    1.14
   1   0 -11    6.33    0.44
  -1   0  11    6.58    0.39
  -1   0  11    6.90    0.47
   0   0 -11    0.74    0.20
   0   0  11    0.80    0.15
   0   0  11    0.40    0.17
  -1   0 -11    7.44    0.57
   1   0  11    7.23    0.46
   1   0  11    6.87    0.45
  -2   0 -11    0.15    0.28
   2   0  11    0.05    0.16
   2   0  11    0.07    0.18
  -3   0 -11   13.70    1.40
   3   0  11   15.12    0.78
   3   0  11   15.04    0.85
  -4   0 -11    5.54    0.75
   4   0  11    7.27    0.60
  -5   0 -11   15.91    1.24
   5   0  11   15.77    0.98
  -6   0 -11    3.24    0.82
   6   0  11    4.55    0.63
   8  -1 -11    0.31    0.45
  -8   1  11    0.32    0.44
   7  -1 -11   15.52    0.96
  -7   1  11   15.54    1.03
   6  -1 -11   10.14    0.72
  -6   1  11    8.89    0.73
   5  -1 -11   46.62    2.14
  -5   1  11   45.47    2.17
   4  -1 -11    0.07    0.11
   4  -1 -11    0.03    0.19
  -4   1  11    0.13    0.20
  -4   1  11   -0.09    0.10
   3  -1 -11    1.22    0.21
   3  -1 -11    1.29    0.16
  -3   1  11    1.55    0.26
  -3   1  11    1.41    0.16
   2  -1 -11   -0.04    0.13
   2  -1 -11    0.08    0.14
  -2   1  11   -0.03    0.11
  -2   1  11    0.08    0.17
   1  -1 -11   -0.20    0.13
   1  -1 -11    0.05    0.17
  -1   1  11    0.25    0.16
  -1   1  11   -0.08    0.12
   0  -1 -11    2.93    0.34
   0   1  11    3.26    0.30
   0   1  11    2.95    0.28
  -1  -1 -11    2.95    0.36
   1   1  11    2.97    0.29
   1   1  11    2.96    0.31
  -2  -1 -11    2.06    0.40
   2   1  11    1.61    0.22
   2   1  11    1.86    0.27
   3   1  11    1.05    0.24
   3   1  11    1.39    0.22
  -4  -1 -11   11.47    1.06
   4   1  11   10.04    0.76
  -5  -1 -11    4.10    0.82
   5   1  11    4.75    0.57
  -6  -1 -11    5.31    1.01
   6   1  11    8.03    0.85
   8  -2 -11   -0.03    0.40
  -8   2  11   -0.24    0.36
   7  -2 -11    1.64    0.40
  -7   2  11    2.10    0.40
   6  -2 -11    8.59    0.64
  -6   2  11    9.12    0.69
   5  -2 -11   18.21    0.95
   5  -2 -11   17.70    0.87
  -5   2  11   17.78    1.00
   4  -2 -11   12.58    0.70
   4  -2 -11   12.24    0.65
  -4   2  11   12.91    0.75
   3  -2 -11   29.04    1.36
   3  -2 -11   30.47    1.40
  -3   2  11   29.68    1.42
   2  -2 -11    7.44    0.45
   2  -2 -11    7.85    0.48
  -2   2  11    6.82    0.42
  -2   2  11    6.93    0.48
   1  -2 -11    2.46    0.30
   1  -2 -11    2.22    0.29
  -1   2  11    2.17    0.25
  -1   2  11    2.08    0.26
   0  -2 -11   -0.15    0.21
   0  -2 -11   -0.19    0.16
   0   2  11    0.00    0.14
   0   2  11   -0.22    0.15
  -1  -2 -11   10.74    0.75
   1   2  11   11.49    0.62
   1   2  11    9.89    0.58
  -2  -2 -11   -0.07    0.38
   2   2  11    0.34    0.38
   2   2  11    0.06    0.15
  -3  -2 -11    2.75    0.60
   3   2  11    2.49    0.37
  -4  -2 -11    6.64    0.86
   4   2  11    6.10    0.64
  -5  -2 -11    2.74    0.79
   5   2  11    2.64    0.51
   8  -3 -11    0.46    0.40
  -8   3  11    0.33    0.36
   7  -3 -11   11.43    0.78
  -7   3  11   11.25    0.78
   6  -3 -11   15.40    0.88
   6  -3 -11   15.85    0.84
  -6   3  11   15.48    0.91
   5  -3 -11    7.56    0.51
   5  -3 -11    6.36    0.50
  -5   3  11    7.84    0.56
   4  -3 -11   -0.15    0.18
   4  -3 -11    0.27    0.17
   3  -3 -11   12.81    0.70
   3  -3 -11   12.88    0.70
  -3   3  11   13.18    0.73
   2  -3 -11    1.15    0.22
   2  -3 -11    0.97    0.20
  -2   3  11    1.10    0.19
  -2   3  11    1.54    0.23
   1  -3 -11   25.61    1.22
   1  -3 -11   23.34    1.22
  -1   3  11   25.27    1.20
  -1   3  11   25.70    1.20
   0  -3 -11   10.02    0.70
   0  -3 -11   11.09    0.66
   0   3  11   10.82    0.59
   0   3  11    9.76    0.62
  -1  -3 -11    0.56    0.37
  -1  -3 -11    1.56    0.39
   1   3  11    0.96    0.29
   1   3  11    0.80    0.19
  -2  -3 -11    0.32    0.45
   2   3  11    0.31    0.26
   2   3  11    0.56    0.18
  -3  -3 -11    0.52    0.58
   3   3  11    0.43    0.30
  -4  -3 -11    7.67    0.98
   4   3  11    7.37    0.71
   8  -4 -11    3.84    0.51
  -8   4  11    4.79    0.58
   7  -4 -11    1.06    0.33
  -7   4  11    1.14    0.30
   6  -4 -11    7.74    0.56
   6  -4 -11    6.24    0.53
  -6   4  11    5.62    0.56
   5  -4 -11    5.69    0.51
   5  -4 -11    6.63    0.46
  -5   4  11    5.58    0.50
   4  -4 -11   20.40    1.02
   4  -4 -11   21.77    1.08
  -4   4  11   21.04    1.07
   3  -4 -11    3.07    0.33
   3  -4 -11    3.21    0.37
  -3   4  11    3.22    0.41
   2  -4 -11    0.56    0.22
   2  -4 -11    0.35    0.21
  -2   4  11    0.36    0.20
   1  -4 -11    2.71    0.33
   1  -4 -11    2.09    0.33
  -1   4  11    1.89    0.26
  -1   4  11    1.56    0.25
   0  -4 -11   14.26    0.96
   0  -4 -11   14.94    0.89
   0   4  11   14.91    0.86
   0   4  11   16.38    0.81
  -1  -4 -11    1.35    0.47
  -1  -4 -11    1.16    0.30
   1   4  11    1.30    0.29
   1   4  11    1.36    0.23
  -2  -4 -11    0.89    0.55
   2   4  11    1.04    0.23
   2   4  11    1.31    0.34
  -3  -4 -11    1.18    0.66
   3   4  11    1.24    0.39
  -4  -4 -11    0.67    0.77
   4   4  11    0.40    0.41
  -8   5  11    2.47    0.44
   7  -5 -11    1.45    0.38
  -7   5  11    0.95    0.31
   6  -5 -11   25.76    1.31
  -6   5  11   25.36    1.32
   5  -5 -11    5.01    0.55
   5  -5 -11    5.68    0.48
  -5   5  11    5.74    0.52
   4  -5 -11   18.34    0.97
   4  -5 -11   21.41    1.07
  -4   5  11   20.40    1.06
   3  -5 -11    1.83    0.29
   3  -5 -11    1.89    0.29
  -3   5  11    1.80    0.30
   2  -5 -11   39.68    1.99
  -2   5  11   46.35    2.00
   1  -5 -11    1.48    0.40
   1  -5 -11    1.37    0.30
  -1   5  11    2.01    0.30
  -1   5  11    1.48    0.25
   0  -5 -11    0.79    0.33
   0  -5 -11    0.80    0.44
   0   5  11    0.36    0.26
  -1  -5 -11    0.00    0.31
   1   5  11    0.19    0.26
   1   5  11    0.31    0.25
  -2  -5 -11   -0.05    0.37
   2   5  11    0.41    0.35
   3   5  11    1.54    0.41
  -8   6  11    3.28    0.52
   7  -6 -11    5.94    0.67
  -7   6  11    6.90    0.64
   6  -6 -11    1.29    0.36
  -6   6  11    1.23    0.31
   5  -6 -11    0.88    0.35
  -5   6  11    0.86    0.31
   4  -6 -11    9.76    0.72
  -4   6  11   10.14    0.65
   3  -6 -11    2.52    0.38
  -3   6  11    2.48    0.34
   2  -6 -11    0.81    0.29
  -2   6  11    0.88    0.28
   1  -6 -11   -0.29    0.30
  -1   6  11    0.60    0.28
  -1   6  11   -0.01    0.27
   0  -6 -11    0.20    0.28
   0   6  11   -0.50    0.25
   0   6  11   -0.29    0.26
  -1  -6 -11   14.82    1.01
   1   6  11   15.69    0.88
   1   6  11   13.44    0.94
   7  -7 -11    0.96    0.43
  -7   7  11    1.05    0.37
   6  -7 -11    4.02    0.53
  -6   7  11    4.99    0.60
   5  -7 -11    4.09    0.50
  -5   7  11    3.16    0.39
   4  -7 -11   34.77    1.75
  -4   7  11   35.02    1.72
   3  -7 -11    4.97    0.53
  -3   7  11    4.75    0.57
   2  -7 -11    0.26    0.35
  -2   7  11    0.33    0.27
   1  -7 -11    4.53    0.54
  -1   7  11    4.80    0.57
  -1   7  11    4.87    0.58
   0  -7 -11   11.61    0.86
   0   7  11    8.18    0.78
   0   7  11   11.33    0.78
   5  -8 -11    1.11    0.42
  -5   8  11    1.26    0.37
   4  -8 -11    3.33    0.53
  -4   8  11    3.59    0.47
   3  -8 -11   -0.09    0.38
  -3   8  11    0.97    0.35
   2  -8 -11    6.06    0.65
  -2   8  11    6.38    0.67
   1   8 -12   37.67    1.82
  -1  -8  12   34.82    2.28
   0   8 -12    2.42    0.45
   0  -8  12    2.55    0.74
  -1   8 -12   10.65    0.84
  -1   8 -12   12.70    1.25
   1  -8  12   10.35    1.26
  -2   8 -12    1.11    0.39
  -2   8 -12   -0.35    0.66
   2  -8  12    1.62    0.75
  -3   8 -12    2.20    0.49
  -3   8 -12    1.82    0.70
   3  -8  12    1.17    0.70
  -4   8 -12    0.50    0.52
   4  -8  12   -0.92    0.65
   3   7 -12    0.56    0.45
  -3  -7  12    1.33    0.80
   2   7 -12   10.78    0.80
  -2  -7  12   10.84    1.30
   1   7 -12    0.36    0.33
  -1  -7  12    0.68    0.58
   0   7 -12    2.09    0.39
   0  -7  12    1.84    0.68
  -1   7 -12   10.91    0.74
   1  -7  12   10.77    1.05
  -2   7 -12   12.78    0.85
   2  -7  12   10.87    1.12
  -3   7 -12    0.60    0.59
  -3   7 -12    2.25    0.48
   3  -7  12    1.77    0.61
  -4   7 -12   -0.45    0.44
   4  -7  12    0.50    0.57
   4  -7  12    0.55    0.49
  -5   7 -12    0.64    0.58
   5  -7  12   -0.98    0.56
   4   6 -12    4.87    0.60
  -4  -6  12    5.11    0.92
   3   6 -12   -0.14    0.32
  -3  -6  12    0.28    0.57
   2   6 -12   23.01    1.21
  -2  -6  12   20.50    1.47
   1   6 -12    2.52    0.39
  -1  -6  12    2.51    0.62
   0   6 -12   18.32    1.03
   0  -6  12   19.39    1.27
  -1   6 -12    2.56    0.42
   1  -6  12    3.43    0.62
  -2   6 -12    4.97    0.58
   2  -6  12    4.34    0.74
  -3   6 -12    0.63    0.34
   3  -6  12    0.41    0.41
   3  -6  12   -0.80    0.46
  -4   6 -12    0.04    0.44
   4  -6  12    0.64    0.51
  -5   6 -12    0.11    0.54
   5  -6  12   -0.34    0.51
  -6   6 -12    2.00    0.72
   6  -6  12    1.07    0.64
   5   5 -12    0.20    0.46
  -5  -5  12    1.18    0.72
   4   5 -12    1.66    0.41
  -4  -5  12    0.41    0.63
   3   5 -12    1.88    0.36
  -3  -5  12    1.44    0.50
   2   5 -12    7.09    0.55
  -2  -5  12    6.95    0.79
   1   5 -12    0.59    0.24
  -1  -5  12    0.23    0.40
   0   5 -12   31.45    1.50
   0  -5  12   28.72    1.69
  -1   5 -12    0.49    0.24
   1  -5  12   -0.05    0.39
  -2   5 -12   22.47    1.19
   2  -5  12   22.27    1.31
   2  -5  12   21.08    1.18
  -3   5 -12    2.03    0.44
   3  -5  12    2.67    0.51
   3  -5  12    2.29    0.42
  -4   5 -12    1.51    0.45
   4  -5  12    1.85    0.48
  -5   5 -12   -0.29    0.53
   5  -5  12   -0.84    0.48
  -6   5 -12    0.57    0.58
   6  -5  12    0.23    0.56
   6   4 -12   -0.81    0.42
  -6  -4  12    0.09    0.66
   5   4 -12    3.98    0.55
  -5  -4  12    3.75    0.69
   4   4 -12    5.60    0.56
  -4  -4  12    4.12    0.65
   3   4 -12    8.40    0.66
  -3  -4  12    7.30    0.83
   2   4 -12    3.67    0.44
  -2  -4  12    3.39    0.57
   1   4 -12    8.65    0.57
  -1  -4  12    7.39    0.93
   0   4 -12    8.60    0.58
   0  -4  12    7.56    0.73
  -1   4 -12    0.07    0.20
   1  -4  12    0.62    0.27
   1  -4  12   -0.13    0.34
  -2   4 -12    9.77    0.72
   2  -4  12    9.19    0.71
   2  -4  12    9.74    0.78
  -3   4 -12    0.09    0.34
   3  -4  12    0.43    0.36
   3  -4  12    0.09    0.34
  -4   4 -12   10.01    0.93
   4  -4  12   11.27    0.86
  -5   4 -12    3.13    0.60
   5  -4  12    2.55    0.56
  -6   4 -12    0.98    0.67
   6  -4  12    0.06    0.54
   6   3 -12    3.18    0.56
  -6  -3  12    1.72    0.72
   5   3 -12   10.05    0.72
  -5  -3  12    7.96    0.99
   4   3 -12    1.44    0.32
  -4  -3  12    1.10    0.42
   3   3 -12    4.30    0.47
  -3  -3  12    3.76    0.52
   2   3 -12    0.51    0.23
  -2  -3  12    0.61    0.32
   1   3 -12    6.02    0.47
  -1  -3  12    5.23    0.60
   0  -3  12   25.22    1.34
  -1   3 -12    8.59    0.64
   1  -3  12    9.36    0.72
   1  -3  12    8.62    0.62
  -2   3 -12    1.11    0.30
   2  -3  12    0.85    0.29
   2  -3  12    0.79    0.34
  -3   3 -12    2.57    0.42
   3  -3  12    2.50    0.39
   3  -3  12    2.44    0.39
  -4   3 -12    6.00    0.73
  -5   3 -12    2.42    0.61
   5  -3  12    2.42    0.51
  -6   3 -12    0.87    0.73
   6  -3  12   -0.57    0.47
   7   2 -12   -0.10    0.46
  -7  -2  12   -0.32    0.61
   6   2 -12    0.02    0.42
  -6  -2  12    0.36    0.44
   5   2 -12    1.13    0.36
  -5  -2  12    1.53    0.46
   4   2 -12    0.09    0.27
  -4  -2  12    0.15    0.37
   3   2 -12   33.80    1.61
  -3  -2  12   32.08    1.70
   2   2 -12    2.74    0.47
  -2  -2  12    2.81    0.43
   1   2 -12   14.86    0.82
  -1  -2  12   15.23    0.74
  -1  -2  12   13.95    0.89
   0   2 -12    4.20    0.38
   0  -2  12    4.50    0.50
   0  -2  12    4.71    0.39
  -1   2 -12    5.56    0.52
   1  -2  12    6.38    0.50
   1  -2  12    6.10    0.53
  -2   2 -12   30.92    1.58
   2  -2  12   30.44    1.51
   2  -2  12   30.45    1.50
  -3   2 -12   33.36    1.77
   3  -2  12   33.48    1.63
   3  -2  12   34.31    1.66
  -4   2 -12    1.49    0.54
   4  -2  12    2.48    0.41
  -5   2 -12    5.27    0.85
   5  -2  12    5.50    0.67
  -6   2 -12    5.29    0.96
   6  -2  12    5.70    0.68
   7   1 -12   -0.41    0.43
  -7  -1  12   -0.47    0.49
   6   1 -12    1.40    0.37
  -6  -1  12    0.96    0.43
   5   1 -12   -0.02    0.24
  -5  -1  12   -0.33    0.31
   4   1 -12   -0.08    0.26
  -4  -1  12   -0.41    0.32
   3   1 -12   17.22    0.94
   2   1 -12    3.30    0.37
  -2  -1  12    3.03    0.42
  -2  -1  12    3.76    0.29
   1   1 -12    6.04    0.47
  -1  -1  12    5.34    0.49
  -1  -1  12    6.05    0.40
   0   1 -12   16.15    0.89
   0  -1  12   16.33    0.91
   0  -1  12   16.83    0.83
  -1   1 -12   19.58    1.03
   1  -1  12   19.27    0.95
   1  -1  12   17.66    0.99
  -2   1 -12    4.82    0.66
   2  -1  12    4.34    0.43
   2  -1  12    5.20    0.47
  -3   1 -12    2.12    0.44
   3  -1  12    2.57    0.35
   3  -1  12    2.58    0.35
  -4   1 -12   14.17    1.09
   4  -1  12   14.27    0.91
  -5   1 -12    9.64    1.04
   5  -1  12    9.72    0.85
  -6   1 -12   -0.09    0.67
   6  -1  12   -0.08    0.47
   8   0 -12    8.73    0.94
  -8   0  12    9.01    1.05
   7   0 -12    0.27    0.43
  -7   0  12    0.18    0.48
   6   0 -12    0.79    0.34
  -6   0  12    0.68    0.35
   5   0 -12   21.86    1.16
  -5   0  12   21.44    1.24
   4   0 -12   12.09    0.82
  -4   0  12   11.68    0.78
   3   0 -12    1.45    0.25
  -3   0  12    1.37    0.30
   2   0 -12   11.39    0.65
  -2   0  12   10.17    0.54
  -2   0  12   10.16    0.68
   1   0 -12    0.29    0.19
  -1   0  12    0.37    0.15
  -1   0  12    0.09    0.20
   0   0 -12    2.92    0.38
   0   0  12    3.27    0.31
   0   0  12    2.94    0.35
  -1   0 -12   12.75    0.79
   1   0  12   12.09    0.71
   1   0  12   12.86    0.71
   2   0  12    5.65    0.44
   2   0  12    4.81    0.45
  -3   0 -12   23.23    1.43
   3   0  12   24.21    1.24
  -4   0 -12   11.05    1.08
   4   0  12   10.32    0.78
  -5   0 -12    2.19    0.75
   5   0  12    1.31    0.41
   8  -1 -12    3.39    0.52
  -8   1  12    2.78    0.63
   7  -1 -12    2.35    0.41
  -7   1  12    2.04    0.42
   6  -1 -12   23.87    1.23
  -6   1  12   22.49    1.31
   5  -1 -12    0.29    0.30
  -5   1  12   -0.06    0.28
   4  -1 -12    4.14    0.41
  -4   1  12    4.12    0.48
   3  -1 -12   -0.11    0.18
   3  -1 -12   -0.03    0.14
  -3   1  12   -0.07    0.21
  -3   1  12   -0.26    0.12
   2  -1 -12    3.48    0.30
   2  -1 -12    4.46    0.39
  -2   1  12    4.41    0.42
  -2   1  12    3.36    0.30
   1  -1 -12    9.69    0.63
  -1   1  12   10.50    0.63
  -1   1  12   10.13    0.55
   0  -1 -12   21.29    1.10
   0   1  12   20.92    1.04
   0   1  12   20.39    1.01
  -1  -1 -12    9.08    0.71
   1   1  12    9.33    0.58
   1   1  12    8.85    0.56
   2   1  12    2.61    0.35
   2   1  12    3.00    0.35
  -3  -1 -12   13.23    1.08
   3   1  12   13.59    0.85
  -4  -1 -12    0.74    0.63
   4   1  12   -0.12    0.33
  -5  -1 -12   13.24    1.41
   5   1  12   13.22    1.00
   8  -2 -12    3.41    0.57
  -8   2  12    4.05    0.60
   7  -2 -12   14.58    0.94
  -7   2  12   14.12    0.95
   6  -2 -12    6.60    0.59
  -6   2  12    5.60    0.63
   5  -2 -12    0.70    0.26
  -5   2  12    0.56    0.27
   4  -2 -12    3.90    0.39
   4  -2 -12    3.86    0.34
  -4   2  12    4.14    0.32
  -4   2  12    4.38    0.44
   3  -2 -12    2.21    0.29
   3  -2 -12    2.59    0.29
  -3   2  12    2.29    0.27
   2  -2 -12    4.89    0.37
   2  -2 -12    3.84    0.40
  -2   2  12    4.87    0.38
  -2   2  12    4.37    0.35
   1  -2 -12    0.43    0.22
   1  -2 -12    0.33    0.19
  -1   2  12    0.05    0.16
  -1   2  12    0.21    0.16
   0  -2 -12   -0.09    0.27
   0   2  12    0.40    0.18
   0   2  12   -0.06    0.17
  -1  -2 -12   13.13    0.93
   1   2  12   14.91    0.79
   1   2  12   14.25    0.75
   2   2  12   20.76    1.11
   2   2  12   21.41    1.03
  -3  -2 -12   10.69    0.98
   3   2  12   12.96    0.80
  -4  -2 -12    4.41    0.81
   4   2  12    5.31    0.59
   8  -3 -12    0.77    0.42
  -8   3  12    1.42    0.49
   7  -3 -12   21.79    1.16
  -7   3  12   20.57    1.20
   6  -3 -12    0.06    0.28
  -6   3  12    0.69    0.30
   5  -3 -12    2.80    0.34
   5  -3 -12    2.58    0.30
  -5   3  12    3.93    0.47
   4  -3 -12    3.98    0.37
   4  -3 -12    3.72    0.40
  -4   3  12    3.62    0.39
   3  -3 -12    2.97    0.38
   3  -3 -12    3.79    0.39
  -3   3  12    3.47    0.35
  -3   3  12    4.05    0.42
   2  -3 -12    4.96    0.42
   2  -3 -12    4.87    0.44
  -2   3  12    4.36    0.39
  -2   3  12    3.85    0.41
   1  -3 -12    2.33    0.31
   1  -3 -12    2.45    0.34
  -1   3  12    2.73    0.33
  -1   3  12    2.37    0.29
   0  -3 -12    1.17    0.35
   0  -3 -12    1.16    0.26
   0   3  12    0.48    0.22
   0   3  12    0.44    0.20
  -1  -3 -12    4.25    0.58
   1   3  12    3.77    0.38
   1   3  12    5.05    0.46
  -2  -3 -12    1.96    0.58
   2   3  12    1.66    0.25
   2   3  12    1.61    0.33
  -3  -3 -12   14.75    1.28
   3   3  12   15.51    0.97
  -4  -3 -12   23.43    1.81
   4   3  12   26.61    1.43
   8  -4 -12    5.55    0.66
  -8   4  12    6.88    0.77
   7  -4 -12    6.85    0.64
  -7   4  12    7.49    0.70
   6  -4 -12    1.41    0.33
   6  -4 -12    1.83    0.32
  -6   4  12    1.82    0.35
   5  -4 -12   14.45    0.80
   5  -4 -12   15.01    0.85
  -5   4  12   14.57    0.88
   4  -4 -12    0.57    0.24
   4  -4 -12    0.51    0.26
  -4   4  12    1.08    0.25
   3  -4 -12    4.08    0.41
   3  -4 -12    3.47    0.44
  -3   4  12    3.66    0.41
   2  -4 -12    2.62    0.34
   2  -4 -12    3.00    0.37
  -2   4  12    2.94    0.37
  -2   4  12    4.10    0.41
   1  -4 -12    5.93    0.58
   1  -4 -12    5.77    0.62
  -1   4  12    5.80    0.47
  -1   4  12    5.38    0.54
   0  -4 -12    8.99    0.67
   0  -4 -12    8.34    0.79
   0   4  12    8.19    0.55
   0   4  12    7.80    0.59
  -1  -4 -12    0.14    0.32
  -1  -4 -12    0.50    0.52
   1   4  12    0.05    0.27
   1   4  12    0.78    0.23
  -2  -4 -12   -0.15    0.61
   2   4  12   -0.11    0.28
  -3  -4 -12    1.40    0.82
   3   4  12    2.28    0.45
  -7   5  12    8.47    0.75
   6  -5 -12    3.72    0.46
  -6   5  12    3.76    0.48
   5  -5 -12    5.97    0.57
  -5   5  12    5.44    0.54
   4  -5 -12    0.15    0.46
  -4   5  12   -0.25    0.21
   3  -5 -12   18.25    1.01
  -3   5  12   17.95    0.99
   2  -5 -12    3.38    0.43
  -2   5  12    3.39    0.38
  -2   5  12    3.79    0.41
   1  -5 -12    2.66    0.39
  -1   5  12    2.86    0.35
  -1   5  12    2.32    0.34
   0  -5 -12    2.02    0.41
   0   5  12    2.16    0.31
   0   5  12    1.97    0.38
  -1  -5 -12    0.39    0.35
   1   5  12   -0.03    0.27
   1   5  12   -0.10    0.33
   2   5  12   12.59    0.85
   7  -6 -12    1.29    0.46
  -7   6  12   -0.08    0.38
   6  -6 -12    1.22    0.42
  -6   6  12    1.12    0.34
   5  -6 -12    7.51    0.72
  -5   6  12    7.26    0.63
   4  -6 -12    1.35    0.33
  -4   6  12    2.02    0.37
   3  -6 -12    1.36    0.38
  -3   6  12    0.20    0.26
   2  -6 -12   13.97    0.89
  -2   6  12   12.77    0.84
  -2   6  12   13.13    0.80
   1  -6 -12    2.11    0.37
  -1   6  12    1.28    0.32
  -1   6  12    1.69    0.33
   0  -6 -12   -0.05    0.38
   0   6  12    0.24    0.29
   0   6  12    0.16    0.34
   6  -7 -12    7.00    0.83
  -6   7  12    9.78    0.70
   5  -7 -12   -0.59    0.39
  -5   7  12    0.29    0.34
   4  -7 -12   20.01    1.19
  -4   7  12   19.72    1.14
   3  -7 -12    0.57    0.40
  -3   7  12    0.89    0.38
   2  -7 -12    0.72    0.38
  -2   7  12   -0.18    0.34
  -2   7  12    0.57    0.35
   1  -7 -12    0.18    0.41
  -1   8 -13    0.69    0.40
   1  -8  13   -0.46    0.76
  -2   8 -13    2.90    0.53
  -2   8 -13    2.76    0.79
   2  -8  13    2.13    0.78
   2   7 -13    0.47    0.38
  -2  -7  13    0.34    0.79
   1   7 -13    3.88    0.53
  -1  -7  13    3.19    0.84
   0  -7  13    1.30    0.70
  -1   7 -13    7.48    0.69
   1  -7  13    5.80    0.99
  -2   7 -13    3.55    0.52
   2  -7  13    1.97    0.68
  -3   7 -13    0.82    0.47
  -3   7 -13    1.04    0.61
   3  -7  13    0.68    0.58
  -4   7 -13    0.08    0.54
   3   6 -13   31.46    1.63
  -3  -6  13   30.40    1.95
   2   6 -13    7.15    0.66
  -2  -6  13    5.04    0.84
   1   6 -13   20.94    1.16
  -1  -6  13   20.94    1.51
   0  -6  13    2.11    0.58
   1  -6  13    0.37    0.56
  -2   6 -13    2.32    0.46
   2  -6  13    1.76    0.63
  -3   6 -13   -0.59    0.37
   3  -6  13    0.05    0.59
  -4   6 -13    0.79    0.56
   4  -6  13    0.74    0.54
  -5   6 -13    0.89    0.57
   5  -6  13   -0.18    0.57
   4   5 -13    3.34    0.48
  -4  -5  13    1.64    0.73
   3   5 -13    0.75    0.30
  -3  -5  13    0.77    0.62
   2   5 -13    5.87    0.55
  -2  -5  13    6.71    0.83
   1   5 -13   12.55    0.78
  -1  -5  13   11.79    1.06
   0   5 -13   16.38    0.96
   0  -5  13   15.23    1.15
  -1   5 -13    6.79    0.58
   1  -5  13    7.86    0.84
  -2   5 -13    0.08    0.33
   2  -5  13    0.55    0.47
  -3   5 -13    0.60    0.42
   3  -5  13    0.44    0.42
   3  -5  13   -0.02    0.47
  -4   5 -13    0.31    0.48
   4  -5  13   -0.48    0.49
  -5   5 -13   -0.06    0.57
   5  -5  13   -0.86    0.55
   5   4 -13    1.00    0.44
  -5  -4  13   -0.56    0.65
   4   4 -13   24.28    1.28
  -4  -4  13   20.83    1.56
   3   4 -13   -0.32    0.25
  -3  -4  13   -0.24    0.43
   2   4 -13    5.55    0.50
  -2  -4  13    6.65    0.76
   1   4 -13    4.21    0.45
  -1  -4  13    3.66    0.61
   0   4 -13   11.38    0.71
   0  -4  13   10.60    0.91
  -1   4 -13    2.42    0.36
   1  -4  13    1.42    0.46
  -2   4 -13    0.40    0.31
   2  -4  13   -0.62    0.36
   2  -4  13   -0.05    0.39
  -3   4 -13    0.78    0.43
   3  -4  13    0.21    0.39
   3  -4  13    0.22    0.42
  -4   4 -13    3.07    0.63
   4  -4  13    2.17    0.53
  -5   4 -13   -0.16    0.61
   5  -4  13    0.48    0.52
   6   3 -13    2.48    0.49
  -6  -3  13    1.30    0.74
   5   3 -13    3.21    0.50
  -5  -3  13    2.21    0.59
   4   3 -13    8.68    0.74
  -4  -3  13    9.75    0.90
   3   3 -13    3.49    0.45
  -3  -3  13    1.87    0.45
   2   3 -13   38.07    1.82
  -2  -3  13   38.19    1.97
   1   3 -13    8.97    0.63
  -1  -3  13    8.26    0.75
   0   3 -13   10.80    0.72
   0  -3  13   11.06    0.84
  -1   3 -13    3.87    0.42
   1  -3  13    3.52    0.51
   1  -3  13    3.66    0.42
  -2   3 -13    1.76    0.35
   2  -3  13    1.65    0.39
   2  -3  13    1.87    0.39
  -3   3 -13    6.89    0.75
   3  -3  13    5.40    0.64
   3  -3  13    6.17    0.69
  -4   3 -13    0.46    0.45
   4  -3  13    0.42    0.38
  -5   3 -13    7.70    0.97
   5  -3  13    6.10    0.71
   6   2 -13    0.90    0.41
  -6  -2  13    0.59    0.55
   5   2 -13    8.49    0.70
  -5  -2  13    9.55    0.95
   4   2 -13    1.29    0.31
  -4  -2  13    0.39    0.42
   3   2 -13    2.50    0.35
  -3  -2  13    2.05    0.43
   2   2 -13   14.04    0.81
  -2  -2  13   13.63    0.90
   1   2 -13    0.54    0.24
  -1  -2  13    0.68    0.32
   0   2 -13   26.85    1.34
   0  -2  13   24.57    1.37
   0  -2  13   26.44    1.26
  -1   2 -13   10.23    0.72
   1  -2  13   11.03    0.76
   1  -2  13   10.34    0.69
  -2   2 -13    3.98    0.53
   2  -2  13    3.37    0.44
   2  -2  13    3.72    0.42
  -3   2 -13    1.95    0.45
   3  -2  13    2.92    0.42
  -4   2 -13    1.01    0.54
   4  -2  13    0.82    0.37
  -5   2 -13    9.27    1.21
   5  -2  13   10.00    0.87
   7   1 -13   -0.42    0.40
  -7  -1  13    0.23    0.64
   6   1 -13    0.80    0.40
  -6  -1  13    1.33    0.49
   5   1 -13    6.40    0.63
  -5  -1  13    5.86    0.71
   4   1 -13    0.39    0.25
  -4  -1  13    0.19    0.36
   3   1 -13    8.97    0.61
  -3  -1  13    8.11    0.74
   2   1 -13    4.01    0.40
  -2  -1  13    3.83    0.47
   1   1 -13   -0.12    0.22
  -1  -1  13   -0.10    0.21
  -1  -1  13    0.19    0.19
   0   1 -13    8.74    0.60
   0  -1  13    7.43    0.62
   0  -1  13    9.01    0.55
  -1   1 -13    3.38    0.43
   1  -1  13    2.70    0.39
   1  -1  13    2.84    0.34
  -2   1 -13   13.37    0.95
   2  -1  13   14.02    0.84
   2  -1  13   12.94    0.81
  -3   1 -13    0.46    0.46
   3  -1  13    0.70    0.31
  -4   1 -13    1.23    0.63
   4  -1  13    1.16    0.39
  -5   1 -13    2.21    0.70
   5  -1  13    1.75    0.50
   7   0 -13    1.39    0.48
  -7   0  13    2.08    0.65
   6   0 -13    6.27    0.67
  -6   0  13    4.70    0.67
   5   0 -13    7.14    0.62
  -5   0  13    7.06    0.73
   4   0 -13    0.04    0.24
  -4   0  13   -0.36    0.31
   3   0 -13   15.12    0.85
  -3   0  13   14.48    0.92
  -2   0  13    4.36    0.38
   1   0 -13   24.72    1.28
  -1   0  13   23.19    1.21
  -1   0  13   23.04    1.11
   0   0  13    2.25    0.28
   0   0  13    2.55    0.33
  -1   0 -13    6.74    0.64
   1   0  13    6.11    0.49
   1   0  13    5.31    0.47
  -2   0 -13    4.79    0.61
   2   0  13    4.42    0.48
   2   0  13    4.86    0.49
  -3   0 -13    3.68    0.58
   3   0  13    3.05    0.41
  -4   0 -13    9.62    1.05
   4   0  13   10.17    0.79
  -5   0 -13    0.56    0.70
   5   0  13    0.45    0.45
   7  -1 -13    0.19    0.40
  -7   1  13    0.23    0.41
   6  -1 -13    6.50    0.64
  -6   1  13    5.90    0.66
   5  -1 -13    0.34    0.28
  -5   1  13    0.24    0.32
   4  -1 -13    7.71    0.54
  -4   1  13    8.32    0.64
   3  -1 -13    0.51    0.21
  -3   1  13    0.55    0.27
   2  -1 -13   15.69    0.84
  -2   1  13   13.56    0.73
   1  -1 -13   12.72    0.72
  -1   1  13   10.59    0.66
  -1   1  13   10.23    0.61
   0  -1 -13   12.45    0.81
   0   1  13   11.81    0.71
   0   1  13   11.74    0.67
  -1  -1 -13   18.81    1.12
   1   1  13   18.74    0.97
   1   1  13   18.67    0.98
  -2  -1 -13    4.68    0.60
   2   1  13    4.32    0.49
   2   1  13    3.64    0.37
  -3  -1 -13    0.95    0.55
   3   1  13    1.12    0.36
  -4  -1 -13    0.92    0.71
   4   1  13   -0.12    0.37
   7  -2 -13   11.20    0.81
  -7   2  13    8.19    0.86
   6  -2 -13   18.55    1.06
  -6   2  13   19.51    1.18
   5  -2 -13    5.14    0.50
  -5   2  13    5.57    0.56
   4  -2 -13    0.03    0.23
  -4   2  13   -0.03    0.26
   3  -2 -13    4.09    0.39
   3  -2 -13    3.81    0.42
  -3   2  13    4.29    0.48
  -3   2  13    3.27    0.35
   2  -2 -13    2.10    0.27
   2  -2 -13    1.97    0.31
  -2   2  13    2.18    0.31
  -2   2  13    1.33    0.23
   1  -2 -13    8.77    0.62
   1  -2 -13    7.85    0.53
  -1   2  13    8.15    0.55
  -1   2  13    7.06    0.50
   0  -2 -13   -0.03    0.31
   0   2  13    0.35    0.21
   0   2  13   -0.18    0.20
  -1  -2 -13    9.52    0.85
   1   2  13    9.52    0.65
   1   2  13   10.16    0.62
  -2  -2 -13   23.66    1.51
   2   2  13   25.55    1.29
  -3  -2 -13    8.51    1.05
   3   2  13    7.03    0.68
  -4  -2 -13    1.89    0.80
   4   2  13    1.62    0.43
   7  -3 -13   -0.59    0.35
  -7   3  13   -0.20    0.34
   6  -3 -13    0.78    0.32
  -6   3  13    0.74    0.39
   5  -3 -13    0.15    0.25
  -5   3  13    0.36    0.27
   4  -3 -13    0.02    0.23
   4  -3 -13   -0.11    0.22
  -4   3  13    0.33    0.24
  -4   3  13    0.41    0.20
   3  -3 -13    3.28    0.39
   3  -3 -13    3.88    0.42
  -3   3  13    3.74    0.38
  -3   3  13    4.40    0.45
   2  -3 -13    3.21    0.39
   2  -3 -13    2.83    0.35
  -2   3  13    3.13    0.38
  -2   3  13    3.70    0.40
   1  -3 -13    8.55    0.61
   1  -3 -13    8.22    0.67
  -1   3  13    8.20    0.56
  -1   3  13    8.18    0.58
   0  -3 -13    0.72    0.39
   0  -3 -13    0.78    0.29
   0   3  13    0.72    0.28
   0   3  13    0.84    0.27
  -1  -3 -13   19.79    1.29
   1   3  13   21.46    1.11
   1   3  13   20.77    1.05
  -2  -3 -13    2.73    0.66
   2   3  13    2.37    0.42
  -3  -3 -13    3.07    0.83
   3   3  13    3.85    0.52
  -7   4  13   -0.03    0.39
  -6   4  13    9.27    0.72
   5  -4 -13    0.16    0.27
   5  -4 -13   -0.17    0.27
  -5   4  13    0.07    0.31
   4  -4 -13   -0.14    0.24
   4  -4 -13    0.14    0.27
  -4   4  13   -0.69    0.26
   3  -4 -13    0.70    0.27
   3  -4 -13    0.86    0.30
  -3   4  13    0.54    0.27
  -3   4  13    0.94    0.26
   2  -4 -13    0.45    0.33
   2  -4 -13    0.35    0.28
  -2   4  13    0.23    0.25
  -2   4  13   -0.16    0.25
   1  -4 -13    2.99    0.49
   1  -4 -13    3.50    0.41
  -1   4  13    3.50    0.41
  -1   4  13    2.91    0.37
   0  -4 -13    7.51    0.62
   0  -4 -13    6.55    0.78
   0   4  13    6.24    0.54
   0   4  13    6.06    0.56
  -1  -4 -13   14.01    1.19
   1   4  13   13.00    0.78
   1   4  13   15.01    0.90
  -2  -4 -13    4.79    0.97
   2   4  13    4.07    0.51
  -6   5  13    3.19    0.50
   5  -5 -13    0.01    0.33
  -5   5  13   -0.28    0.31
   4  -5 -13    0.01    0.31
  -4   5  13    0.33    0.26
   3  -5 -13    0.53    0.32
  -3   5  13    0.91    0.30
  -3   5  13    0.69    0.28
   2  -5 -13    5.34    0.57
  -2   5  13    3.91    0.44
  -2   5  13    4.21    0.50
   1  -5 -13    3.73    0.52
  -1   5  13    3.76    0.46
  -1   5  13    3.16    0.43
   0  -5 -13    0.70    0.42
   0   5  13    1.81    0.32
   0   5  13    1.19    0.37
  -1  -5 -13   10.74    0.85
   1   5  13    7.51    0.74
   5  -6 -13    0.97    0.39
  -5   6  13    1.59    0.38
   4  -6 -13    4.27    0.52
  -4   6  13    3.42    0.44
   3  -6 -13   10.20    0.91
  -3   6  13   10.45    0.77
   2  -6 -13   -0.45    0.37
  -2   6  13    0.23    0.32
  -2   6  13    0.31    0.34
   1  -6 -13    0.88    0.42
  -1   6  13    0.99    0.39
  -1   6  13    0.67    0.33
   0   7 -14    6.04    0.68
   0  -7  14    8.71    1.09
  -1   7 -14   -0.24    0.41
   1  -7  14   -0.83    0.72
  -2   7 -14    0.89    0.49
   2  -7  14    1.63    0.73
   2   6 -14    0.08    0.36
  -2  -6  14    0.26    0.75
   1   6 -14    0.42    0.32
  -1  -6  14    0.93    0.74
   0   6 -14    0.09    0.33
   0  -6  14    1.33    0.70
  -1   6 -14    1.35    0.37
   1  -6  14    1.79    0.69
  -2   6 -14    0.02    0.42
   2  -6  14    0.31    0.64
  -3   6 -14    3.86    0.60
  -4   6 -14    4.15    0.70
   3   5 -14    2.16    0.42
  -3  -5  14    3.08    0.71
   2   5 -14    2.30    0.42
  -2  -5  14    1.99    0.63
   1   5 -14    3.16    0.46
  -1  -5  14    2.40    0.60
   0   5 -14    0.70    0.32
   0  -5  14    1.51    0.53
  -1   5 -14    0.65    0.36
   1  -5  14    1.29    0.56
  -2   5 -14    0.49    0.40
   2  -5  14    1.32    0.57
  -3   5 -14   -0.22    0.40
  -4   5 -14   13.06    1.18
   4  -5  14   15.43    1.22
   4   4 -14   19.76    1.16
  -4  -4  14   19.43    1.51
   3   4 -14   13.48    0.89
  -3  -4  14   12.25    1.19
   2   4 -14    1.46    0.33
  -2  -4  14    1.25    0.50
   1   4 -14    2.91    0.40
  -1  -4  14    2.42    0.54
   0   4 -14    1.79    0.40
   0  -4  14    1.58    0.50
  -1   4 -14    4.96    0.59
   1  -4  14    3.48    0.60
  -2   4 -14    0.20    0.35
   2  -4  14    0.10    0.46
  -3   4 -14   -0.53    0.47
   3  -4  14   -0.16    0.46
  -4   4 -14    1.52    0.54
   4  -4  14    1.03    0.55
   5   3 -14    2.81    0.55
  -5  -3  14    2.38    0.73
   4   3 -14    2.86    0.46
  -4  -3  14    3.06    0.67
   3   3 -14   18.75    1.06
  -3  -3  14   19.40    1.26
   2   3 -14   26.65    1.35
  -2  -3  14   25.81    1.54
   1   3 -14    7.25    0.58
  -1  -3  14    7.06    0.79
   0   3 -14    0.55    0.26
   0  -3  14   -0.19    0.35
  -1   3 -14    0.56    0.32
   1  -3  14   -0.52    0.41
  -2   3 -14    0.90    0.43
   2  -3  14    1.32    0.45
   2  -3  14    1.33    0.39
  -3   3 -14    8.79    0.92
  -4   3 -14    1.34    0.59
   4  -3  14   -0.56    0.46
   5  -3  14    2.32    0.57
   5   2 -14   -0.23    0.36
  -5  -2  14    1.05    0.55
   4   2 -14    4.98    0.57
  -4  -2  14    5.73    0.72
   3   2 -14    0.61    0.30
  -3  -2  14    0.15    0.44
   2   2 -14    8.59    0.65
  -2  -2  14    6.64    0.78
   1   2 -14    3.80    0.49
  -1  -2  14    3.57    0.51
   0   2 -14   -0.05    0.25
  -1   2 -14    1.13    0.37
   1  -2  14    1.45    0.33
   1  -2  14    0.87    0.34
  -2   2 -14    1.37    0.46
   2  -2  14    0.64    0.33
   2  -2  14    1.14    0.38
  -3   2 -14    0.58    0.49
   3  -2  14    0.06    0.36
  -4   2 -14    1.60    0.65
   4  -2  14    1.91    0.47
   6   1 -14   11.39    0.84
  -6  -1  14   10.41    1.03
   5   1 -14   -0.01    0.30
  -5  -1  14    0.82    0.49
   4   1 -14   11.37    0.77
  -4  -1  14   10.64    0.93
   3   1 -14    0.16    0.26
  -3  -1  14    0.23    0.35
   2   1 -14   28.27    1.40
  -2  -1  14   26.11    1.47
   1   1 -14   -0.20    0.23
  -1  -1  14   -0.39    0.26
   0   1 -14    0.52    0.31
   0  -1  14    0.66    0.28
   0  -1  14    0.19    0.30
  -1   1 -14    3.34    0.46
   1  -1  14    3.14    0.39
   1  -1  14    3.31    0.44
  -2   1 -14    1.06    0.44
   2  -1  14    1.02    0.36
   2  -1  14    1.44    0.34
  -3   1 -14    0.39    0.45
   3  -1  14    0.57    0.37
  -4   1 -14    5.77    0.94
   4  -1  14    5.55    0.64
   6   0 -14    1.17    0.44
  -6   0  14    1.48    0.58
   5   0 -14    4.29    0.58
  -5   0  14    4.25    0.59
   4   0 -14   19.17    1.07
  -4   0  14   20.37    1.20
   3   0 -14    5.89    0.53
  -3   0  14    4.61    0.54
   2   0 -14    3.74    0.44
  -2   0  14    4.88    0.50
   1   0 -14   -0.07    0.27
  -1   0  14   -0.26    0.23
  -1   0  14    0.34    0.27
   0   0 -14   10.77    0.77
   0   0  14    9.78    0.64
   0   0  14    9.89    0.69
  -1   0 -14    0.52    0.38
   1   0  14    0.05    0.24
   1   0  14    0.51    0.29
  -2   0 -14    2.64    0.53
   2   0  14    2.12    0.37
  -3   0 -14    3.82    0.75
   3   0  14    4.47    0.50
  -4   0 -14   -0.57    0.69
   4   0  14   -0.09    0.43
   6  -1 -14    0.46    0.35
  -6   1  14   -0.02    0.44
   5  -1 -14    0.54    0.31
  -5   1  14   -0.13    0.38
   4  -1 -14    2.20    0.37
  -4   1  14    2.17    0.42
   3  -1 -14    0.09    0.27
  -3   1  14    0.07    0.31
   2  -1 -14   31.32    1.53
  -2   1  14   30.27    1.55
   1  -1 -14    0.65    0.30
  -1   1  14    0.49    0.22
  -1   1  14    0.30    0.28
   0  -1 -14    2.38    0.45
   0   1  14    2.83    0.34
   0   1  14    2.63    0.36
  -1  -1 -14    1.00    0.40
   1   1  14    0.97    0.29
   1   1  14    0.79    0.28
  -2  -1 -14    0.01    0.50
   2   1  14    0.10    0.31
  -3  -1 -14    0.91    0.64
   3   1  14    1.16    0.39
   6  -2 -14    1.11    0.34
  -6   2  14    1.26    0.45
   5  -2 -14    4.76    0.52
  -5   2  14    5.36    0.66
   4  -2 -14   -0.03    0.28
  -4   2  14   -0.25    0.32
   3  -2 -14   13.72    0.83
  -3   2  14   13.81    0.88
   2  -2 -14    1.18    0.31
  -2   2  14    0.46    0.21
  -2   2  14    0.57    0.29
   1  -2 -14    1.81    0.38
  -1   2  14    1.78    0.28
  -1   2  14    1.43    0.33
   0  -2 -14   15.33    1.01
   0   2  14   15.99    0.89
   0   2  14   15.07    0.87
  -1  -2 -14    0.59    0.47
   1   2  14    0.11    0.27
   1   2  14    0.13    0.26
  -2  -2 -14    3.99    0.75
   2   2  14    4.31    0.48
  -3  -2 -14    0.86    0.72
   3   2  14    0.13    0.40
   6  -3 -14    2.10    0.38
  -6   3  14    1.76    0.49
   5  -3 -14    0.80    0.30
  -5   3  14    1.04    0.40
   4  -3 -14    7.82    0.64
  -4   3  14    9.59    0.70
   3  -3 -14   11.13    0.71
  -3   3  14   11.22    0.73
  -3   3  14   10.55    0.67
   2  -3 -14    0.59    0.29
   2  -3 -14    0.83    0.38
  -2   3  14    0.80    0.26
  -2   3  14    1.23    0.31
   1  -3 -14   15.06    0.91
   1  -3 -14   13.48    1.07
  -1   3  14   16.92    0.90
  -1   3  14   15.15    0.88
   0  -3 -14    1.11    0.47
   0   3  14    1.68    0.33
   0   3  14    0.81    0.33
  -1  -3 -14   -0.21    0.55
   1   3  14    0.23    0.29
   1   3  14    0.12    0.33
  -2  -3 -14    3.85    0.78
   2   3  14    3.20    0.49
  -6   4  14    0.79    0.41
  -5   4  14    1.67    0.40
   4  -4 -14   -0.25    0.38
  -4   4  14    0.31    0.29
   3  -4 -14    2.83    0.38
  -3   4  14    2.01    0.33
  -3   4  14    2.11    0.41
   2  -4 -14    0.81    0.34
  -2   4  14    1.09    0.29
  -2   4  14    0.55    0.31
   1  -4 -14   16.31    0.96
  -1   4  14   14.97    0.89
  -1   4  14   14.44    0.89
   0  -4 -14    4.75    0.54
   0   4  14    4.40    0.54
   0   4  14    5.02    0.59
   1   4  14    7.08    0.69
  -5   5  14    5.07    0.56
   4  -5 -14    4.89    0.53
  -4   5  14    5.64    0.59
  -4   5  14    3.56    0.45
  -3   5  14    2.63    0.43
  -3   5  14    2.74    0.41
   2  -5 -14    0.07    0.38
  -2   5  14    0.43    0.31
  -2   5  14   -0.20    0.32
   1  -5 -14    8.25    0.82
  -1   5  14    6.72    0.69
  -1   5  14    9.45    0.69
  -1   6 -15    0.49    0.41
   2   5 -15   15.09    1.00
  -2  -5  15   12.98    1.32
   1   5 -15   -0.08    0.40
  -1  -5  15    0.01    0.66
   0   5 -15    0.88    0.44
   0  -5  15    0.76    0.66
  -1   5 -15    2.73    0.52
   1  -5  15    2.91    0.69
  -2   5 -15    1.27    0.47
   2  -5  15    3.13    0.73
  -3   5 -15   14.35    1.21
   3   4 -15    1.96    0.43
  -3  -4  15    1.26    0.64
   2   4 -15    0.28    0.37
  -2  -4  15   -0.54    0.57
   1   4 -15    0.18    0.36
  -1  -4  15   -0.11    0.50
   0   4 -15    1.48    0.36
   0  -4  15    1.80    0.53
  -1   4 -15    1.38    0.44
   1  -4  15    1.21    0.57
  -2   4 -15    3.62    0.59
   2  -4  15    3.61    0.69
  -3   4 -15    1.59    0.50
   4   3 -15    0.58    0.34
  -4  -3  15    0.50    0.57
   3   3 -15    0.51    0.34
  -3  -3  15    0.64    0.55
   2   3 -15   -0.07    0.30
  -2  -3  15   -0.01    0.46
   1   3 -15    0.09    0.33
  -1  -3  15    0.77    0.44
   0   3 -15    0.15    0.37
   0  -3  15    0.02    0.43
  -1   3 -15    1.18    0.42
   1  -3  15   -0.12    0.48
  -2   3 -15   20.34    1.31
  -3   3 -15    0.09    0.50
   4   2 -15   -0.49    0.31
  -4  -2  15    0.99    0.53
   3   2 -15    4.61    0.53
  -3  -2  15    5.35    0.72
   2   2 -15    0.14    0.31
  -2  -2  15    0.18    0.37
   1   2 -15    1.80    0.41
  -1  -2  15    1.78    0.48
   0   2 -15    0.87    0.37
   0  -2  15    0.76    0.41
  -1   2 -15    2.74    0.46
   1  -2  15    3.42    0.51
  -2   2 -15    1.17    0.52
   2  -2  15    1.62    0.65
  -3   2 -15   -0.28    0.57
   3  -2  15    0.12    0.46
   5   1 -15   21.88    1.26
  -5  -1  15   23.30    1.50
   4   1 -15   27.21    1.41
  -4  -1  15   25.43    1.58
   3   1 -15    0.48    0.32
  -3  -1  15    0.59    0.45
   2   1 -15    0.13    0.31
  -2  -1  15    0.28    0.40
   1   1 -15    0.42    0.28
  -1  -1  15    0.02    0.37
   0   1 -15    1.11    0.40
   0  -1  15    0.67    0.40
  -1   1 -15    1.24    0.45
   1  -1  15    0.68    0.68
  -2   1 -15    1.48    0.56
   2  -1  15    1.70    0.40
  -3   1 -15   11.85    1.17
   3  -1  15   10.89    0.88
   5   0 -15    0.94    0.36
  -5   0  15    1.52    0.55
   4   0 -15    2.19    0.41
  -4   0  15    2.73    0.52
   3   0 -15   10.77    0.73
  -3   0  15   11.07    0.82
   2   0 -15    3.39    0.44
  -2   0  15    2.93    0.44
   1   0 -15    0.95    0.34
  -1   0  15    0.84    0.33
   0   0 -15    0.16    0.36
   0   0  15    0.00    0.31
  -1   0 -15   -0.15    0.46
   1   0  15    0.60    0.62
   1   0  15   -0.06    0.36
  -2   0 -15    0.92    0.56
   2   0  15    0.57    0.38
  -3   0 -15   -0.33    0.64
   3   0  15    0.35    0.42
   5  -1 -15    0.44    0.35
  -5   1  15   -0.29    0.39
   4  -1 -15   14.44    0.87
  -4   1  15   11.88    0.94
   3  -1 -15    0.65    0.34
  -3   1  15    0.43    0.38
   2  -1 -15    0.02    0.33
  -2   1  15   -0.20    0.33
   1  -1 -15    6.90    0.64
  -1   1  15    6.54    0.64
   0  -1 -15    0.57    0.41
   0   1  15   -0.43    0.31
   0   1  15   -0.01    0.32
  -1  -1 -15   -0.04    0.46
   1   1  15    0.37    0.34
   1   1  15    0.22    0.30
  -2  -1 -15    4.04    0.75
   2   1  15    2.93    0.46
   5  -2 -15   11.86    0.82
  -5   2  15   10.94    0.93
   4  -2 -15    6.09    0.62
  -4   2  15    6.79    0.66
   3  -2 -15    0.53    0.34
  -3   2  15    0.34    0.36
   2  -2 -15    2.05    0.41
  -2   2  15    2.07    0.40
   1  -2 -15   -0.07    0.42
  -1   2  15    0.04    0.46
  -1   2  15    0.32    0.32
   0  -2 -15   -0.06    0.45
   0   2  15    0.92    0.31
   0   2  15    0.79    0.33
  -1  -2 -15    4.54    0.72
   1   2  15    5.04    0.61
   5  -3 -15    0.60    0.36
  -5   3  15    1.24    0.41
   4  -3 -15   28.57    1.47
  -4   3  15   29.26    1.56
   3  -3 -15    0.63    0.37
  -3   3  15    0.68    0.36
   2  -3 -15    7.46    0.76
   2  -3 -15    5.55    0.62
  -2   3  15    8.18    0.66
   1  -3 -15   -0.16    0.45
  -1   3  15    0.35    0.31
  -1   3  15    1.21    0.34
   0  -3 -15    1.33    0.58
   0   3  15    0.42    0.34
   0   3  15    0.58    0.36
  -4   4  15    2.89    0.48
  -3   4  15    4.01    0.49
   2  -4 -15    8.97    0.72
  -2   4  15    8.25    0.66
  -2   4  15    7.98    0.69
   1  -4 -15    0.11    0.38
   1   4 -16    5.72    0.66
  -1  -4  16    7.20    0.88
   0   4 -16    3.82    0.59
   0  -4  16    3.04    0.72
  -1   4 -16   25.49    1.54
   1  -4  16   26.74    1.65
   2   3 -16    1.44    0.44
  -2  -3  16    1.73    0.61
   1   3 -16    5.11    0.62
  -1  -3  16    4.09    0.67
   0   3 -16    7.88    0.69
   0  -3  16    5.74    0.76
  -1   3 -16    4.31    0.62
   1  -3  16    4.15    0.68
   3   2 -16    0.11    0.38
  -3  -2  16    0.97    0.57
   2   2 -16   -0.19    0.34
  -2  -2  16    0.55    0.51
   1   2 -16    1.06    0.39
  -1  -2  16    0.95    0.50
   0   2 -16    4.08    0.53
   0  -2  16    3.99    0.60
  -1   2 -16    7.10    0.89
   1  -2  16    6.22    0.73
  -2   2 -16    2.26    0.64
   4   1 -16    2.88    0.49
  -4  -1  16    2.33    0.61
   3   1 -16   -0.25    0.37
  -3  -1  16   -0.31    0.49
   2   1 -16    0.33    0.32
  -2  -1  16    0.20    0.40
   1   1 -16    1.87    0.43
  -1  -1  16    1.07    0.73
   0   1 -16   24.98    1.44
   0  -1  16   27.06    1.47
  -1   1 -16    0.28    0.45
   4   0 -16    0.06    0.39
  -4   0  16    0.39    0.53
   3   0 -16    0.06    0.39
  -3   0  16   -0.66    0.45
   2   0 -16    0.48    0.37
  -2   0  16   -0.13    0.36
   1   0 -16    3.03    0.49
  -1   0  16    2.90    0.52
   0   0 -16    0.18    0.47
   0   0  16   -0.08    0.39
  -1   0 -16    2.69    0.62
   4  -1 -16    4.05    0.51
  -4   1  16    3.01    0.56
   3  -1 -16    0.34    0.37
  -3   1  16    0.61    0.41
   2  -1 -16    1.08    0.40
  -2   1  16   -0.04    0.37
   1  -1 -16    0.87    0.47
  -1   1  16    0.68    0.39
   0  -1 -16   -0.09    0.49
   0   1  16   -0.07    0.39
   3  -2 -16   -0.20    0.39
  -3   2  16    0.34    0.41
   2  -2 -16    1.34    0.48
  -2   2  16    1.39    0.41
   1  -2 -16    0.64    0.50
  -1   2  16    1.16    0.41
   0   0   0    0.00    0.00
;
_shelx_hkl_checksum              66620
loop_
_space_group_symop_operation_xyz
'x, y, z'
'-x, -y, -z'
loop_
_atom_site_label
_atom_site_type_symbol
_atom_site_fract_x
_atom_site_fract_y
_atom_site_fract_z
_atom_site_U_iso_or_equiv
_atom_site_adp_type
_atom_site_occupancy
_atom_site_site_symmetry_order
_atom_site_calc_flag
_atom_site_refinement_flags_posn
_atom_site_refinement_flags_adp
S1 S 0.74716(6) 0.46093(6) 0.06749(4) 0.01688(15) Uani 1 1 d . .
S2 S 0.82250(6) 0.41779(6) 0.29876(4) 0.01905(15) Uani 1 1 d . .
O2 O 0.30875(19) 0.25678(17) -0.27950(10) 0.0230(3) Uani 1 1 d . .
O4 O 0.41712(19) 0.07471(16) 0.41234(10) 0.0208(3) Uani 1 1 d . .
O1 O 0.62922(18) 0.46566(17) -0.16628(11) 0.0212(3) Uani 1 1 d . .
O3 O 0.45036(18) -0.04287(16) 0.21448(10) 0.0193(3) Uani 1 1 d . .
C5 C 0.5304(2) 0.2166(2) 0.14742(14) 0.0141(4) Uani 1 1 d . .
C12 C 0.5620(2) 0.3259(2) -0.01489(15) 0.0145(4) Uani 1 1 d . .
C7 C 0.4362(2) 0.1705(2) 0.32983(15) 0.0153(4) Uani 1 1 d . .
C16 C 0.2953(2) 0.0737(2) -0.02764(15) 0.0149(4) Uani 1 1 d . .
C18 C 0.0393(3) -0.1808(2) -0.05073(17) 0.0213(4) Uani 1 1 d . .
H18 H -0.029144 -0.273498 -0.022142 0.026 Uiso 1 1 calc R U
C13 C 0.5288(3) 0.3539(2) -0.12505(15) 0.0159(4) Uani 1 1 d . .
C6 C 0.4690(2) 0.1015(2) 0.22938(14) 0.0145(4) Uani 1 1 d . .
C9 C 0.3716(3) 0.3000(2) 0.46792(15) 0.0194(4) Uani 1 1 d . .
H9 H 0.345801 0.376451 0.510862 0.023 Uiso 1 1 calc R U
C4 C 0.6874(2) 0.3539(2) 0.17494(15) 0.0152(4) Uani 1 1 d . .
C11 C 0.4578(2) 0.1996(2) 0.03571(14) 0.0133(4) Uani 1 1 d . .
C14 C 0.3530(3) 0.2338(2) -0.18834(15) 0.0169(4) Uani 1 1 d . .
C15 C 0.2445(3) 0.0939(2) -0.13563(15) 0.0165(4) Uani 1 1 d . .
C19 C -0.0097(3) -0.1597(2) -0.15551(17) 0.0226(5) Uani 1 1 d . .
H19 H -0.110442 -0.237387 -0.197442 0.027 Uiso 1 1 calc R U
C17 C 0.1891(3) -0.0660(2) 0.01254(16) 0.0176(4) Uani 1 1 d . .
H17 H 0.219112 -0.082547 0.083069 0.021 Uiso 1 1 calc R U
C10 C 0.3795(3) 0.1581(2) 0.49548(16) 0.0227(5) Uani 1 1 d . .
H10 H 0.361507 0.121979 0.562554 0.027 Uiso 1 1 calc R U
C1 C 1.0921(3) 0.7388(3) 0.45262(17) 0.0317(5) Uani 1 1 d . .
H1A H 1.056607 0.820768 0.422857 0.048 Uiso 1 1 calc R U
H1B H 1.187311 0.789985 0.511271 0.048 Uiso 1 1 calc R U
H1C H 0.993415 0.660353 0.478664 0.048 Uiso 1 1 calc R U
C8 C 0.4101(2) 0.3098(2) 0.36097(15) 0.0160(4) Uani 1 1 d . .
H8 H 0.416405 0.394688 0.320026 0.019 Uiso 1 1 calc R U
C2 C 1.1537(3) 0.6525(3) 0.36606(18) 0.0273(5) Uani 1 1 d . .
H2A H 1.182227 0.565420 0.395561 0.033 Uiso 1 1 calc R U
H2B H 1.261322 0.730067 0.346026 0.033 Uiso 1 1 calc R U
C20 C 0.0928(3) -0.0218(2) -0.19723(16) 0.0207(4) Uani 1 1 d . .
H20 H 0.059870 -0.006200 -0.267524 0.025 Uiso 1 1 calc R U
C3 C 1.0169(3) 0.5798(2) 0.26519(16) 0.0217(4) Uani 1 1 d . .
H3A H 1.067258 0.535220 0.210198 0.026 Uiso 1 1 calc R U
H3B H 0.982850 0.664695 0.236765 0.026 Uiso 1 1 calc R U
loop_
_atom_site_aniso_label
_atom_site_aniso_U_11
_atom_site_aniso_U_22
_atom_site_aniso_U_33
_atom_site_aniso_U_23
_atom_site_aniso_U_13
_atom_site_aniso_U_12
S1 0.0179(3) 0.0157(3) 0.0162(2) 0.00431(18) 0.00489(19) 0.0043(2)
S2 0.0174(3) 0.0191(3) 0.0161(3) 0.00310(19) 0.0007(2) 0.0021(2)
O2 0.0325(9) 0.0259(8) 0.0141(7) 0.0034(6) 0.0031(6) 0.0149(7)
O4 0.0347(8) 0.0169(7) 0.0132(7) 0.0049(5) 0.0090(6) 0.0104(6)
O1 0.0251(8) 0.0212(7) 0.0206(7) 0.0102(6) 0.0094(6) 0.0096(6)
O3 0.0269(8) 0.0152(7) 0.0196(7) 0.0047(5) 0.0086(6) 0.0105(6)
C5 0.0153(10) 0.0139(9) 0.0147(9) 0.0008(7) 0.0042(7) 0.0070(8)
C12 0.0142(10) 0.0145(9) 0.0158(9) 0.0008(7) 0.0031(8) 0.0067(8)
C7 0.0155(10) 0.0150(9) 0.0140(9) 0.0053(7) 0.0036(8) 0.0031(8)
C16 0.0157(10) 0.0160(9) 0.0163(9) 0.0015(7) 0.0054(8) 0.0090(8)
C18 0.0176(10) 0.0156(10) 0.0316(11) 0.0039(8) 0.0074(9) 0.0061(8)
C13 0.0205(10) 0.0165(10) 0.0173(9) 0.0041(8) 0.0083(8) 0.0126(8)
C6 0.0129(9) 0.0178(10) 0.0134(9) 0.0016(7) 0.0020(7) 0.0066(8)
C9 0.0210(10) 0.0180(10) 0.0177(10) -0.0019(8) 0.0069(8) 0.0051(8)
C4 0.0176(10) 0.0161(9) 0.0142(9) 0.0040(7) 0.0059(8) 0.0077(8)
C11 0.0166(10) 0.0139(9) 0.0136(9) 0.0023(7) 0.0062(7) 0.0093(8)
C14 0.0236(11) 0.0190(10) 0.0151(10) 0.0017(8) 0.0072(8) 0.0149(8)
C15 0.0179(10) 0.0171(10) 0.0181(10) 0.0017(8) 0.0061(8) 0.0099(8)
C19 0.0161(10) 0.0209(11) 0.0285(11) -0.0043(8) 0.0000(9) 0.0066(8)
C17 0.0180(10) 0.0185(10) 0.0187(10) 0.0043(8) 0.0051(8) 0.0086(8)
C10 0.0317(12) 0.0215(11) 0.0125(9) 0.0005(8) 0.0092(9) 0.0060(9)
C1 0.0304(13) 0.0304(13) 0.0227(11) 0.0025(9) -0.0015(10) -0.0002(10)
C8 0.0155(10) 0.0148(9) 0.0164(9) 0.0015(7) 0.0011(8) 0.0046(8)
C2 0.0172(11) 0.0250(11) 0.0337(12) 0.0080(9) -0.0011(9) 0.0015(9)
C20 0.0226(11) 0.0244(11) 0.0171(10) -0.0010(8) 0.0004(8) 0.0127(9)
C3 0.0157(10) 0.0216(11) 0.0250(11) 0.0040(8) 0.0051(9) 0.0031(8)
loop_
_atom_type_symbol
_atom_type_description
_atom_type_scat_dispersion_real
_atom_type_scat_dispersion_imag
_atom_type_scat_source
C C 0.0033 0.0016 'International Tables Vol C Tables 4.2.6.8 and 6.1.1.4'
H H 0.0000 0.0000 'International Tables Vol C Tables 4.2.6.8 and 6.1.1.4'
O O 0.0106 0.0060 'International Tables Vol C Tables 4.2.6.8 and 6.1.1.4'
S S 0.1246 0.1234 'International Tables Vol C Tables 4.2.6.8 and 6.1.1.4'
loop_
_geom_angle_atom_site_label_1
_geom_angle_atom_site_label_2
_geom_angle_atom_site_label_3
_geom_angle
C12 S1 C4 90.96(9)
C4 S2 C3 101.68(9)
C10 O4 C7 105.96(15)
C4 C5 C11 111.89(16)
C4 C5 C6 119.09(17)
C11 C5 C6 128.75(17)
C11 C12 C13 127.00(18)
C11 C12 S1 113.77(14)
C13 C12 S1 119.23(14)
C8 C7 O4 110.08(16)
C8 C7 C6 134.06(18)
O4 C7 C6 115.75(16)
C17 C16 C15 117.52(18)
C17 C16 C11 123.53(17)
C15 C16 C11 118.95(17)
C19 C18 C17 120.99(19)
O1 C13 C12 123.92(18)
O1 C13 C14 121.35(17)
C12 C13 C14 114.72(16)
O3 C6 C7 121.07(17)
O3 C6 C5 122.36(16)
C7 C6 C5 116.55(16)
C10 C9 C8 106.55(17)
C5 C4 S1 112.50(14)
C5 C4 S2 127.62(15)
S1 C4 S2 119.84(11)
C12 C11 C5 110.85(17)
C12 C11 C16 118.78(17)
C5 C11 C16 130.36(17)
O2 C14 C15 123.04(19)
O2 C14 C13 118.74(18)
C15 C14 C13 118.22(16)
C20 C15 C16 120.40(18)
C20 C15 C14 117.58(18)
C16 C15 C14 121.98(17)
C18 C19 C20 119.08(19)
C18 C17 C16 121.13(18)
C9 C10 O4 111.03(17)
C7 C8 C9 106.36(17)
C1 C2 C3 113.40(18)
C19 C20 C15 120.88(19)
C2 C3 S2 109.47(14)
loop_
_geom_bond_atom_site_label_1
_geom_bond_atom_site_label_2
_geom_bond_distance
S1 C12 1.715(2)
S1 C4 1.7174(19)
S2 C4 1.731(2)
S2 C3 1.824(2)
O2 C14 1.217(2)
O4 C10 1.358(2)
O4 C7 1.373(2)
O1 C13 1.222(2)
O3 C6 1.224(2)
C5 C4 1.393(3)
C5 C11 1.437(3)
C5 C6 1.497(3)
C12 C11 1.380(3)
C12 C13 1.438(3)
C7 C8 1.360(3)
C7 C6 1.452(3)
C16 C17 1.391(3)
C16 C15 1.418(3)
C16 C11 1.481(3)
C18 C19 1.380(3)
C18 C17 1.385(3)
C13 C14 1.528(3)
C9 C10 1.348(3)
C9 C8 1.413(3)
C14 C15 1.484(3)
C15 C20 1.389(3)
C19 C20 1.380(3)
C1 C2 1.513(3)
C2 C3 1.522(3)
