#------------------------------------------------------------------------------
#$Date: 2019-11-04 08:49:27 +0200 (Mon, 04 Nov 2019) $
#$Revision: 222271 $
#$URL: file:///home/coder/svn-repositories/cod/cif/4/03/36/4033697.cif $
#------------------------------------------------------------------------------
#
# This file is available in the Crystallography Open Database (COD),
# http://www.crystallography.net/
#
# All data on this site have been placed in the public domain by the
# contributors.
#
data_4033697
loop_
_publ_author_name
'Kaleta, Ji\<r\'i'
'Ron\<cevi\'c, Igor'
'C\'isa\<rov\'a, Ivana'
'Dra\<c\'insk\'y, Martin'
'\<Sol\'inov\'a, Veronika'
'Ka\<si\<cka, V\'aclav'
'Michl, Josef'
_publ_section_title
;
 Bridge-Chlorinated Bicyclo[1.1.1]pentane-1,3-dicarboxylic Acids.
;
_journal_issue                   5
_journal_name_full               'The Journal of organic chemistry'
_journal_page_first              2448
_journal_page_last               2461
_journal_paper_doi               10.1021/acs.joc.8b02780
_journal_volume                  84
_journal_year                    2019
_chemical_compound_source        'Synthesized by Dr. Jiri Kaleta'
_chemical_formula_moiety         'C7 H7 Cl O4'
_chemical_formula_sum            'C7 H7 Cl O4'
_chemical_formula_weight         190.58
_space_group_crystal_system      monoclinic
_space_group_IT_number           14
_space_group_name_Hall           '-P 2yn'
_space_group_name_H-M_alt        'P 1 21/n 1'
_atom_sites_solution_hydrogens   mixed
_audit_creation_method           SHELXL-2018/1
_cell_angle_alpha                90
_cell_angle_beta                 95.413(2)
_cell_angle_gamma                90
_cell_formula_units_Z            4
_cell_length_a                   8.6589(4)
_cell_length_b                   10.1550(6)
_cell_length_c                   9.1765(5)
_cell_measurement_reflns_used    7475
_cell_measurement_temperature    150(2)
_cell_measurement_theta_max      27.4629
_cell_measurement_theta_min      2.9993
_cell_volume                     803.30(7)
_computing_cell_refinement       'SAINT V8.38A (Bruker AXS Inc., 2017)'
_computing_data_collection       'Bruker Instrument Service vV6.2.9'
_computing_data_reduction        'SAINT V8.38A (Bruker AXS Inc., 2017)'
_computing_structure_refinement  'SHELXL-2018/1 (Sheldrick, 2018)'
_computing_structure_solution    'SHELXT 2014/5 (Sheldrick, 2014)'
_diffrn_ambient_temperature      150(2)
_diffrn_measured_fraction_theta_full 0.997
_diffrn_measured_fraction_theta_max 0.997
_diffrn_measurement_device_type  'Bruker D8 VENTURE Kappa Duo PHOTON 100 CMOS'
_diffrn_measurement_method       '\f and \w scans'
_diffrn_radiation_monochromator  'Quazar Mo multilayer optic'
_diffrn_radiation_type           MoK\a
_diffrn_radiation_wavelength     0.71073
_diffrn_reflns_av_R_equivalents  0.0217
_diffrn_reflns_av_unetI/netI     0.0165
_diffrn_reflns_Laue_measured_fraction_full 0.997
_diffrn_reflns_Laue_measured_fraction_max 0.997
_diffrn_reflns_limit_h_max       11
_diffrn_reflns_limit_h_min       -11
_diffrn_reflns_limit_k_max       13
_diffrn_reflns_limit_k_min       -13
_diffrn_reflns_limit_l_max       11
_diffrn_reflns_limit_l_min       -11
_diffrn_reflns_number            9363
_diffrn_reflns_point_group_measured_fraction_full 0.997
_diffrn_reflns_point_group_measured_fraction_max 0.997
_diffrn_reflns_theta_full        25.242
_diffrn_reflns_theta_max         27.511
_diffrn_reflns_theta_min         2.999
_diffrn_source                   'I\mS  micro-focus sealed tube'
_exptl_absorpt_coefficient_mu    0.445
_exptl_absorpt_correction_T_max  0.95
_exptl_absorpt_correction_T_min  0.90
_exptl_absorpt_correction_type   multi-scan
_exptl_absorpt_process_details
;
SADABS-2016/2 - Bruker AXS area detector scaling and absorption correction
;
_exptl_crystal_colour            colourless
_exptl_crystal_density_diffrn    1.576
_exptl_crystal_description       prism
_exptl_crystal_F_000             392
_exptl_crystal_size_max          0.393
_exptl_crystal_size_mid          0.160
_exptl_crystal_size_min          0.108
_refine_diff_density_max         0.394
_refine_diff_density_min         -0.344
_refine_diff_density_rms         0.049
_refine_ls_extinction_method     none
_refine_ls_goodness_of_fit_ref   1.080
_refine_ls_hydrogen_treatment    mixed
_refine_ls_matrix_type           full
_refine_ls_number_parameters     138
_refine_ls_number_reflns         1846
_refine_ls_number_restraints     0
_refine_ls_restrained_S_all      1.080
_refine_ls_R_factor_all          0.0370
_refine_ls_R_factor_gt           0.0320
_refine_ls_shift/su_max          0.000
_refine_ls_shift/su_mean         0.000
_refine_ls_structure_factor_coef Fsqd
_refine_ls_weighting_details
'w=1/[\s^2^(Fo^2^)+(0.0453P)^2^+0.4142P] where P=(Fo^2^+2Fc^2^)/3'
_refine_ls_weighting_scheme      calc
_refine_ls_wR_factor_gt          0.0863
_refine_ls_wR_factor_ref         0.0897
_reflns_Friedel_coverage         0.000
_reflns_number_gt                1653
_reflns_number_total             1846
_reflns_threshold_expression     'I > 2\s(I)'
_cod_data_source_file            jo8b02780_si_002.cif
_cod_data_source_block           JK831
_cod_original_sg_symbol_H-M      'P 21/n'
_cod_database_code               4033697
_shelx_shelxl_version_number     2018/1
_shelx_space_group_comment
;
The symmetry employed for this shelxl refinement is uniquely defined
by the following loop, which should always be used as a source of
symmetry information in preference to the above space-group names.
They are only intended as comments.
;
_shelx_estimated_absorpt_t_min   0.845
_shelx_estimated_absorpt_t_max   0.954
_shelx_res_file
;
TITL jk831_kaleta_0m_a.res in P2(1)/n
    jk831_kaleta.res
    created by SHELXL-2018/1 at 18:24:12 on 22-Sep-2018
REM Old TITL jk831_kaleta_0m in P2(1)/n
REM SHELXT solution in P2(1)/n
REM R1 0.165,  Rweak 0.005,  Alpha 0.021,  Orientation as input
REM Formula found by SHELXT:  C7 Cl O4
CELL  0.71073   8.6589  10.1550   9.1765   90.000   95.413   90.000
ZERR    4.000   0.0004   0.0006   0.0005    0.000    0.002    0.000
LATT  1
SYMM 1/2-X, 1/2+Y, 1/2-Z
SFAC  C   H   CL  O
UNIT   28   28   4  16
TEMP -123.150
SIZE 0.108 0.16 0.393
L.S. 10
BOND $H
EQIV $1  x+1, y, z
HTAB O1 O4_$1
EQIV $2 x-1, y, z
HTAB O3 O2_$2
LIST 4
HTAB
ACTA
FMAP 2
PLAN 20
WGHT    0.045300    0.414200
FVAR       1.39854   0.79303
CL1   3    0.674726    0.371333    0.537703    11.00000    0.02759    0.04523 =
         0.02285   -0.00145    0.00294    0.00874
O1    4    0.971773    0.465513    0.159262    11.00000    0.00906    0.04697 =
         0.05908    0.02864    0.00998    0.00408
AFIX   3
H1    2    1.071903    0.460155    0.160244    11.00000   -1.20000
AFIX   0
O2    4    0.997910    0.299245    0.318658    11.00000    0.01029    0.04074 =
         0.04653    0.02002    0.00432    0.00392
O3    4    0.304705    0.295564    0.336550    11.00000    0.01004    0.04159 =
         0.03750    0.01304    0.00360   -0.00362
AFIX   3
H3    2    0.204154    0.297237    0.329124    11.00000    0.05198
AFIX   0
O4    4    0.277728    0.448995    0.159604    11.00000    0.00911    0.03360 =
         0.03830    0.00956    0.00243    0.00249
C1    1    0.745790    0.377628    0.241963    11.00000    0.00662    0.02135 =
         0.02423    0.00184    0.00299    0.00049
PART 1
C2    1    0.651852    0.310536    0.356893    21.00000    0.01047    0.02018 =
         0.02305   -0.00007    0.00372    0.00130
AFIX  13
H2    2    0.651990    0.212205    0.351054    21.00000   -1.20000
AFIX   0
PART 0
C3    1    0.529969    0.376775    0.244087    11.00000    0.00617    0.01862 =
         0.02451    0.00012    0.00243   -0.00012
PART 1
C4    1    0.626330    0.316954    0.125136    21.00000    0.01057    0.03306 =
         0.02585   -0.00531    0.00197    0.00226
AFIX  23
H4A   2    0.626387    0.219687    0.117852    21.00000   -1.20000
H4B   2    0.615713    0.361125    0.028534    21.00000   -1.20000
AFIX   0
C5    1    0.637010    0.499439    0.243324    21.00000    0.00784    0.02073 =
         0.03402    0.00393    0.00260   -0.00006
AFIX  23
H5A   2    0.646696    0.552996    0.333872    21.00000   -1.20000
H5B   2    0.626636    0.553343    0.153039    21.00000   -1.20000
AFIX   0
PART 0
C6    1    0.918253    0.377306    0.242766    11.00000    0.00866    0.02442 =
         0.02632    0.00104    0.00349    0.00012
C7    1    0.357745    0.376971    0.243436    11.00000    0.00955    0.02011 =
         0.02655   -0.00147    0.00308   -0.00131
PART 2
C2D   1    0.649831    0.440430    0.353581   -21.00000    0.00616    0.02046 =
         0.02548    0.00012   -0.00011    0.00142
AFIX  13
H2D   2    0.649017    0.538875    0.350981   -21.00000   -1.20000
AFIX   0
C4D   1    0.633247    0.254764    0.233484   -21.00000    0.00755    0.01494 =
         0.03343   -0.00545    0.00588    0.00100
AFIX  23
H4DA  2    0.621850    0.206906    0.139092   -21.00000   -1.20000
H4DB  2    0.641925    0.195483    0.319513   -21.00000   -1.20000
REM #####
REM #####
AFIX   0
C5D   1    0.621233    0.443003    0.120163   -21.00000    0.00836    0.03402 =
         0.02430    0.01206    0.00295    0.00231
AFIX  23
H5DA  2    0.619452    0.540394    0.115461   -21.00000   -1.20000
H5DB  2    0.609930    0.400298    0.022758   -21.00000   -1.20000
AFIX   0
HKLF 4




REM  jk831_kaleta_0m_a.res in P2(1)/n
REM R1 =  0.0320 for    1653 Fo > 4sig(Fo)  and  0.0370 for all    1846 data
REM    138 parameters refined using      0 restraints

END

WGHT      0.0453      0.4142

REM Instructions for potential hydrogen bonds
HTAB O1 O4_$1
HTAB O3 O2_$2

REM Highest difference peak  0.394,  deepest hole -0.344,  1-sigma level  0.049
Q1    1   0.4489  0.3756  0.2424  11.00000  0.05    0.39
Q2    1   0.8318  0.3735  0.2411  11.00000  0.05    0.37
Q3    1   0.5679  0.3442  0.3155  11.00000  0.05    0.28
Q4    1   0.9949  0.2693  0.2452  11.00000  0.05    0.24
Q5    1   0.9917  0.4784  0.2339  11.00000  0.05    0.22
Q6    1   0.7024  0.3436  0.1744  11.00000  0.05    0.22
Q7    1   0.7192  0.3489  0.3103  11.00000  0.05    0.22
Q8    1   0.5562  0.3490  0.1834  11.00000  0.05    0.20
Q9    1   0.2970  0.2562  0.2567  11.00000  0.05    0.20
Q10   1   0.5648  0.4422  0.2494  11.00000  0.05    0.20
Q11   1   0.2029  0.4567  0.1621  11.00000  0.05    0.20
Q12   1   0.7021  0.4506  0.2445  11.00000  0.05    0.20
Q13   1   0.9578  0.4014  0.1487  11.00000  0.05    0.19
Q14   1   0.2967  0.4496  0.2221  11.00000  0.05    0.19
Q15   1   1.0688  0.3049  0.3246  11.00000  0.05    0.18
Q16   1   0.2913  0.4071  0.1478  11.00000  0.05    0.17
Q17   1   0.3155  0.4855  0.1353  11.00000  0.05    0.16
Q18   1   0.9511  0.4952  0.1385  11.00000  0.05    0.16
Q19   1   0.3351  0.3412  0.3090  11.00000  0.05    0.15
Q20   1   0.6982  0.4503  0.5036  11.00000  0.05    0.14
;
_shelx_res_checksum              40702
_shelx_hkl_file
;
   1   0   0    0.30    0.30
  -1   0   0    0.60    0.50
   1   0   0    0.00    0.40
   2   0   0 1950.90   45.10
  -2   0   0 2134.49   44.30
   2   0   0 2136.59   44.30
  -2   0   0 2185.38   44.60
  -3   0   0   -0.70    1.70
   3   0   0    1.20    1.20
  -3   0   0    0.40    1.10
   4   0   0   54.89    3.50
  -4   0   0   54.29    2.80
  -4   0   0   50.19    3.40
  -4   0   0   52.59    1.70
  -4   0   0   50.79    1.60
  -5   0   0    2.20    1.00
  -5   0   0    9.70    1.80
   5   0   0    2.70    1.70
  -5   0   0    1.00    0.60
  -5   0   0    1.60    2.30
  -6   0   0 4621.94   93.19
  -6   0   0 4239.48   90.49
  -6   0   0 4240.38   91.79
   6   0   0 4215.68   92.89
  -7   0   0    0.50    1.60
   7   0   0    1.40    3.20
  -7   0   0   -2.60    1.90
  -8   0   0  104.89    5.00
  -8   0   0   86.49    6.00
   8   0   0   93.09    6.80
   9   0   0    5.60    4.70
  -9   0   0   -4.50    3.70
  -9   0   0   -4.80    3.10
 -10   0   0   77.19    6.90
  10   0   0   92.39    8.70
 -10   0   0   70.29    7.20
 -11   0   0    0.90    5.60
   1  -1   0 1540.65   32.60
   1  -1   0 1556.64   32.50
  -1   1   0 1544.95   32.70
  -1   1   0 1550.84   32.60
  -2  -1   0 2094.19   44.70
   2  -1   0 2129.79   44.60
  -2   1   0 2101.89   44.60
  -4  -1   0  409.26   10.00
   4  -1   0  419.46   10.80
  -4  -1   0  417.36   11.00
   4  -1   0  408.46   11.00
  -4   1   0  429.66   10.50
  -4   1   0  418.26    9.60
  -4   1   0  422.46    9.90
   4   1   0  397.96   10.80
  -5  -1   0  743.33   18.10
   5  -1   0  720.83   18.00
  -5  -1   0  718.03   16.80
  -5   1   0  723.33   17.20
   5   1   0  717.83   17.80
  -5   1   0  710.23   16.20
  -5   1   0  743.63   16.50
  -6  -1   0  412.76   10.90
   6  -1   0  398.96   12.30
  -6  -1   0  452.95   12.90
  -6   1   0  414.36   11.50
   6   1   0  415.56   12.00
  -6   1   0  408.46   10.50
  -7  -1   0   58.59    2.70
  -7  -1   0   66.19    4.30
  -7  -1   0   65.29    7.10
   7  -1   0   52.69    5.80
  -7   1   0   60.89    4.30
  -7   1   0   57.89    4.90
   7   1   0   65.09    5.80
   8  -1   0  748.93   20.40
  -8  -1   0  734.53   18.60
  -8  -1   0  714.83   20.50
  -8  -1   0  751.52   16.80
  -8   1   0  738.53   18.10
   8   1   0  735.53   20.10
  -8   1   0  773.32   19.40
  -9  -1   0   29.90    3.00
   9  -1   0   28.20    4.90
  -9  -1   0   30.60    4.10
  -9   1   0   37.00    4.20
  -9   1   0   18.30    4.30
 -10  -1   0   -0.70    3.40
  10  -1   0    0.70    6.00
 -10  -1   0    8.60    4.00
 -10   1   0   -1.80    4.40
 -11  -1   0  255.07   10.90
  11  -1   0  264.27   15.60
 -11   1   0  270.97   12.80
   0  -2   0   20.10    1.60
   0  -2   0   20.10    1.10
   0   2   0   19.10    1.10
   1  -2   0 5791.72  130.79
  -1  -2   0 5694.63  127.69
   1   2   0 5878.31  128.09
  -1   2   0 5845.02  130.89
   2  -2   0    3.90    1.10
   2  -2   0    2.60    1.10
   2  -2   0    3.20    1.00
  -2   2   0    2.00    0.90
   3  -2   0 1331.67   29.30
  -3  -2   0 1409.16   30.30
   3  -2   0 1378.66   30.10
  -3   2   0 1372.66   30.00
  -3   2   0 1327.17   29.60
  -3   2   0 1407.16   30.00
   4  -2   0  175.48    6.20
   4  -2   0  167.48    6.10
   4  -2   0  168.38    4.60
   4  -2   0  164.38    4.40
  -4  -2   0  170.08    4.80
  -4  -2   0  168.08    6.00
  -4   2   0  161.28    4.90
  -4   2   0  171.28    5.50
  -4   2   0  172.88    5.60
   5  -2   0   -0.70    2.20
  -5  -2   0    2.00    2.20
  -5  -2   0    0.90    1.20
   5  -2   0    2.10    2.60
  -5   2   0    2.30    1.70
  -5   2   0    4.30    1.70
   6  -2   0  562.04   15.40
  -6  -2   0  560.44   13.70
  -6  -2   0  596.64   16.30
  -6   2   0  570.64   14.30
  -6   2   0  558.04   14.70
  -7  -2   0  783.92   20.90
  -7  -2   0  777.52   18.70
   7  -2   0  776.52   20.90
  -7   2   0  803.32   19.10
  -7   2   0  793.62   19.80
  -8  -2   0    4.10    4.40
   8  -2   0    7.60    3.60
  -8  -2   0   10.50    2.80
  -8  -2   0   10.70    1.60
  -8   2   0   11.70    4.00
  -8   2   0    8.40    3.10
  -9  -2   0   54.39    4.00
   9  -2   0   60.69    6.10
  -9  -2   0   55.59    5.40
  -9  -2   0   41.60    5.80
  -9   2   0   54.29    5.50
  -9   2   0   58.39    5.40
  10  -2   0  146.29   12.00
 -10  -2   0  146.49    6.00
 -10  -2   0  131.49    8.30
 -10   2   0  148.59   10.00
 -10   2   0  144.39    9.50
  11  -2   0  116.19   11.10
 -11  -2   0  116.99    9.10
 -11   2   0  119.79   11.20
   0  -3   0    0.50    0.80
   0  -3   0   -0.20    0.90
   0   3   0    2.10    0.80
   1  -3   0 1976.00   41.80
   1  -3   0 1970.00   42.00
  -1  -3   0 1941.31   41.10
   1  -3   0 1949.51   42.30
   1   3   0 1951.30   41.10
  -1   3   0 1949.41   41.70
  -1   3   0 2018.80   42.30
   2  -3   0   26.10    2.20
   2  -3   0   21.00    2.20
   2  -3   0   21.90    2.30
  -2  -3   0   24.60    1.10
  -2   3   0   24.10    1.90
  -2   3   0   26.70    2.90
   3  -3   0 2980.70   63.49
   3  -3   0 2975.70   62.99
   3  -3   0 2983.30   63.39
  -3   3   0 3000.50   63.59
  -3   3   0 2941.31   63.39
  -4  -3   0 1062.69   23.80
   4  -3   0 1066.29   24.40
   4  -3   0 1121.89   25.30
  -4  -3   0 1144.79   25.60
   4  -3   0 1078.99   24.10
  -4   3   0 1117.59   25.10
  -4   3   0 1094.09   25.00
   5  -3   0  888.91   19.90
   5  -3   0  889.11   21.90
   5  -3   0  892.11   19.80
  -5  -3   0  887.81   19.90
  -5   3   0  897.01   21.40
  -5   3   0  923.01   21.40
  -6  -3   0  333.17    8.70
   6  -3   0  326.77   10.80
  -6  -3   0  339.07   11.60
  -6   3   0  327.57   10.40
  -6   3   0  348.47   10.50
  -7  -3   0  136.39    5.40
  -7  -3   0  129.99    8.00
  -7  -3   0  134.49    3.70
   7  -3   0  140.69    8.00
  -7   3   0  120.69    7.70
  -7   3   0  139.29    6.60
  -8  -3   0  124.29    3.80
  -8  -3   0  119.29    8.80
   8  -3   0  115.79    8.70
  -8  -3   0  121.39    5.80
  -8   3   0  122.19    8.00
  -8   3   0  121.19    6.90
  -9  -3   0  828.42   25.90
  -9  -3   0  797.92   19.40
  -9  -3   0  760.42   17.50
  -9   3   0  777.72   21.40
  -9   3   0  790.12   21.50
 -10  -3   0  242.68    7.30
 -10  -3   0  254.77    9.70
  10  -3   0  249.88   14.30
 -10   3   0  254.67   12.80
 -10   3   0  249.38   12.10
   0  -4   0 3928.81   83.69
   0  -4   0 3983.80   83.29
   0  -4   0 3929.21   82.59
   1  -4   0  371.76   10.10
   1  -4   0  387.16    9.70
  -1  -4   0  382.46    9.80
  -1  -4   0  378.86    8.60
   1  -4   0  383.26    9.40
  -1   4   0  377.66    9.10
   1   4   0  348.77    8.60
  -1   4   0  382.36   10.10
   2  -4   0 1072.29   23.80
   2  -4   0 1058.19   24.30
   2  -4   0 1060.69   23.80
  -2  -4   0 1012.10   22.40
  -2   4   0 1067.89   23.60
  -2   4   0 1066.49   24.30
   3  -4   0   35.10    3.30
  -3  -4   0   35.70    1.40
   3  -4   0   26.70    2.80
   3  -4   0   31.00    3.20
  -3   4   0   31.60    2.80
  -3   4   0   33.00    3.30
   4  -4   0  244.38    8.40
   4  -4   0  249.88    7.40
   4  -4   0  243.88    7.60
  -4   4   0  248.48    7.90
  -4   4   0  248.38    8.40
   5  -4   0  191.58    6.60
   5  -4   0  188.18    6.40
  -5  -4   0  202.68    5.40
  -5  -4   0  239.18   12.30
  -5   4   0  211.08    7.90
  -5   4   0  201.88    7.50
   6  -4   0   22.70    4.00
  -6  -4   0   26.20    4.00
  -6  -4   0   19.50    2.10
   6  -4   0   19.60    2.30
   6  -4   0   20.20    2.20
   6  -4   0   19.20    3.40
  -6   4   0   23.30    3.90
  -6   4   0   24.40    3.20
  -7  -4   0  309.67    8.50
   7  -4   0  300.57   11.80
  -7  -4   0  307.07   11.80
  -7  -4   0  299.97    7.70
  -7   4   0  316.67   11.20
  -7   4   0  318.57   10.80
  -8  -4   0  307.17    8.80
  -8  -4   0  308.57   12.60
  -8  -4   0  304.77    7.80
   8  -4   0  304.47   12.00
  -8   4   0  292.57   12.30
  -8   4   0  311.17   10.90
   9  -4   0   89.99    8.60
  -9  -4   0   88.69    5.40
  -9  -4   0   89.99    4.40
  -9   4   0   94.39    9.40
  -9   4   0   86.69    7.40
 -10  -4   0  169.98    7.60
  10  -4   0  168.98   13.90
 -10  -4   0  167.88    6.10
 -10   4   0  174.48   11.40
 -10   4   0  188.88   11.70
   0  -5   0    0.00    1.30
   0  -5   0    0.90    1.90
   0  -5   0   -1.40    2.00
   0   5   0    2.10    1.10
  -1  -5   0  960.10   21.80
   1  -5   0  949.90   22.60
   1  -5   0  967.30   22.20
  -1  -5   0  938.81   20.80
  -1  -5   0  963.40   22.40
   1  -5   0  936.71   21.50
  -1   5   0  971.00   21.40
   1   5   0  941.41   20.70
   2  -5   0 1171.18   26.10
   2  -5   0 1137.49   26.20
  -2  -5   0 1116.19   24.50
   2  -5   0 1168.48   26.90
  -2   5   0 1140.89   25.80
  -2   5   0 1162.48   26.90
   3  -5   0 1365.86   30.10
   3  -5   0 1351.16   30.00
   3  -5   0 1320.07   30.50
  -3  -5   0 1254.47   27.90
  -3   5   0 1319.77   30.60
  -3   5   0 1332.37   29.90
   4  -5   0  885.91   21.60
   4  -5   0  897.31   21.10
   4  -5   0  904.01   21.70
  -4  -5   0  859.71   19.00
  -4   5   0  912.01   22.10
  -4   5   0  894.51   21.30
   5  -5   0 1348.77   30.50
   5  -5   0 1371.46   31.90
  -5  -5   0 1364.86   32.10
   5  -5   0 1352.76   31.10
  -5   5   0 1305.57   31.10
  -5   5   0 1356.76   32.00
  -6  -5   0 1346.57   32.60
   6  -5   0 1325.87   30.40
  -6  -5   0 1350.26   29.40
   6  -5   0 1326.87   32.00
  -6  -5   0 1325.77   28.80
   6  -5   0 1338.77   30.10
  -6   5   0 1356.16   32.00
  -6   5   0 1340.67   31.50
  -7  -5   0  248.48    6.60
   7  -5   0  233.98    7.30
   7  -5   0  244.08    7.20
  -7  -5   0  238.88    7.10
   7  -5   0  244.28   10.30
  -7  -5   0  225.28   12.00
  -7   5   0  239.78   10.80
  -7   5   0  243.58    9.40
  -8  -5   0  218.08    6.60
  -8  -5   0  222.48    7.00
   8  -5   0  223.78   11.60
  -8  -5   0  201.28   11.00
  -8   5   0  220.38   11.40
  -8   5   0  227.68   10.10
   9  -5   0    5.00    5.10
  -9  -5   0   -0.10    2.90
  -9  -5   0    2.40    2.60
  -9   5   0   -0.80    5.80
  -9   5   0   -9.00    4.10
  10  -5   0   63.79   10.00
 -10  -5   0   58.99    5.80
 -10   5   0   59.39    7.00
   0  -6   0  622.24   16.20
   0  -6   0  628.34   15.70
   0  -6   0  629.94   14.70
   0   6   0  603.54   14.40
   1  -6   0 4672.03   97.29
  -1  -6   0 4700.03   97.79
  -1  -6   0 4546.45   98.29
  -1  -6   0 4568.74   96.49
   1  -6   0 4773.02   98.09
   1  -6   0 4537.15   98.69
   1   6   0 4566.24   96.39
  -1   6   0 4493.95   96.99
  -2  -6   0   67.29    2.80
   2  -6   0   70.49    4.80
   2  -6   0   54.89    5.10
  -2  -6   0   69.29    4.40
   2  -6   0   63.29    5.20
  -2  -6   0   68.99    4.60
  -2   6   0   63.69    5.60
  -2   6   0   64.59    3.60
   3  -6   0 1388.26   32.30
  -3  -6   0 1419.96   30.90
   3  -6   0 1375.16   31.90
  -3  -6   0 1395.06   29.20
  -3   6   0 1378.56   31.20
  -3   6   0 1289.17   34.20
   4  -6   0  163.68    7.40
  -4  -6   0  166.78    4.20
  -4  -6   0  163.38    6.00
   4  -6   0  158.78    7.40
  -4   6   0  166.28    6.90
  -4   6   0  170.78    8.50
   5  -6   0  214.48    8.30
   5  -6   0  208.48    8.00
  -5  -6   0  204.88    7.00
   5  -6   0  210.88    9.70
  -5  -6   0  204.28    5.10
  -5  -6   0  201.88    5.00
  -5   6   0  202.58    9.60
  -5   6   0  200.98    7.80
  -6  -6   0  296.87   12.60
   6  -6   0  296.37   10.00
   6  -6   0  299.17   10.00
  -6  -6   0  298.97    6.90
  -6  -6   0  294.97    8.70
   6  -6   0  296.87   11.40
  -6   6   0  275.57   10.10
  -6   6   0  283.57   11.90
   7  -6   0  196.28    8.00
   7  -6   0  203.68    7.70
  -7  -6   0  202.68    5.40
   7  -6   0  200.18    9.80
  -7  -6   0  184.68    5.60
  -7  -6   0  198.08   10.50
  -7  -6   0  198.98    7.10
  -7   6   0  204.88    9.50
  -7   6   0  184.68   10.70
  -8  -6   0   53.39    5.10
   8  -6   0   55.89    6.90
  -8  -6   0   54.79    2.90
   8  -6   0   52.79    4.10
   8  -6   0   57.39    3.50
  -8   6   0   51.39    6.40
  -8   6   0   56.59    6.80
   9  -6   0  705.13   23.20
  -9  -6   0  684.73   15.60
  -9  -6   0  683.23   16.90
  -9   6   0  654.53   20.20
   0  -7   0   -2.00    2.20
   0  -7   0   -1.70    1.80
   0  -7   0   -3.50    2.60
   0   7   0    1.90    1.60
   1  -7   0  602.34   15.90
  -1  -7   0  592.74   14.00
  -1  -7   0  600.04   16.30
   1  -7   0  583.14   14.80
   1  -7   0  580.04   16.30
  -1   7   0  590.64   14.50
   1   7   0  594.74   13.80
   2  -7   0   -2.70    2.50
  -2  -7   0   -1.00    1.60
   2  -7   0    3.00    2.60
  -2  -7   0    2.60    3.20
  -2  -7   0    0.40    2.80
  -2   7   0    1.60    2.20
   3  -7   0    7.30    3.60
   3  -7   0    7.70    3.60
  -3  -7   0   10.70    1.50
  -3  -7   0   -0.70    2.90
   3  -7   0    9.60    3.80
  -3  -7   0    7.60    2.80
  -3   7   0    7.90    2.50
  -3   7   0    8.00    4.10
   4  -7   0  214.48    9.00
  -4  -7   0  227.48    8.40
   4  -7   0  235.38    9.70
  -4  -7   0  221.78    5.40
  -4  -7   0  210.98    8.10
   4  -7   0  227.88    9.40
  -4   7   0  203.48    9.50
  -4   7   0  221.48    8.10
  -5  -7   0  155.78    7.00
   5  -7   0  140.39    8.40
   5  -7   0  148.89    8.00
   5  -7   0  149.49    7.90
  -5   7   0  152.68    7.10
  -5   7   0  134.79    9.60
  -6  -7   0 1468.35   36.90
   6  -7   0 1505.85   36.30
   6  -7   0 1496.75   35.50
  -6   7   0 1515.95   35.50
  -6   7   0 1506.85   37.10
   7  -7   0  744.83   19.30
  -7  -7   0  668.43   20.90
  -7   7   0  728.63   21.80
   8  -7   0    3.40    4.00
   8  -7   0    4.10    3.40
   8  -7   0    5.00    5.20
  -8  -7   0    9.30    4.10
  -8   7   0   -3.20    4.40
  -9  -7   0   85.79    7.00
   9  -7   0   88.49   10.80
  -9   7   0   85.79    8.60
   0  -8   0  704.13   18.60
   0  -8   0  717.63   19.60
   0  -8   0  709.83   17.30
   0   8   0  725.03   16.90
   1  -8   0   54.09    5.00
   1  -8   0   59.99    6.30
   1  -8   0   52.09    5.10
  -1  -8   0   51.19    5.90
  -1  -8   0   57.09    4.20
  -1  -8   0   53.59    5.20
  -1   8   0   55.29    4.10
   1   8   0   55.49    3.40
  -2  -8   0   32.80    3.10
  -2  -8   0   37.40    4.30
   2  -8   0   32.80    4.70
  -2  -8   0   26.70    4.30
   2  -8   0   35.30    3.80
   2  -8   0   37.80    5.00
  -2   8   0   38.00    3.60
  -3  -8   0   40.80    4.70
  -3  -8   0   43.20    3.00
  -3  -8   0   42.30    4.50
   3  -8   0   51.79    5.30
   3  -8   0   49.99    5.70
   3  -8   0   51.99    5.40
  -3   8   0   47.20    4.40
   4  -8   0  176.38    9.40
  -4  -8   0  164.38    4.50
  -4  -8   0  169.18    8.30
   4  -8   0  178.68    9.10
   4  -8   0  160.08    9.50
  -4  -8   0  175.78    8.00
  -4   8   0  176.78    8.00
  -5  -8   0   83.29    7.20
   5  -8   0   43.50    5.90
   5  -8   0   50.69    5.90
   5  -8   0   57.59    6.70
  -5   8   0   42.20    6.60
  -5   8   0   45.20    5.40
  -6  -8   0   28.70    6.10
   6  -8   0   18.30    5.10
  -6  -8   0   29.60    4.60
  -6  -8   0   25.40    4.60
   6  -8   0   22.40    5.20
   6  -8   0   16.80    6.10
  -6   8   0   22.10    6.10
  -6   8   0   21.30    4.70
   7  -8   0  121.89    9.90
  -7  -8   0  133.19    8.40
   7  -8   0  127.99    9.50
  -7  -8   0  132.09    8.40
  -7   8   0  147.89    8.90
   8  -8   0   62.59    9.20
  -8  -8   0   62.19    5.80
   8  -8   0   58.29    6.40
  -8  -8   0   57.29    5.90
  -8   8   0   52.39    7.80
   0  -9   0   -7.00    3.30
   0  -9   0   -1.30    2.90
   0  -9   0    4.00    4.10
   0   9   0   -0.60    2.60
  -1  -9   0   61.69    7.30
  -1  -9   0   47.10    3.90
   1  -9   0   49.20    5.30
  -1  -9   0   50.49    4.80
   1  -9   0   45.70    5.50
   1  -9   0   39.60    5.00
   1   9   0   48.70    3.60
  -1   9   0   49.70    4.50
  -2  -9   0    1.40    3.40
  -2  -9   0    0.00    4.10
   2  -9   0   10.20    4.70
  -2  -9   0   -0.80    2.50
   2  -9   0    6.90    3.90
   2  -9   0    8.50    3.40
  -2   9   0    0.50    2.40
  -3  -9   0   98.49    7.70
   3  -9   0   90.19    8.40
  -3  -9   0   93.79    4.30
   3  -9   0   86.59    7.40
   3  -9   0   81.89    8.50
  -3  -9   0   85.19    7.80
  -3   9   0   93.69    6.50
   4  -9   0  313.77   12.00
  -4  -9   0  298.27    7.30
  -4  -9   0  299.07   12.10
  -4  -9   0  301.97   12.00
   4  -9   0  303.87   12.70
   4  -9   0  316.97   13.00
  -4   9   0  302.97   10.50
   5  -9   0  125.79   10.10
   5  -9   0  134.89   10.50
  -5  -9   0  135.69    8.70
  -5  -9   0  126.39    8.60
   5  -9   0  134.69    9.10
  -5   9   0  132.69    8.40
   6  -9   0  154.58   11.60
  -6  -9   0  157.68   10.00
   6  -9   0  156.28   10.50
  -6  -9   0  145.79    9.40
  -6   9   0  149.69    8.90
   7  -9   0   67.59    8.00
   7  -9   0   64.29    7.40
  -7  -9   0   81.79    7.20
  -7  -9   0   84.89    9.80
  -7   9   0   81.79    8.70
   8  -9   0    3.30    6.20
  -8  -9   0    7.70    5.60
  -8  -9   0   15.10    6.60
  -8   9   0   -2.70    7.40
   0 -10   0   57.19    6.90
   0 -10   0   82.19    9.10
   0 -10   0   69.29    7.30
   0  10   0   71.49    5.00
   1 -10   0  209.38   10.60
   1 -10   0  192.28    9.30
  -1 -10   0  195.88    8.20
  -1 -10   0  204.08   10.00
   1 -10   0  193.98   10.40
  -1 -10   0  209.38   10.40
  -1  10   0  192.18    7.70
   1  10   0  199.68    6.90
   2 -10   0   21.80    5.40
   2 -10   0   27.40    6.10
   2 -10   0   15.60    4.40
  -2 -10   0   22.00    4.40
  -2 -10   0   33.20    3.80
  -2 -10   0   30.70    5.90
  -2  10   0   24.20    4.20
  -3 -10   0    6.30    5.20
  -3 -10   0   13.90    2.80
  -3 -10   0   20.10    4.30
   3 -10   0    9.90    4.90
   3 -10   0    8.10    4.60
   3 -10   0   11.70    5.60
  -3  10   0    9.80    3.60
   4 -10   0   -7.80    5.40
  -4 -10   0   -4.20    4.90
   4 -10   0    6.50    5.90
   4 -10   0   -0.50    5.50
  -4 -10   0   10.30    4.90
  -4  10   0    3.30    4.50
  -5 -10   0  324.87   13.10
  -5 -10   0  346.97   14.70
   5 -10   0  309.47   13.80
  -5  10   0  345.07   12.60
  -6 -10   0   49.70    6.80
   6 -10   0   50.99    8.40
   6 -10   0   45.70    6.90
  -6 -10   0   49.60    6.80
  -6  10   0   43.60    6.10
  -7 -10   0  155.68   11.90
   7 -10   0  111.49   10.80
   7 -10   0  123.29   12.00
  -7  10   0  142.19   10.70
  -1 -11   0    5.20    5.50
  -1 -11   0    0.00    4.20
   1 -11   0    4.20    5.40
   1 -11   0   14.60    5.30
   1  11   0    4.20    2.70
  -1  11   0   10.90    3.80
  -2 -11   0    8.50    6.20
  -2 -11   0   21.30    4.20
   2 -11   0   20.50    6.10
   2 -11   0   20.20    6.20
  -2  11   0   26.60    4.40
  -3 -11   0   52.89    5.00
   3 -11   0   49.30    8.20
  -3 -11   0   59.79    7.50
   3 -11   0   54.89    7.00
  -3  11   0   51.69    5.70
   4 -11   0   19.70    6.80
  -4 -11   0   28.10    7.20
  -4  11   0   31.00    5.20
  -5 -11   0  243.88   13.60
   5 -11   0  228.98   15.60
  -5  11   0  224.18   12.20
   6 -11   0   38.60    9.50
  -6 -11   0   52.09    7.60
  -6  11   0   36.40    7.90
   0 -12   0 1362.56   37.10
   0 -12   0 1362.66   33.30
   0  12   0 1421.46   32.20
  -1 -12   0    4.70    5.50
   1 -12   0   15.10    8.30
  -1 -12   0   10.20    7.80
   1 -12   0   16.80    6.50
   1  12   0   16.00    4.10
  -1  12   0   20.60    4.40
  -2 -12   0   21.20    8.10
   2 -12   0   29.40    8.80
  -2 -12   0   27.00    5.50
   2 -12   0   21.50    6.70
  -2  12   0   17.90    4.90
  -3 -12   0    4.60    7.40
   3 -12   0   -6.20    8.00
  -3  12   0   -0.10    5.50
   4 -12   0  153.78   15.40
  -4 -12   0  125.79   13.60
  -4  12   0  121.49   10.90
   0 -13   0   -9.30    5.70
   0 -13   0   11.20    9.40
   0  13   0    2.30    4.30
  -1 -13   0    1.30    7.70
   1 -13   0    2.90    7.10
   1 -13   0   16.30    9.50
  -1  13   0   -2.00    4.70
 -11   0   1  367.46   14.70
 -10   0   1    2.20    4.30
 -10   0   1    7.10    3.50
  10   0  -1    0.20    5.80
   9   0  -1 5778.02  122.99
  -9   0   1 5564.44  119.39
  -9   0   1 5729.03  121.69
  -8   0   1   -0.40    2.10
   8   0  -1    7.90    4.00
  -8   0   1    2.30    1.50
  -8   0   1    6.40    3.40
  -7   0   1  160.38    4.80
  -7   0   1  149.29    4.30
   7   0  -1  146.49    6.80
  -7   0   1  152.58    6.70
  -6   0   1   -0.40    0.90
  -6   0   1    0.50    1.90
  -6   0   1    1.90    1.20
  -5   0   1  226.28    5.30
   5   0  -1  239.18    7.50
  -5   0   1  235.28    7.10
  -5   0   1  229.48    5.40
  -5   0   1  219.78    7.60
   4   0  -1   -0.30    1.40
  -4   0   1   -1.30    1.40
  -4   0   1   -1.60    1.70
  -4   0   1   -0.40    0.50
  -4   0   1    0.30    0.40
  -2   0   1    1.40    0.80
   2   0  -1    1.70    0.70
  -2   0   1    0.00    0.40
  -2   0   1    0.10    0.40
  -1   0   1  627.54   13.40
   1   0  -1  634.24   13.40
  -1   0   1  634.74   13.50
   1   0  -1  621.24   13.40
   0   0  -1   -0.10    0.50
  -1   0  -1 2134.59   44.90
  -2   0  -1    0.10    0.70
   2   0   1   -0.70    0.70
  -2   0  -1    0.40    0.50
   2   0   1    0.30    0.50
   2   0   1    0.30    0.80
  -2   0  -1    0.60    1.00
   3   0   1  625.54   14.70
   3   0   1  631.44   14.10
  -3   0  -1  609.44   13.90
  -3   0  -1  613.54   14.80
  -3   0  -1  611.04   13.60
  -4   0  -1    0.60    1.10
   4   0   1   -0.90    1.90
   4   0   1   -0.10    1.60
  -4   0  -1    1.40    2.10
  -4   0  -1   -0.70    1.10
  -5   0  -1 3802.92   82.29
   5   0   1 3867.41   83.59
   5   0   1 3990.30   82.59
  -5   0  -1 3910.01   83.59
  -5   0  -1 3896.11   81.69
  -6   0  -1   -0.20    2.50
  -6   0  -1    0.50    1.60
  -6   0  -1   -1.40    1.70
   6   0   1    1.00    2.20
  -7   0  -1   29.50    2.80
  -7   0  -1   22.50    2.90
   7   0   1   24.10    4.10
  -8   0  -1   -0.40    2.70
   8   0   1   -3.00    3.00
  -8   0  -1    2.90    2.70
  -9   0  -1    5.40    3.50
  -9   0  -1   -1.40    3.30
 -10   0  -1   -3.50    4.10
  10   0   1   -1.40    5.90
 -11   0  -1  207.58   11.00
  11   0   1  230.38   13.80
  11  -1  -1 1408.76   37.00
 -11   1   1 1364.56   34.90
  10  -1  -1    8.30    6.40
 -10  -1   1   18.50    3.00
 -10  -1   1   16.00    4.50
 -10   1   1   21.60    4.50
 -10   1   1   16.30    5.70
  -9  -1   1   25.00    2.50
   9  -1  -1   26.30    5.40
  -9  -1   1   26.50    4.50
  -9   1   1   19.80    4.60
  -9   1   1   21.60    3.80
  -8  -1   1  868.11   23.00
   8  -1  -1  855.41   22.60
  -8  -1   1  879.31   21.50
  -8  -1   1  851.71   18.60
  -8  -1   1  869.21   18.90
  -8   1   1  873.61   20.30
  -8   1   1  864.41   22.00
  -8   1   1  862.61   19.70
  -7  -1   1  395.26   12.70
   7  -1  -1  409.26   12.60
  -7  -1   1  413.96   11.40
  -7   1   1  415.36   10.00
  -7   1   1  412.56   10.60
   7   1  -1  414.56   12.60
  -7   1   1  391.66   11.70
  -6  -1   1 3235.88   82.99
   6  -1  -1 3948.41   82.09
  -6  -1   1 3951.10   81.19
  -6   1   1 3878.21   81.49
   6   1  -1 3872.41   81.89
  -6   1   1 3920.11   80.19
  -5  -1   1  465.65   11.70
   5  -1  -1  456.95   12.20
  -5  -1   1  484.05   12.60
  -5   1   1  455.95   10.70
  -5   1   1  465.25   12.10
   5   1  -1  459.15   12.10
  -5   1   1  458.75   11.00
   4  -1  -1  952.00   21.60
  -4  -1   1  929.71   21.70
  -4   1   1  956.40   21.60
   4   1  -1  922.11   21.50
  -4   1   1  940.81   20.50
  -4   1   1  953.80   20.70
   3  -1  -1 7956.50  173.08
  -3   1   1 7899.71  173.28
   2  -1  -1  411.36    9.20
  -2  -1   1  417.36    9.60
   2  -1  -1  410.76    9.30
  -2   1   1  404.86    9.30
  -2   1   1  430.86    9.50
  -1  -1   1 1822.42   43.80
  -1   1   1 1875.71   45.20
   1   1  -1 1807.72   43.70
   0  -1  -1  235.28    5.60
   0  -1   1  235.78    5.40
   0  -1   1  236.68    5.70
   0   1  -1  238.28    5.40
   0   1   1  233.08    5.60
   0   1  -1  233.48    5.70
  -1  -1  -1  705.83   15.00
   1  -1   1  725.03   15.80
  -1  -1  -1  730.23   15.60
  -1  -1  -1  725.93   15.40
   1  -1   1  721.33   15.50
  -1   1  -1  706.03   15.50
   1   1   1  705.73   15.00
   1   1   1  700.03   15.30
  -1   1  -1  722.93   15.80
  -2  -1  -1 2079.39   44.10
   2  -1   1 2043.60   43.70
   2  -1   1 2110.59   44.10
   2  -1   1 2067.49   43.70
  -2   1  -1 2097.59   43.80
   2   1   1 2030.00   44.00
  -2   1  -1 2036.60   43.70
   3  -1   1 3900.21   81.89
  -3  -1  -1 4005.10   82.39
   3  -1   1 3830.12   82.39
   3   1   1 3882.01   82.29
  -3   1  -1 3843.02   81.79
   4  -1   1  202.98    6.90
   4  -1   1  202.48    6.20
  -4  -1  -1  205.98    5.00
  -4  -1  -1  199.28    6.80
  -4  -1  -1  199.88    5.40
   4   1   1  193.18    6.60
  -4   1  -1  212.48    6.00
   4   1   1  196.98    5.70
  -4   1  -1  209.58    6.10
   5  -1   1  512.25   13.10
   5  -1   1  489.85   13.50
  -5  -1  -1  509.95   11.40
  -5  -1  -1  503.05   12.10
  -5  -1  -1  508.85   13.90
  -5   1  -1  500.45   12.50
   5   1   1  504.05   13.70
  -5   1  -1  504.65   12.30
   6  -1   1    0.40    2.90
   6  -1   1   -3.10    2.20
  -6  -1  -1   -2.00    2.70
  -6  -1  -1    0.30    1.40
  -6  -1  -1    0.10    1.50
  -6   1  -1   -1.40    1.90
   6   1   1    3.90    2.50
  -6   1  -1   -2.90    2.00
  -7  -1  -1  480.15   11.70
  -7  -1  -1  486.55   12.60
  -7  -1  -1  476.95   15.10
   7  -1   1  461.45   14.30
  -7   1  -1  498.75   12.70
   7   1   1  470.95   14.40
  -7   1  -1  472.05   12.90
  -8  -1  -1   82.69    5.20
  -8  -1  -1   83.59    4.80
  -8  -1  -1   84.29    7.90
   8  -1   1   82.99    6.70
  -8   1  -1   92.19    5.80
  -8   1  -1   86.49    5.40
   8   1   1   82.29    6.50
  -9  -1  -1   -1.20    3.40
  -9  -1  -1    3.60    3.50
  -9   1  -1    3.20    3.00
  -9   1  -1    0.30    3.70
 -10  -1  -1   40.30    4.70
  10  -1   1   22.50    7.20
 -10  -1  -1   36.20    5.30
 -10   1  -1   41.30    6.00
 -10   1  -1   30.80    5.20
  11  -1   1  106.09    9.70
 -11  -1  -1   96.79    8.10
 -11   1  -1   89.39    7.90
  11  -2  -1   14.90    8.60
 -11  -2   1   33.70    5.70
 -11   2   1   20.90    7.10
  10  -2  -1  646.94   20.80
 -10  -2   1  619.34   17.50
 -10   2   1  635.74   18.10
   9  -2  -1    5.50    4.00
  -9  -2   1    7.20    5.60
  -9  -2   1    4.40    3.30
  -9   2   1    1.00    3.40
  -8  -2   1 1459.05   34.20
  -8  -2   1 1505.75   36.60
   8  -2  -1 1526.25   36.10
  -8   2   1 1511.55   34.20
  -8   2   1 1523.05   35.20
  -7  -2   1   32.50    3.20
  -7  -2   1   27.50    4.00
   7  -2  -1   29.30    4.10
  -7   2   1   31.80    3.30
  -7   2   1   21.70    2.30
  -7   2   1   26.20    3.30
   6  -2  -1  175.48    7.50
  -6  -2   1  184.68    6.20
  -6  -2   1  186.58    7.50
  -6   2   1  178.08    6.40
  -6   2   1  177.08    5.60
  -6   2   1  178.88    6.80
  -5  -2   1   25.60    3.20
   5  -2  -1   24.20    2.60
  -5   2   1   28.60    2.00
  -5   2   1   23.80    2.70
  -5   2   1   26.70    2.50
   4  -2  -1  204.88    5.20
   4  -2  -1  208.88    5.20
   4  -2  -1  194.18    6.30
  -4  -2   1  203.68    6.60
  -4   2   1  215.58    6.20
  -4   2   1  202.98    6.50
  -4   2   1  207.98    5.70
   3  -2  -1  795.62   17.30
   3  -2  -1  731.03   18.10
  -3  -2   1  785.22   18.00
  -3   2   1  804.82   18.20
  -3   2   1  808.72   17.90
  -3   2   1  794.72   17.60
   2  -2  -1 3667.93   75.79
  -2   2   1 3631.84   76.09
  -2   2   1 3648.03   76.09
  -2   2   1 3510.95   75.99
  -1  -2   1  242.48    5.70
  -1  -2   1  251.37    6.00
   1  -2  -1  247.48    6.10
  -1   2   1  221.68    6.40
   1   2  -1  241.88    5.90
   1  -2   1  817.72   17.60
  -1  -2  -1  781.42   17.50
   1  -2   1  797.82   18.00
  -1   2  -1  793.12   17.50
  -1   2  -1  830.62   18.10
   1   2   1  809.72   17.40
   1   2   1  785.82   16.80
  -2  -2  -1 1428.16   31.00
   2  -2   1 1459.35   31.70
   2  -2   1 1472.25   31.50
  -2   2  -1 1453.75   31.50
  -2   2  -1 1490.75   31.80
  -3  -2  -1 3202.28   68.49
   3  -2   1 3245.58   68.19
   3  -2   1 3226.28   67.69
   3  -2   1 3237.58   67.99
  -3   2  -1 3245.88   68.29
  -3   2  -1 3148.19   68.09
   4  -2   1 5179.28  107.99
   4  -2   1 5069.49  108.49
  -4  -2  -1 5140.49  108.49
  -4   2  -1 5099.19  107.79
  -4   2  -1 5114.59  107.79
  -5  -2  -1   42.70    2.10
  -5  -2  -1   40.30    2.30
  -5  -2  -1   38.90    4.20
   5  -2   1   41.60    4.30
   5  -2   1   46.80    4.50
   5  -2   1   38.00    1.70
   5  -2   1   39.40    1.70
  -5   2  -1   37.40    3.10
  -5   2  -1   40.40    3.50
   6  -2   1  458.65   13.60
  -6  -2  -1  462.55   11.40
  -6  -2  -1  463.75   13.80
  -6  -2  -1  472.85   10.80
   6  -2   1  487.85   13.40
  -6   2  -1  465.85   12.50
  -6   2  -1  480.65   12.80
  -7  -2  -1  900.31   20.70
  -7  -2  -1  884.61   19.80
  -7  -2  -1  899.61   23.40
   7  -2   1  888.71   23.40
  -7   2  -1  888.71   21.90
  -7   2  -1  911.41   21.80
   8  -2   1    3.00    4.30
  -8  -2  -1    2.30    2.60
  -8  -2  -1    6.30    2.20
  -8  -2  -1    3.90    4.30
  -8   2  -1    7.10    2.90
  -8   2  -1    2.30    3.70
  -9  -2  -1   14.10    3.60
  -9  -2  -1   19.10    3.20
   9  -2   1   12.90    6.90
  -9   2  -1    9.00    4.80
  -9   2  -1    6.80    4.20
 -10  -2  -1   64.39    6.10
  10  -2   1   69.89    7.70
 -10  -2  -1   63.79    7.00
 -10   2  -1   77.39    7.50
 -10   2  -1   68.79    7.00
  10  -3  -1  293.87   13.70
 -10  -3   1  290.77   10.60
 -10   3   1  287.07   13.80
 -10   3   1  319.07   12.50
  -9  -3   1   17.30    3.90
   9  -3  -1    5.50    4.30
  -9  -3   1   14.00    6.00
  -9   3   1    0.30    4.60
  -9   3   1    4.00    3.60
  -8  -3   1  435.46   15.00
   8  -3  -1  469.25   15.10
  -8  -3   1  436.46   12.30
  -8   3   1  450.45   14.10
  -8   3   1  445.56   13.90
  -7  -3   1  535.45   16.00
  -7  -3   1  526.05   13.90
   7  -3  -1  552.54   16.00
  -7   3   1  556.54   15.20
  -7   3   1  556.74   14.00
  -6  -3   1  277.67    9.70
  -6  -3   1  280.37    8.00
   6  -3  -1  268.37    9.70
  -6   3   1  288.97    9.50
  -6   3   1  269.07    8.20
  -6   3   1  284.37    9.20
   5  -3  -1   12.90    1.50
   5  -3  -1   13.60    1.70
  -5  -3   1   10.40    3.00
   5  -3  -1   13.80    2.70
  -5   3   1   13.50    2.50
  -5   3   1   10.00    2.30
  -5   3   1   11.40    1.80
   4  -3  -1  127.29    4.50
  -4  -3   1  132.19    5.30
   4  -3  -1  136.09    4.50
  -4   3   1  127.79    4.60
  -4   3   1  135.49    5.30
  -4   3   1  132.49    5.10
   3  -3  -1    7.10    1.60
   3  -3  -1    6.10    1.60
  -3   3   1    7.80    2.10
  -3   3   1    6.70    1.70
  -3   3   1    5.70    1.50
   2  -3  -1   49.40    2.90
   2  -3  -1   54.19    2.90
   2  -3  -1   47.30    2.80
  -2  -3   1   47.50    2.40
  -2   3   1   48.50    2.60
  -2   3   1   43.90    2.60
   1  -3  -1 3175.58   66.09
   1  -3  -1 3134.69   66.39
   1  -3  -1 3114.69   65.79
  -1  -3   1 3114.29   66.09
   1   3  -1 3131.79   65.89
  -1   3   1 3104.59   65.79
  -1   3   1 3112.09   66.09
   0  -3   1 8808.42  200.58
   0  -3  -1 8947.50  200.18
   0   3   1 9101.09  200.88
   0   3  -1 9045.79  201.68
   1  -3   1 3517.05   75.09
   1  -3   1 3555.64   74.49
  -1  -3  -1 3563.34   74.49
  -1   3  -1 3560.74   75.09
  -1   3  -1 3528.35   74.39
   2  -3   1 2724.83   58.19
  -2  -3  -1 2731.93   57.39
   2  -3   1 2748.02   57.89
  -2   3  -1 2654.43   57.79
  -2   3  -1 2751.42   58.29
  -3  -3  -1 2336.57   49.20
   3  -3   1 2353.36   50.19
   3  -3   1 2298.57   50.19
   3  -3   1 2355.86   49.80
  -3  -3  -1 2232.28   48.40
  -3  -3  -1 2324.07   50.39
  -3   3  -1 2348.97   50.09
  -3   3  -1 2389.06   50.49
   4  -3   1 1115.39   25.10
   4  -3   1 1142.69   25.70
  -4  -3  -1 1104.79   24.20
  -4  -3  -1 1089.79   23.80
   4  -3   1 1139.29   24.80
  -4  -3  -1 1123.89   26.00
  -4   3  -1 1144.79   25.80
  -4   3  -1 1103.69   25.40
  -5  -3  -1 1001.00   21.90
   5  -3   1 1006.00   22.50
   5  -3   1  985.70   25.30
   5  -3   1  985.40   24.30
  -5  -3  -1  979.40   21.80
  -5  -3  -1 1037.30   24.40
   5  -3   1 1007.60   22.30
  -5   3  -1 1023.30   23.50
  -5   3  -1 1036.40   23.80
   6  -3   1 2779.02   63.59
  -6  -3  -1 2986.50   63.89
   6  -3   1 2753.82   60.09
  -6  -3  -1 2850.81   60.79
  -6  -3  -1 2843.02   60.49
   6  -3   1 2971.50   63.19
  -6   3  -1 2908.21   62.59
  -6   3  -1 2910.41   62.49
   7  -3   1   35.00    4.50
  -7  -3  -1   35.80    2.90
  -7  -3  -1   31.70    5.60
  -7  -3  -1   33.80    3.10
   7  -3   1   36.70    4.40
  -7   3  -1   38.40    3.90
  -8  -3  -1  116.79    5.10
  -8  -3  -1  110.69    4.80
   8  -3   1  118.89    8.70
  -8  -3  -1   85.19    8.10
  -8   3  -1  114.39    6.50
  -8   3  -1  112.69    7.70
   9  -3   1  757.12   22.40
  -9  -3  -1  727.53   17.80
  -9  -3  -1  754.52   18.50
  -9   3  -1  780.62   20.40
  -9   3  -1  770.22   21.40
 -10  -3  -1  437.56   12.60
 -10  -3  -1  424.76   11.90
  10  -3   1  448.16   17.10
 -10   3  -1  420.96   14.70
 -10   3  -1  435.56   16.50
  10  -4  -1   -1.20    6.10
 -10  -4   1    7.30    4.20
 -10   4   1    2.30    6.60
 -10   4   1    6.90    5.00
  -9  -4   1    5.80    3.50
  -9   4   1    7.00    5.10
  -9   4   1   -1.50    4.20
   8  -4  -1  124.49    8.70
  -8  -4   1  116.79    9.10
  -8  -4   1  111.99    5.90
  -8   4   1  101.99    8.10
  -8   4   1  118.09    7.30
  -7  -4   1  179.68    6.30
   7  -4  -1  182.48    9.10
  -7  -4   1  178.18   10.20
  -7   4   1  181.98    8.50
  -7   4   1  193.48    8.50
   6  -4  -1   25.50    2.90
  -6  -4   1   21.90    2.40
  -6  -4   1   27.90    4.60
   6  -4  -1   25.20    2.70
   6  -4  -1   26.40    3.90
  -6   4   1   26.40    3.50
  -6   4   1   27.70    3.10
  -6   4   1   25.60    3.70
  -5  -4   1  688.63   17.90
   5  -4  -1  705.83   16.40
   5  -4  -1  683.23   16.60
  -5   4   1  675.23   17.40
  -5   4   1  713.43   17.00
  -5   4   1  685.83   17.60
   4  -4  -1   44.60    3.40
   4  -4  -1   39.70    3.50
  -4   4   1   33.00    3.40
  -4   4   1   38.30    4.40
  -4   4   1   40.80    3.40
   3  -4  -1  536.95   13.70
   3  -4  -1  542.05   13.80
  -3  -4   1  534.95   12.10
   3  -4  -1  553.04   13.30
  -3  -4   1  520.95   12.80
  -3   4   1  548.15   13.50
  -3   4   1  541.65   14.00
  -3   4   1  536.05   13.40
  -2  -4   1   16.50    1.80
  -2  -4   1   13.60    1.70
   2  -4  -1   13.10    2.30
   2  -4  -1   16.20    2.20
   2  -4  -1   13.60    2.30
  -2   4   1   15.60    1.90
  -2   4   1   13.30    2.00
   1  -4  -1  126.79    4.50
   1  -4  -1  134.39    5.00
   1  -4  -1  130.39    5.00
  -1  -4   1  133.69    3.90
  -1  -4   1  128.59    4.80
   1   4  -1  137.69    3.90
  -1   4   1  135.89    4.30
  -1   4   1  131.79    4.60
   0  -4   1  285.37    7.30
   0  -4   1  281.07    8.10
   0   4  -1  286.97    8.20
   0   4   1  313.97    7.10
   0   4  -1  278.57    7.10
   1  -4   1  387.66   10.60
  -1  -4  -1  399.46    9.00
   1  -4   1  413.06   10.00
  -1  -4  -1  401.86   10.20
  -1   4  -1  412.66   10.80
  -1   4  -1  404.96    9.80
   1   4   1  405.06    8.90
   2  -4   1  359.36    9.40
  -2  -4  -1  357.56    9.20
   2  -4   1  355.06   10.00
  -2   4  -1  366.26   10.30
  -2   4  -1  354.46    9.20
  -3  -4  -1 4053.99   86.49
   3  -4   1 4100.69   87.69
   3  -4   1 4149.58   87.39
   3  -4   1 4101.59   87.09
  -3   4  -1 4030.70   87.19
  -3   4  -1 4259.47   87.99
   4  -4   1  224.38    8.20
   4  -4   1  231.38    7.30
  -4  -4  -1  231.68    6.40
   4  -4   1  231.18    7.40
  -4  -4  -1  233.48    8.50
  -4   4  -1  229.18    7.30
  -4   4  -1  233.28    8.30
   5  -4   1 4303.37   91.29
  -5  -4  -1 4154.38   89.89
  -5  -4  -1 4295.37   90.69
   5  -4   1 4463.25   92.79
  -5  -4  -1 4482.45   93.19
   5  -4   1 4208.48   91.69
  -5   4  -1 4350.06   92.29
   6  -4   1 1428.36   34.20
  -6  -4  -1 1448.66   31.30
   6  -4   1 1473.05   34.10
   6  -4   1 1439.56   31.60
  -6  -4  -1 1415.96   30.80
  -6  -4  -1 1448.85   34.40
   6  -4   1 1454.45   31.80
  -6   4  -1 1408.26   34.00
  -6   4  -1 1454.25   33.30
  -7  -4  -1   66.19    3.20
  -7  -4  -1   67.19    6.70
  -7  -4  -1   60.99    3.90
   7  -4   1   74.59    7.30
   7  -4   1   53.19    5.90
  -7   4  -1   59.49    6.90
  -7   4  -1   59.39    6.00
  -8  -4  -1   26.30    2.60
   8  -4   1   26.60    5.00
  -8  -4  -1   25.00    2.90
  -8  -4  -1   23.70    6.00
  -8   4  -1   22.60    4.60
  -8   4  -1   18.30    5.00
  -9  -4  -1  744.73   18.10
   9  -4   1  739.83   23.40
  -9  -4  -1  769.82   18.00
  -9   4  -1  769.42   22.00
  -9   4  -1  771.62   21.00
  10  -4   1  377.76   16.40
 -10  -4  -1  349.57   10.70
 -10  -4  -1  374.66   10.80
 -10   4  -1  372.86   14.10
 -10   4  -1  334.47   16.20
  10  -5  -1   56.69    9.40
 -10  -5   1   66.59    6.40
 -10  -5   1   61.19    4.20
 -10   5   1   65.79    7.30
   9  -5  -1   36.90    7.40
  -9  -5   1   30.20    2.80
  -9  -5   1   28.20    3.90
  -9   5   1   22.70    5.90
  -9   5   1   12.90    6.10
  -8  -5   1   37.70    5.80
  -8  -5   1   44.60    4.40
   8  -5  -1   41.60    6.30
  -8   5   1   43.90    6.70
  -8   5   1   38.60    5.40
   7  -5  -1 2192.88   49.30
   7  -5  -1 2054.99   45.70
  -7  -5   1 2145.49   46.30
   7  -5  -1 2128.09   45.90
  -7  -5   1 2079.19   49.30
  -7   5   1 2158.78   48.70
  -7   5   1 2185.98   49.00
   6  -5  -1  776.82   19.10
   6  -5  -1  780.52   18.70
  -6  -5   1  816.42   21.40
  -6   5   1  779.22   20.20
  -6   5   1  791.32   20.90
   5  -5  -1  371.86   10.40
  -5  -5   1  368.06   11.60
   5  -5  -1  373.06   10.70
  -5   5   1  364.26   11.10
  -5   5   1  362.46   12.00
   4  -5  -1  269.57    8.40
   4  -5  -1  259.37    8.60
  -4  -5   1  254.37    6.60
   4  -5  -1  271.77    9.50
  -4  -5   1  255.07    7.50
  -4   5   1  280.47    8.70
  -4   5   1  250.47    9.30
  -3  -5   1 1334.17   30.60
  -3  -5   1 1353.76   29.50
   3  -5  -1 1358.26   31.60
   3  -5  -1 1424.66   31.30
   3  -5  -1 1416.76   31.10
  -3   5   1 1378.66   31.00
   2  -5  -1  328.37    9.30
  -2  -5   1  323.47    9.30
   2  -5  -1  334.87   10.10
   2  -5  -1  325.57    9.10
  -2  -5   1  336.97    8.00
  -2   5   1  323.77    9.00
   1  -5  -1 1468.25   32.00
  -1  -5   1 1435.76   31.40
   1  -5  -1 1493.35   32.60
   1  -5  -1 1445.06   33.00
  -1  -5   1 1465.95   32.80
  -1   5   1 1432.46   31.80
   1   5  -1 1465.95   31.40
   0  -5   1   64.29    3.30
   0  -5   1   63.39    3.90
   0  -5  -1   63.19    3.00
   0  -5  -1   66.89    4.30
   0  -5  -1   62.59    3.70
   0   5  -1   61.89    3.00
   0   5  -1   65.59    4.50
   0   5   1   64.19    2.60
   1  -5   1    4.70    1.90
   1  -5   1    0.50    1.80
  -1   5  -1    1.50    1.30
   1   5   1    1.90    1.40
  -1   5  -1    2.40    2.60
   2  -5   1 1488.55   34.40
   2  -5   1 1517.55   33.60
  -2  -5  -1 1512.25   33.40
   2  -5   1 1535.45   33.90
  -2   5  -1 1476.55   33.40
  -2   5  -1 1565.04   34.70
   3  -5   1  406.76   12.00
   3  -5   1  422.76   11.60
  -3  -5  -1  428.36   11.00
   3  -5   1  445.16   11.90
  -3   5  -1  409.66   13.50
  -3   5  -1  418.56   11.20
   4  -5   1   58.69    4.70
   4  -5   1   68.49    4.70
  -4  -5  -1   74.89    4.10
   4  -5   1   70.69    7.40
  -4   5  -1   60.19    4.20
  -4   5  -1   64.09    5.80
   5  -5   1  368.76   10.60
  -5  -5  -1  381.66   12.10
   5  -5   1  372.36   12.20
   5  -5   1  362.86   10.90
  -5  -5  -1  371.96    9.90
  -5   5  -1  373.16   12.30
  -5   5  -1  365.76   11.20
   6  -5   1 1722.13   38.70
   6  -5   1 1726.03   40.20
   6  -5   1 1721.23   38.20
  -6  -5  -1 1753.32   41.00
  -6  -5  -1 1699.93   36.20
  -6  -5  -1 1723.13   37.80
  -6   5  -1 1750.82   39.60
  -6   5  -1 1743.73   40.30
   7  -5   1   36.40    4.00
   7  -5   1   30.20    3.00
   7  -5   1   27.50    5.20
   7  -5   1   35.60    5.60
  -7  -5  -1   36.10    3.20
  -7  -5  -1   28.30    6.10
  -7   5  -1   32.10    5.50
  -7   5  -1   23.60    4.50
  -8  -5  -1  109.49    5.60
   8  -5   1  110.09    8.60
  -8  -5  -1  112.89   10.30
  -8  -5  -1  108.69    3.80
  -8   5  -1   94.59    9.70
   9  -5   1    2.40    5.90
  -9  -5  -1    4.80    3.40
  -9  -5  -1    3.10    1.90
  -9   5  -1   14.90    6.10
  -9   5  -1    6.40    5.50
  10  -5   1   40.50    9.40
 -10  -5  -1   23.80    3.00
 -10   5  -1   24.00    7.20
  10  -6  -1 1200.58   34.10
 -10  -6   1 1224.88   27.90
 -10   6   1 1267.97   32.50
  -9  -6   1  151.98    6.40
  -9  -6   1  159.78    6.80
  -9  -6   1  159.68    6.50
   9  -6  -1  151.78   13.00
  -9   6   1  165.08   10.30
  -8  -6   1  140.99    6.00
  -8  -6   1  146.29    5.80
  -8  -6   1  141.29   13.00
   8  -6  -1  152.38    9.60
  -8  -6   1  143.49    6.40
  -8   6   1  157.08    8.90
  -8   6   1  139.69   10.50
   7  -6  -1    8.70    4.10
   7  -6  -1    4.50    3.20
   7  -6  -1    1.40    3.40
  -7  -6   1    3.50    2.00
  -7  -6   1    8.00    5.70
  -7  -6   1    5.30    2.40
  -7   6   1   12.10    3.90
  -7   6   1    5.10    5.20
  -6  -6   1  724.53   17.80
   6  -6  -1  728.43   18.90
  -6  -6   1  742.53   20.40
  -6  -6   1  739.03   16.60
   6  -6  -1  720.43   18.50
  -6   6   1  731.63   19.60
  -6   6   1  733.83   20.50
   5  -6  -1  128.09    7.00
   5  -6  -1  109.69    6.40
  -5  -6   1  119.89    4.20
  -5  -6   1  110.29    5.40
  -5   6   1  121.29    8.00
  -5   6   1  109.69    6.20
  -4  -6   1 2469.05   54.59
   4  -6  -1 2598.34   55.59
  -4  -6   1 2397.56   52.99
   4  -6  -1 2556.34   55.79
  -4   6   1 2541.15   55.19
   3  -6  -1  156.78    7.10
  -3  -6   1  150.98    4.60
  -3  -6   1  147.39    6.20
  -3   6   1  155.38    5.90
  -2  -6   1 1217.78   28.80
   2  -6  -1 1301.77   28.50
   2  -6  -1 1230.48   29.30
  -2  -6   1 1201.28   27.00
  -2   6   1 1273.47   28.10
   1  -6  -1  106.29    6.70
  -1  -6   1  120.69    4.20
   1  -6  -1  104.89    6.10
   1  -6  -1  105.69    4.90
  -1  -6   1  106.59    5.60
  -1   6   1  116.39    4.40
   1   6  -1  109.39    4.00
   0  -6  -1  791.42   18.20
   0  -6  -1  793.52   19.20
   0  -6  -1  794.92   20.00
   0  -6   1  792.42   19.80
   0  -6   1  826.92   18.50
   0   6  -1  789.72   18.20
   0   6   1  782.22   17.90
   1  -6   1  196.08    6.50
  -1  -6  -1  172.88    6.60
  -1  -6  -1  180.88    5.20
   1  -6   1  172.38    7.00
  -1   6  -1  194.38    7.90
  -1   6  -1  183.88    5.90
   1   6   1  179.18    4.80
   2  -6   1  424.96   11.30
   2  -6   1  421.76   12.40
   2  -6   1  371.96   12.60
  -2  -6  -1  414.46    9.40
  -2  -6  -1  433.36   11.40
  -2   6  -1  413.66   12.30
  -2   6  -1  419.06   11.00
   3  -6   1   23.10    3.50
   3  -6   1   25.90    3.30
   3  -6   1   19.70    3.00
  -3   6  -1   21.10    3.60
  -3   6  -1   18.00    2.60
   4  -6   1  192.48    8.60
  -4  -6  -1  204.08    7.30
   4  -6   1  210.48    7.90
   4  -6   1  207.38    8.30
  -4   6  -1  207.38    7.70
  -4   6  -1  190.68    9.30
   5  -6   1    7.50    3.60
  -5  -6  -1    1.70    3.40
   5  -6   1    1.90    3.30
  -5  -6  -1    3.20    2.60
  -5   6  -1   11.60    4.40
  -5   6  -1    3.40    2.60
   6  -6   1  860.31   22.10
   6  -6   1  900.71   21.80
  -6  -6  -1  889.71   20.90
   6  -6   1  884.21   23.30
  -6  -6  -1  886.41   23.70
  -6   6  -1  872.11   23.90
  -6   6  -1  889.91   22.60
   7  -6   1    4.50    3.40
   7  -6   1    6.60    4.30
  -7  -6  -1   -0.70    4.40
   7  -6   1   -1.20    4.90
   7  -6   1    3.90    3.30
  -7   6  -1   10.90    5.70
  -7   6  -1   -0.90    4.00
   8  -6   1    5.00    6.70
   8  -6   1    4.30    2.90
  -8  -6  -1    9.50    3.70
   8  -6   1    4.80    2.30
  -8   6  -1  -10.80    5.60
  -8   6  -1   -3.50    4.90
   9  -6   1   14.60    8.20
  -9   6  -1   15.50    6.40
  -9  -7   1   11.70    2.30
  -9  -7   1    6.40    3.80
  -9  -7   1   14.90    3.70
  -9  -7   1    9.50    2.80
   9  -7  -1   -0.40    8.10
  -9   7   1   18.60    6.80
  -8  -7   1   20.50    4.00
   8  -7  -1   22.80    4.10
   8  -7  -1   22.90    6.10
  -8  -7   1   24.50    2.80
   8  -7  -1   21.80    3.70
  -8  -7   1   20.60    2.40
  -8   7   1   17.20    5.20
  -7  -7   1  940.31   23.10
   7  -7  -1  973.90   24.00
   7  -7  -1  935.01   25.40
  -7  -7   1  970.70   21.10
  -7  -7   1  951.60   26.60
  -7  -7   1  967.80   21.30
  -7   7   1  930.41   27.50
  -6  -7   1   54.99    6.00
  -6  -7   1   59.79    3.40
   6  -7  -1   56.89    5.50
  -6  -7   1   55.69    5.40
  -6   7   1   54.19    5.90
  -5  -7   1   -3.50    2.80
   5  -7  -1    0.70    3.70
   5  -7  -1   -2.40    3.60
  -5  -7   1    2.00    1.60
  -5   7   1    2.90    2.80
  -4  -7   1    3.40    1.70
   4  -7  -1    2.20    3.60
  -4  -7   1    6.80    3.20
   4  -7  -1    1.40    3.50
   4  -7  -1    5.40    3.60
  -4   7   1    9.70    2.70
  -3  -7   1 1164.48   28.30
   3  -7  -1 1206.78   29.30
   3  -7  -1 1194.28   28.50
   3  -7  -1 1227.88   28.60
  -3  -7   1 1189.58   26.10
  -3   7   1 1186.68   27.80
  -2  -7   1  144.49    5.00
  -2  -7   1  134.29    7.00
   2  -7  -1  142.89    7.40
   2  -7  -1  140.19    6.70
   2  -7  -1  147.29    6.20
  -2   7   1  138.29    5.90
   1  -7  -1  769.82   20.10
   1  -7  -1  783.62   18.40
  -1  -7   1  745.93   17.60
   1  -7  -1  766.62   19.20
  -1  -7   1  757.92   19.70
   1   7  -1  745.43   17.50
  -1   7   1  748.73   17.80
   0  -7  -1  310.37    9.90
   0  -7  -1  288.27   10.20
   0  -7   1  292.97    8.40
   0  -7  -1  298.47    8.50
   0  -7   1  293.87   10.40
   0   7   1  289.87    7.80
   0   7  -1  295.67    8.30
  -1  -7  -1    0.50    1.60
   1  -7   1    5.90    2.90
   1  -7   1    3.80    2.20
   1  -7   1    3.90    2.50
  -1  -7  -1   -4.40    3.00
  -1  -7  -1    2.60    2.40
  -1   7  -1    1.80    2.20
   1   7   1    2.70    1.20
  -1   7  -1   -4.40    3.40
  -2  -7  -1  358.76   12.50
  -2  -7  -1  382.16    9.10
   2  -7   1  404.36   12.00
   2  -7   1  401.26   12.60
   2  -7   1  394.66   11.40
  -2   7  -1  389.36   12.50
  -2   7  -1  396.76   10.90
   2   7   1  353.06    9.20
   3  -7   1  818.62   20.30
   3  -7   1  815.62   21.30
  -3  -7  -1  762.42   21.00
   3  -7   1  814.12   20.20
  -3   7  -1  787.22   19.50
  -3   7  -1  776.32   21.00
   4  -7   1  181.68    8.40
  -4  -7  -1  154.18    8.40
   4  -7   1  157.08    7.70
   4  -7   1  177.78    8.90
  -4   7  -1  168.48    9.60
  -4   7  -1  156.78    6.90
  -5  -7  -1  208.18    7.90
   5  -7   1  207.98   10.50
   5  -7   1  216.58    9.60
   5  -7   1  208.88    9.20
  -5   7  -1  220.58    8.90
  -5   7  -1  206.88   11.00
   6  -7   1  557.84   16.40
  -6  -7  -1  564.04   15.20
   6  -7   1  571.04   16.50
  -6  -7  -1  547.15   17.50
   6  -7   1  550.74   17.60
  -6   7  -1  570.34   16.20
  -6   7  -1  572.14   18.40
   7  -7   1   19.00    5.10
  -7  -7  -1   27.50    4.30
   7  -7   1   19.70    4.80
  -7   7  -1   20.10    6.00
  -7   7  -1   14.50    4.40
  -8  -7  -1  123.19    8.50
   8  -7   1  111.19    7.50
   8  -7   1  134.89   12.00
   8  -7   1  126.49    7.40
  -8   7  -1  121.99   10.00
  -9  -7  -1   15.80    4.70
   9  -7   1   16.00    7.70
  -9   7  -1    9.00    6.90
   8  -8  -1   27.70    8.20
  -8  -8   1   32.80    5.40
  -8  -8   1   34.90    5.00
   8  -8  -1   29.30    5.80
  -8   8   1   27.00    5.90
   7  -8  -1   69.99    6.90
  -7  -8   1   72.89    7.30
  -7  -8   1   81.69    7.50
  -7  -8   1   71.89    3.40
   7  -8  -1   66.29    6.90
  -7   8   1   69.69    7.50
  -6  -8   1    0.90    4.10
  -6  -8   1    1.80    1.80
   6  -8  -1   10.00    4.90
   6  -8  -1   -3.70    5.00
  -6  -8   1   -0.50    3.80
  -6   8   1   -6.40    4.00
   5  -8  -1  349.67   12.60
  -5  -8   1  342.67   12.00
  -5  -8   1  351.86    8.60
   5  -8  -1  322.77   12.90
  -5   8   1  340.87   11.90
  -4  -8   1    6.10    3.50
   4  -8  -1    0.80    4.20
   4  -8  -1    5.00    4.90
   4  -8  -1    2.80    3.50
  -4  -8   1    6.60    2.00
  -4   8   1    9.60    3.50
   3  -8  -1   74.89    6.30
  -3  -8   1   71.29    6.40
   3  -8  -1   71.49    7.10
   3  -8  -1   67.79    5.70
  -3  -8   1   66.29    3.80
  -3   8   1   68.39    4.90
  -2  -8   1  117.39    5.00
   2  -8  -1  113.39    7.70
  -2  -8   1  113.49    7.10
   2  -8  -1  114.29    7.70
  -2   8   1  106.09    5.20
   1  -8  -1    2.50    3.60
  -1  -8   1    0.60    2.20
   1  -8  -1    6.30    3.20
   1  -8  -1    2.40    2.80
  -1  -8   1    4.60    2.90
  -1  -8   1   -0.20    2.80
   1   8  -1    3.90    1.90
  -1   8   1    4.60    2.20
   0  -8   1    7.20    3.10
   0  -8  -1   10.00    2.40
   0  -8  -1    5.90    3.20
   0  -8   1    5.10    3.20
   0  -8   1   12.30    2.80
   0  -8  -1    1.70    3.60
   0   8  -1    8.20    2.30
   0   8   1    8.50    2.00
   1  -8   1  570.54   16.90
   1  -8   1  581.04   14.90
  -1  -8  -1  583.24   16.00
  -1  -8  -1  573.44   16.60
  -1  -8  -1  569.44   13.90
   1  -8   1  563.54   16.20
  -1   8  -1  554.74   14.40
   1   8   1  578.44   13.40
   2  -8   1   28.10    4.10
   2  -8   1   23.00    4.90
   2  -8   1   35.40    3.90
  -2  -8  -1   34.90    4.30
  -2  -8  -1   25.20    4.30
  -2   8  -1   24.70    3.30
   2   8   1   29.00    1.90
  -2   8  -1   25.40    5.20
   3  -8   1  723.73   20.40
   3  -8   1  720.83   19.30
  -3  -8  -1  702.23   19.50
  -3  -8  -1  726.63   18.90
   3  -8   1  745.53   19.50
  -3   8  -1  725.73   18.50
  -3   8  -1  701.03   20.90
   4  -8   1   54.09    5.80
   4  -8   1   49.90    5.40
   4  -8   1   43.30    5.40
  -4  -8  -1   46.60    4.60
  -4   8  -1   48.90    5.00
  -4   8  -1   77.69    9.10
   5  -8   1 1930.91   45.40
   5  -8   1 1974.60   44.70
  -5  -8  -1 1913.41   43.70
   5  -8   1 1964.10   45.70
  -5   8  -1 2000.50   44.70
  -5   8  -1 1846.92   45.90
   6  -8   1  119.99    8.80
   6  -8   1  119.19    8.40
  -6  -8  -1  109.79   11.30
  -6  -8  -1  124.79    8.50
   6  -8   1  145.59   10.20
  -6   8  -1  105.19   11.60
   7  -8   1   37.60    6.30
   7  -8   1   26.80    5.40
  -7  -8  -1   38.80    5.00
  -7   8  -1   34.40    6.40
  -8  -8  -1   12.40    5.60
   8  -8   1   13.40    5.80
   8  -8   1   12.60    7.10
  -8   8  -1   16.40    6.60
  -8  -9   1   37.20    5.80
  -8  -9   1   39.40    6.20
   8  -9  -1   46.30    7.50
  -8   9   1   46.60    7.20
  -7  -9   1  197.38   10.80
   7  -9  -1  185.58   11.00
  -7  -9   1  178.18    9.90
   7  -9  -1  187.28   11.90
  -7   9   1  180.98   10.60
  -6  -9   1    7.80    5.30
  -6  -9   1    7.80    1.70
  -6  -9   1    9.50    5.20
   6  -9  -1   10.90    5.80
   6  -9  -1    8.00    5.70
  -6   9   1    8.70    4.60
  -5  -9   1   72.79    7.80
  -5  -9   1   78.19    7.80
   5  -9  -1   81.19    7.40
  -5  -9   1   86.59    4.00
   5  -9  -1   81.69    9.20
  -5   9   1   75.69    7.60
  -4  -9   1    2.80    4.30
  -4  -9   1    0.00    4.10
   4  -9  -1    3.40    4.10
   4  -9  -1    1.30    4.70
  -4  -9   1    2.80    2.20
  -4   9   1    4.50    4.00
  -3  -9   1   70.49    7.20
   3  -9  -1   62.09    6.70
  -3  -9   1   70.19    4.50
   3  -9  -1   71.69    6.60
  -3  -9   1   64.69    6.40
   3  -9  -1   67.39    6.90
  -3   9   1   75.79    6.20
   2  -9  -1   -1.00    3.90
  -2  -9   1   -4.10    3.90
   2  -9  -1   14.30    4.80
  -2  -9   1    3.10    2.70
  -2  -9   1   -3.40    4.10
   2  -9  -1   -4.20    4.40
  -2   9   1    1.90    3.00
  -1  -9   1  223.78   10.30
   1  -9  -1  222.58    8.80
  -1  -9   1  240.88    8.10
  -1  -9   1  232.28   10.60
   1  -9  -1  223.48   10.70
   1  -9  -1  233.48    9.80
  -1   9   1  230.48    7.80
   1   9  -1  236.68    7.50
   0  -9   1  421.06   14.00
   0  -9  -1  423.26   12.10
   0  -9   1  433.46   14.90
   0  -9  -1  400.76   13.30
   0  -9   1  424.76   12.30
   0  -9  -1  420.86   14.20
   0   9   1  416.76   11.10
   0   9  -1  432.46   11.70
  -1  -9  -1  407.46   13.80
   1  -9   1  388.06   13.80
  -1  -9  -1  410.76   11.00
   1  -9   1  416.86   12.70
   1  -9   1  410.26   14.50
  -1  -9  -1  414.76   13.10
  -1   9  -1  397.66   11.70
   1   9   1  412.36   10.40
   2  -9   1  406.56   13.30
   2  -9   1  411.96   14.70
   2  -9   1  391.56   14.10
  -2  -9  -1  397.46   13.60
  -2  -9  -1  413.26   14.00
  -2   9  -1  417.06   12.20
  -3  -9  -1  298.57   11.90
  -3  -9  -1  298.37   11.40
   3  -9   1  274.67   11.20
   3  -9   1  288.17   12.50
   3  -9   1  281.97   11.80
  -3   9  -1  277.97   10.10
  -4  -9  -1   22.50    5.10
   4  -9   1   24.40    5.10
  -4  -9  -1   32.00    5.10
   4  -9   1   26.00    5.10
   4  -9   1   30.50    5.80
  -4   9  -1   31.60    4.10
  -4   9  -1   27.60    6.40
  -5  -9  -1  223.28   11.10
   5  -9   1  189.38   10.10
   5  -9   1  206.48   11.40
   5  -9   1  194.08   11.50
  -5  -9  -1  212.08   10.90
  -5   9  -1  224.88   14.20
  -6  -9  -1  192.98   11.30
   6  -9   1  187.48   11.50
   6  -9   1  181.48   11.30
  -6  -9  -1  199.18   11.20
  -6   9  -1  193.58    9.80
   7  -9   1   11.20    6.10
  -7  -9  -1   11.80    6.00
   7  -9   1    7.50    5.60
  -7  -9  -1   -5.00    5.70
  -7   9  -1    4.20    5.10
  -8  -9  -1   10.80    6.40
  -8  -9  -1   25.70    6.70
   8  -9   1   26.10    6.70
   8  -9   1    9.00    8.20
  -8   9  -1   20.40    6.50
   7 -10  -1    9.80    6.40
  -7 -10   1    6.00    6.00
   7 -10  -1   13.00    9.00
  -7 -10   1    5.60    7.00
  -7  10   1    9.50    7.30
  -6 -10   1    8.80    5.40
   6 -10  -1    4.10    8.50
   6 -10  -1   18.90    6.30
  -6 -10   1    6.20    5.10
  -6  10   1    0.60    6.10
   5 -10  -1    3.80    6.00
  -5 -10   1    8.40    2.40
  -5 -10   1    4.90    5.00
  -5 -10   1   -0.70    5.10
  -5  10   1   11.40    4.70
   4 -10  -1   -3.80    5.60
  -4 -10   1   -0.60    2.90
   4 -10  -1   -5.40    5.50
  -4 -10   1    2.10    4.80
  -4 -10   1    0.90    4.80
  -4  10   1   -2.90    4.30
   3 -10  -1   20.70    6.10
   3 -10  -1   23.40    5.70
  -3 -10   1   16.60    4.70
  -3 -10   1   24.20    3.70
  -3 -10   1   22.40    5.20
  -3  10   1   21.30    4.20
  -2 -10   1  470.45   15.30
   2 -10  -1  494.45   16.50
   2 -10  -1  502.85   15.50
   2 -10  -1  502.65   17.50
  -2 -10   1  501.65   13.50
  -2 -10   1  512.75   17.00
  -2  10   1  501.15   14.10
   1 -10  -1  137.39    9.00
  -1 -10   1  125.79    8.10
   1 -10  -1  152.68    9.70
   1 -10  -1  142.19    8.10
  -1 -10   1  133.39    9.80
  -1 -10   1  138.19    6.90
   1  10  -1  151.78    6.40
  -1  10   1  150.58    6.60
   0 -10  -1  463.75   16.00
   0 -10   1  426.06   15.70
   0 -10  -1  472.25   15.50
   0 -10   1  466.75   13.80
   0 -10   1  447.16   15.40
   0  10   1  472.75   12.30
   0  10  -1  482.55   13.00
  -1 -10  -1    0.80    4.90
   1 -10   1    2.40    4.80
   1 -10   1    6.30    5.20
   1 -10   1    7.30    4.40
  -1 -10  -1    3.40    4.50
   1  10   1   10.70    2.40
  -1  10  -1    4.70    3.30
   2 -10   1   25.90    6.10
   2 -10   1   19.00    4.80
   2 -10   1   24.40    5.40
  -2 -10  -1   29.90    5.30
  -2 -10  -1   22.10    5.70
  -2  10  -1   20.40    4.20
  -3 -10  -1   30.30    5.30
   3 -10   1   25.90    5.60
   3 -10   1   24.80    5.60
  -3 -10  -1   22.70    5.60
   3 -10   1   29.10    5.20
  -3  10  -1   16.50    4.60
  -4 -10  -1  441.16   15.70
   4 -10   1  449.66   15.80
  -4 -10  -1  450.85   15.00
   4 -10   1  414.16   15.50
  -4  10  -1  404.56   14.70
  -5 -10  -1   -9.30    6.00
   5 -10   1   -4.40    5.60
  -5 -10  -1   -4.30    4.90
   5 -10   1   -3.40    7.20
  -5  10  -1    2.80    4.20
  -6 -10  -1   78.79    7.80
   6 -10   1   71.69    7.40
   6 -10   1   69.99    9.00
  -6  10  -1   87.89    8.70
   7 -10   1  158.98   12.60
  -7 -10  -1  169.08   11.70
   7 -10   1  182.48   14.50
  -7  10  -1  161.28   12.60
   6 -11  -1   -5.80    8.30
  -6 -11   1   -3.40    6.30
  -6  11   1   -3.00    5.60
  -5 -11   1   17.90    2.00
   5 -11  -1   19.60    8.60
  -5 -11   1   14.10    6.70
  -5  11   1   17.20    6.60
   4 -11  -1  262.77   15.20
  -4 -11   1  262.27   13.90
  -4 -11   1  244.88    8.10
  -4  11   1  254.57   11.70
  -3 -11   1   65.39    7.70
  -3 -11   1   63.69    6.60
   3 -11  -1   47.80    7.20
  -3  11   1   60.09    5.70
  -2 -11   1  125.29   10.90
   2 -11  -1  129.89   12.10
  -2 -11   1  132.19    7.80
  -2  11   1  136.99    7.60
  -1 -11   1    7.90    5.70
  -1 -11   1    5.90    5.00
   1 -11  -1   -5.30    6.20
  -1  11   1   -1.80    3.30
   1  11  -1    2.20    3.40
   0 -11   1   36.70    5.50
   0  11  -1   35.90    4.30
   0  11   1   31.40    4.00
   1 -11   1   42.20    6.90
   1 -11   1   38.30    6.40
  -1  11  -1   40.30    4.70
   1  11   1   42.00    4.50
  -2 -11  -1  530.65   19.10
   2 -11   1  504.35   19.10
   2 -11   1  490.15   17.00
  -2  11  -1  508.45   15.20
   3 -11   1   49.80    6.90
  -3 -11  -1   66.29    7.80
   3 -11   1   60.09    8.70
   4 -11   1   -4.70    7.50
  -4 -11  -1   -6.00    6.00
  -4  11  -1    4.10    4.50
   5 -11   1   44.10    9.60
  -5 -11  -1   42.00    9.00
  -5  11  -1   49.99    6.70
   6 -11   1  183.08   15.40
  -6  11  -1  160.18   11.30
  -4 -12   1    6.30    8.00
   4 -12  -1   -2.40    9.40
  -4  12   1   -0.60    6.10
   3 -12  -1  184.78   15.50
  -3 -12   1  203.98   14.70
  -3 -12   1  186.58    9.80
  -3  12   1  190.78    9.40
  -2 -12   1   -4.20    5.90
   2 -12  -1   -5.30    8.10
  -2 -12   1    9.50    4.90
  -2  12   1   -2.20    4.30
  -1 -12   1  153.58    9.70
  -1 -12   1  184.38   12.50
   1 -12  -1  154.18   12.40
  -1  12   1  156.78    8.70
   0 -12   1   88.39   10.20
   0 -12  -1   94.09   11.20
   0 -12   1   71.49    7.50
   0  12   1   87.99    6.20
   0  12  -1   79.39    7.00
  -1 -12  -1   -4.00    5.80
   1 -12   1    1.20    7.90
   1 -12   1    6.40    6.40
  -1  12  -1    3.00    4.20
   1  12   1   -0.10    3.10
   2 -12   1   29.20    6.70
   2 -12   1   43.20    8.00
  -2 -12  -1   46.70    9.10
  -3 -12  -1   60.89    9.40
   3 -12   1   57.89    8.80
  -3  12  -1   82.79    7.70
   4 -12   1    0.00    9.20
  -4 -12  -1   28.30    8.50
  -4  12  -1    5.30    5.30
  -1 -13   1   85.39   11.40
   1 -13  -1   80.89   11.40
  -1 -13   1   71.99    7.20
  -1  13   1   66.99    6.00
   0 -13   1   16.70    9.90
   0 -13   1   16.60    6.80
   0 -13  -1   28.90    9.90
   0  13   1   16.70    4.80
   0  13  -1   21.10    5.00
   1 -13   1   43.60   10.70
   1 -13   1   51.69    9.00
  -1 -13  -1   54.69   10.70
   1  13   1   64.59    5.90
  -1  13  -1   39.90    7.80
 -11   0   2   -6.00    6.20
 -10   0   2   55.19    6.10
 -10   0   2   38.00    3.80
   9   0  -2   -1.80    3.50
  -9   0   2    0.30    1.60
  -9   0   2   -2.50    3.80
  -8   0   2 1807.92   40.60
   8   0  -2 1769.82   41.00
  -8   0   2 1729.83   38.20
   7   0  -2    0.10    2.90
  -7   0   2    3.40    1.80
  -7   0   2   -0.70    2.40
  -7   0   2    0.40    1.20
   6   0  -2   41.40    4.20
  -6   0   2   37.20    2.20
  -6   0   2   37.80    3.70
  -6   0   2   37.30    2.50
  -6   0   2   41.40    3.90
  -5   0   2    0.80    2.10
   5   0  -2   -1.20    1.30
  -5   0   2    0.40    0.80
   4   0  -2 4747.02  100.49
  -4   0   2 4801.62  100.49
  -3   0   2    0.80    1.10
   3   0  -2   -1.70    0.70
  -3   0   2    0.40    0.80
  -2   0   2  286.37    6.70
   2   0  -2  283.87    6.60
   2   0  -2  287.87    6.70
  -2   0   2  283.87    6.90
   1   0  -2   -0.70    0.90
  -1   0   2    0.10    0.90
  -1   0   2   -0.40    0.30
  -1   0  -2   -0.60    0.80
  -1   0  -2   -0.60    1.00
   1   0   2    0.20    0.80
  -1   0  -2    0.50    0.80
   1   0   2   -0.40    0.70
   2   0   2 5163.18  119.89
   3   0   2    1.20    0.90
  -3   0  -2    3.30    1.00
  -3   0  -2    0.90    1.50
   3   0   2    1.80    1.30
   3   0   2    0.10    1.20
  -3   0  -2   -0.80    1.40
   4   0   2   86.99    4.70
   4   0   2   86.89    2.20
  -4   0  -2   85.99    5.10
   4   0   2   90.79    3.90
  -4   0  -2   88.79    3.70
  -4   0  -2   87.79    3.40
  -5   0  -2    1.20    1.50
  -5   0  -2   -0.70    1.70
   5   0   2    2.40    2.10
   5   0   2   -1.00    1.80
  -6   0  -2 1077.19   26.50
   6   0   2 1096.59   25.20
  -6   0  -2 1085.89   24.70
  -6   0  -2 1064.79   24.60
   6   0   2 1091.49   26.60
  -7   0  -2    0.00    2.30
  -7   0  -2    0.80    2.50
   7   0   2   -1.30    2.80
   8   0   2 1181.58   29.90
  -8   0  -2 1190.18   27.70
  -8   0  -2 1185.18   27.70
  -9   0  -2   -3.00    3.20
   9   0   2    4.50    5.90
 -10   0  -2  565.14   16.20
 -10   0  -2  561.24   16.70
  10   0   2  533.95   18.90
  11  -1  -2 1353.56   35.40
 -11  -1   2 1302.47   33.50
 -11   1   2 1356.76   34.40
  10  -1  -2  137.39   10.80
 -10  -1   2  135.79    8.80
 -10  -1   2  130.59    4.70
 -10   1   2  133.19   11.90
   9  -1  -2  127.99    9.10
  -9  -1   2  113.39    4.00
  -9  -1   2  100.79    6.80
  -9   1   2  119.49    5.10
  -9   1   2  121.19    8.30
  -8  -1   2    5.10    3.50
   8  -1  -2    2.60    3.00
  -8  -1   2    0.30    1.20
  -8  -1   2    5.90    4.70
  -8   1   2   -0.10    2.70
  -8   1   2   -4.50    3.40
  -8   1   2    4.60    1.60
  -7  -1   2  246.48    9.50
  -7  -1   2  218.28    8.20
   7  -1  -2  218.28    8.70
  -7  -1   2  229.48    5.70
  -7  -1   2  221.28    5.40
  -7   1   2  215.48    6.30
  -7   1   2  215.58    8.60
  -7   1   2  220.68    7.10
  -6  -1   2  519.05   14.10
  -6  -1   2  497.95   11.20
  -6  -1   2  507.15   13.40
   6  -1  -2  509.25   13.80
  -6   1   2  518.25   13.80
  -6   1   2  519.75   12.50
  -6   1   2  502.65   12.00
  -5  -1   2   38.80    4.00
  -5  -1   2   40.60    1.60
   5  -1  -2   33.10    3.40
  -5   1   2   38.90    3.40
  -4  -1   2  360.66    9.50
   4  -1  -2  350.86    9.30
  -4  -1   2  354.76    8.00
  -3  -1   2 1514.65   32.20
   3  -1  -2 1515.85   31.60
  -3  -1   2 1497.75   31.60
   3  -1  -2 1511.15   31.60
   3  -1  -2 1507.55   32.20
  -3   1   2 1390.36   32.00
  -2  -1   2 5063.29  114.09
  -2  -1   2 4977.60  114.49
   2  -1  -2 4891.21  119.79
  -2   1   2 5303.37  116.59
  -1  -1   2  328.47    8.00
   1  -1  -2  333.07    8.00
   1   1  -2  327.07    7.90
   0  -1  -2   70.19    2.90
   0  -1   2   71.29    2.40
   0   1  -2   72.49    2.80
  -1  -1  -2   35.20    2.10
  -1  -1  -2   36.70    1.80
   1  -1   2   36.80    2.20
   1  -1   2   37.30    1.80
  -1   1  -2   38.50    1.70
  -1   1  -2   36.80    2.50
   1   1   2   37.40    1.50
   2  -1   2 2483.55   52.59
  -2  -1  -2 2488.85   52.99
   2  -1   2 2512.15   52.79
  -2  -1  -2 2452.55   52.59
   2  -1   2 2491.05   52.99
   2   1   2 2517.85   52.89
  -2   1  -2 2522.05   52.99
  -2   1  -2 2425.86   52.49
   3  -1   2  749.03   17.40
   3  -1   2  748.83   16.80
  -3  -1  -2  752.02   16.60
  -3  -1  -2  723.83   16.10
  -3  -1  -2  746.13   17.40
   3  -1   2  712.73   16.50
  -3   1  -2  719.63   16.60
   3   1   2  734.43   16.20
  -3   1  -2  738.63   17.00
   3   1   2  715.93   15.80
   3   1   2  735.23   17.30
  -4  -1  -2 3441.56   71.39
  -4  -1  -2 3323.27   69.69
   4  -1   2 3354.46   70.49
   4  -1   2 3272.37   69.39
  -4  -1  -2 3366.06   69.99
   4  -1   2 3034.10   69.99
   4  -1   2 3397.76   71.39
   4   1   2 3293.67   69.89
  -4   1  -2 3340.97   70.29
   4   1   2 3265.67   71.19
  -4   1  -2 3378.86   70.59
   5  -1   2  266.37    7.80
  -5  -1  -2  221.88    6.60
  -5  -1  -2  215.18    6.20
   5  -1   2  238.78    8.40
   5   1   2  222.48    6.80
  -5   1  -2  223.58    7.20
  -5   1  -2  224.88    7.00
   5   1   2  218.58    7.80
  -6  -1  -2  110.09    4.50
   6  -1   2  106.09    6.10
  -6  -1  -2  108.19    4.60
  -6  -1  -2  110.99    6.70
  -6   1  -2  106.99    5.20
   6   1   2  105.49    5.90
  -6   1  -2  102.39    5.10
   6   1   2  108.79    5.30
   7  -1   2  681.63   19.00
  -7  -1  -2  681.33   19.20
  -7  -1  -2  686.23   16.70
  -7  -1  -2  709.83   16.80
   7  -1   2  679.13   18.30
  -7   1  -2  675.13   17.50
   7   1   2  708.63   19.00
  -7   1  -2  684.63   17.40
  -8  -1  -2   13.70    3.30
  -8  -1  -2    9.00    4.30
  -8  -1  -2    9.60    3.30
   8  -1   2   11.60    4.10
   8   1   2   22.70    4.60
  -8   1  -2   14.40    4.30
  -8   1  -2   19.00    3.60
  -9  -1  -2  272.27    9.10
   9  -1   2  242.98   12.70
   9   1   2  253.67   12.60
  -9   1  -2  248.98    9.40
  -9   1  -2  252.87   10.90
 -10  -1  -2  752.12   19.20
 -10  -1  -2  724.73   19.80
  10  -1   2  708.73   23.30
 -10   1  -2  725.73   21.20
 -10   1  -2  724.73   19.90
  11  -2  -2   22.10    6.90
 -11   2   2   32.60    7.90
 -10  -2   2    6.40    4.50
  10  -2  -2    9.90    6.20
 -10   2   2   -6.60    5.50
  -9  -2   2  431.46   15.20
  -9  -2   2  429.36   13.40
   9  -2  -2  422.86   15.00
  -9   2   2  424.86   13.80
  -9   2   2  428.46   11.90
   8  -2  -2    3.10    4.00
  -8  -2   2    4.30    4.70
  -8  -2   2    1.90    3.00
  -8   2   2    0.70    2.10
  -8   2   2    3.00    3.80
  -7  -2   2  545.25   15.40
   7  -2  -2  513.25   15.10
  -7  -2   2  523.25   14.30
  -7   2   2  545.25   14.10
  -7   2   2  538.25   15.30
  -7   2   2  543.05   13.30
   6  -2  -2  537.55   14.50
  -6   2   2  546.65   14.50
  -6   2   2  532.35   13.10
  -6   2   2  541.15   13.70
   5  -2  -2 5987.30  127.89
  -5  -2   2 6012.10  127.99
  -5   2   2 6190.98  128.29
  -4  -2   2  556.34   13.50
  -4  -2   2  537.65   11.90
   4  -2  -2  527.35   13.20
   4  -2  -2  542.55   12.30
  -4   2   2  543.85   12.90
  -4   2   2  539.35   13.60
  -3  -2   2    2.00    1.00
   3  -2  -2    1.30    1.10
   3  -2  -2    0.50    1.30
  -3   2   2    1.80    1.10
   2  -2  -2  607.54   13.80
  -2  -2   2  586.14   13.60
   2   2  -2  590.84   13.20
  -2   2   2  606.14   13.80
   1  -2  -2 1061.69   23.00
   1   2  -2 1053.49   22.90
  -1   2   2 1017.70   22.90
   0  -2   2  105.09    3.40
   0  -2   2  105.19    3.70
   0  -2  -2  111.09    3.80
   0   2  -2  103.19    4.00
   0   2  -2  104.89    3.30
   0   2   2  106.99    3.50
   1  -2   2 4359.36   92.79
  -1   2  -2 4453.85   92.19
  -1   2  -2 4445.06   92.79
   1   2   2 4365.96   92.29
   2  -2   2 1380.16   29.50
  -2  -2  -2 1388.26   29.80
   2  -2   2 1365.36   29.80
  -2  -2  -2 1364.36   29.30
  -2   2  -2 1383.86   30.00
  -2   2  -2 1325.97   29.30
   2   2   2 1315.57   29.00
   2   2   2 1299.87   28.40
  -3  -2  -2 1216.48   25.90
   3  -2   2 1194.58   26.30
  -3  -2  -2 1192.48   26.80
  -3  -2  -2 1160.08   25.00
   3  -2   2 1190.58   26.30
   3   2   2 1144.59   25.10
  -3   2  -2 1194.48   26.70
  -3   2  -2 1185.48   26.20
   3   2   2 1154.48   25.10
   4  -2   2    3.70    2.30
   4  -2   2    2.50    1.30
   4  -2   2    2.40    1.90
  -4  -2  -2    1.90    1.40
  -4  -2  -2    2.90    2.10
  -4  -2  -2    2.00    0.80
  -4   2  -2    2.00    1.80
  -4   2  -2    4.70    2.10
   4   2   2    2.60    1.30
   5  -2   2 2569.24   54.69
   5  -2   2 2584.54   57.09
   5  -2   2 2493.05   54.49
   5  -2   2 2675.63   56.29
  -5  -2  -2 2586.84   54.69
  -5  -2  -2 2638.04   57.09
  -5  -2  -2 2485.15   54.89
  -5   2  -2 2587.94   55.89
  -5   2  -2 2658.73   56.19
  -6  -2  -2 1163.48   26.20
  -6  -2  -2 1173.08   26.40
  -6  -2  -2 1178.48   28.80
   6  -2   2 1203.88   29.00
  -6   2  -2 1184.58   27.50
  -6   2  -2 1236.88   27.80
   7  -2   2  968.30   25.20
  -7  -2  -2  978.50   25.40
  -7  -2  -2  970.50   22.40
   7  -2   2  989.30   24.40
  -7  -2  -2  984.10   22.30
  -7   2  -2  973.70   23.60
  -7   2  -2 1003.40   24.10
  -8  -2  -2   45.70    4.80
   8  -2   2   63.09    6.50
   8  -2   2   46.30    5.60
  -8  -2  -2   41.30    3.50
  -8  -2  -2   43.70    6.30
  -8   2  -2   45.30    5.40
  -8   2  -2   52.99    5.70
  -9  -2  -2   34.70    4.40
  -9  -2  -2   36.90    3.90
   9  -2   2   43.60    7.00
  -9   2  -2   39.10    4.50
  -9   2  -2   34.30    6.00
 -10  -2  -2  530.85   14.60
  10  -2   2  483.45   18.40
 -10   2  -2  522.05   16.60
 -10   2  -2  501.65   17.50
  10  -3  -2  395.76   16.10
 -10  -3   2  377.56   13.00
 -10   3   2  388.86   15.50
   9  -3  -2  445.26   15.60
  -9  -3   2  466.45   13.80
  -9  -3   2  467.55   16.90
  -9   3   2  453.85   13.30
  -8  -3   2   84.89    7.80
  -8  -3   2   82.59    6.00
   8  -3  -2   88.99    7.70
  -8   3   2   94.99    5.60
  -8   3   2   82.79    6.60
  -7  -3   2   17.50    3.10
  -7  -3   2   20.00    4.50
   7  -3  -2   14.20    3.90
  -7   3   2   14.80    3.40
  -7   3   2   10.30    2.40
  -6  -3   2  790.52   20.30
   6  -3  -2  686.63   18.00
  -6  -3   2  670.33   15.10
  -6   3   2  670.83   16.80
  -6   3   2  666.33   17.80
   5  -3  -2   49.30    4.10
   5  -3  -2   52.99    2.60
  -5  -3   2   49.00    4.20
  -5  -3   2   51.29    2.30
   5  -3  -2   51.59    3.00
  -5   3   2   52.89    4.10
  -5   3   2   52.39    3.40
   4  -3  -2 2710.23   58.79
  -4  -3   2 2731.83   58.09
   4  -3  -2 2769.12   58.59
  -4  -3   2 2833.82   59.29
  -4   3   2 2715.93   59.59
  -4   3   2 2768.92   59.09
   3  -3  -2 3897.01   81.99
  -3  -3   2 3697.93   81.49
   3  -3  -2 3946.01   81.79
  -3   3   2 3915.31   81.99
  -3   3   2 3894.21   82.19
   2  -3  -2 4616.44   96.79
  -2   3   2 4546.45   96.49
  -1  -3   2 5141.69  107.39
   1  -3  -2 5069.69  107.19
   0  -3  -2 9367.56  213.78
   0  -3   2 9284.87  214.78
   0   3   2 9651.23  213.88
   0   3  -2 9679.03  215.78
   1  -3   2 1020.00   22.70
   1  -3   2 1036.40   23.40
  -1  -3  -2 1032.20   22.90
   1   3   2 1011.10   22.70
  -1   3  -2 1038.30   23.40
  -1   3  -2 1017.10   22.60
   2  -3   2 1091.69   24.70
   2  -3   2 1108.29   24.20
  -2  -3  -2 1083.09   23.90
  -2   3  -2 1065.79   23.90
  -2   3  -2 1071.89   24.70
   2   3   2 1047.10   23.50
   3  -3   2   71.49    4.00
  -3  -3  -2   75.79    3.60
  -3  -3  -2   72.39    4.60
   3  -3   2   69.29    4.40
  -3   3  -2   69.99    4.70
  -3   3  -2   70.29    3.50
   4  -3   2   17.70    2.30
  -4  -3  -2   15.80    2.70
   4  -3   2   16.60    2.10
   4  -3   2   21.60    3.00
  -4  -3  -2   15.10    1.90
  -4  -3  -2   15.30    1.20
  -4   3  -2   13.10    2.80
  -4   3  -2   16.70    2.40
  -5  -3  -2  258.97    6.20
  -5  -3  -2  262.37   10.50
   5  -3   2  255.07    7.30
  -5  -3  -2  255.47    7.20
   5  -3   2  255.97    9.30
   5  -3   2  254.77    7.50
   5  -3   2  250.47    8.50
  -5   3  -2  252.47    8.80
  -5   3  -2  247.28    8.20
   6  -3   2  100.09    6.50
  -6  -3  -2  119.79    7.20
  -6  -3  -2  106.49    4.80
   6  -3   2  108.89    7.20
   6  -3   2  114.29    3.90
  -6  -3  -2  107.29    3.60
   6  -3   2  107.69    4.10
  -6   3  -2  109.59    6.00
  -6   3  -2  108.69    6.50
   7  -3   2   16.10    5.00
  -7  -3  -2   14.90    2.50
   7  -3   2   12.00    4.50
  -7  -3  -2    8.30    1.90
  -7  -3  -2    5.00    4.90
  -7   3  -2   16.50    3.60
  -7   3  -2    8.80    4.50
  -8  -3  -2   12.30    4.70
  -8  -3  -2   15.40    2.50
   8  -3   2   17.40    5.60
   8  -3   2    9.40    4.50
  -8  -3  -2   13.70    3.10
  -8   3  -2   13.20    5.20
  -8   3  -2   18.80    4.20
  -9  -3  -2   84.69    5.50
   9  -3   2   76.49    8.70
  -9  -3  -2   74.49    6.80
  -9   3  -2   81.99    8.60
  -9   3  -2   94.19   10.50
  10  -3   2   32.70    7.20
 -10  -3  -2   44.90    4.60
 -10   3  -2   45.40    6.80
 -10   3  -2   35.40    7.70
  10  -4  -2  109.99   11.80
 -10  -4   2  119.89    8.60
 -10   4   2  112.59   11.40
  -9  -4   2    9.20    4.90
  -9  -4   2    7.10    1.70
  -9  -4   2    2.50    3.60
   9  -4  -2    7.10    5.40
  -9   4   2    6.70    4.60
  -8  -4   2   38.50    2.80
  -8  -4   2   41.80    4.10
   8  -4  -2   40.90    5.80
  -8  -4   2   35.20    6.50
  -8   4   2   32.90    4.70
  -8   4   2   45.60    5.20
   7  -4  -2  308.47   11.50
  -7  -4   2  337.07   11.80
  -7  -4   2  317.57    8.00
  -7   4   2  307.97   11.20
  -7   4   2  318.07   10.00
   6  -4  -2 3143.49   67.59
   6  -4  -2 3073.49   65.49
  -6  -4   2 3178.08   67.89
   6  -4  -2 3017.70   65.29
  -6  -4   2 3035.80   65.09
  -6   4   2 3036.80   66.69
  -6   4   2 3117.69   67.59
   5  -4  -2   59.09    3.70
   5  -4  -2   43.20    3.70
  -5  -4   2   47.50    5.10
  -5   4   2   44.60    4.00
  -5   4   2   44.10    4.30
   4  -4  -2  702.53   16.80
  -4  -4   2  691.83   15.90
   4  -4  -2  673.53   16.40
  -4   4   2  670.43   17.20
  -4   4   2  693.43   16.90
  -3  -4   2 2072.79   45.20
   3  -4  -2 2111.79   46.10
   3  -4  -2 2111.19   45.60
  -3   4   2 2077.39   45.80
  -3   4   2 2122.69   45.90
  -2  -4   2   81.89    3.30
   2  -4  -2   82.69    4.10
   2  -4  -2   81.09    3.90
  -2  -4   2   85.89    3.80
  -2   4   2   79.39    3.90
  -2   4   2   79.09    3.80
   1  -4  -2  707.83   16.80
  -1  -4   2  706.73   16.00
  -1  -4   2  704.63   16.90
  -1   4   2  700.03   16.20
   1   4  -2  716.23   16.80
  -1   4   2  708.03   16.80
   0  -4   2  630.74   15.50
   0  -4   2  637.44   14.60
   0  -4  -2  639.34   15.20
   0   4   2  618.94   14.10
   0   4   2  619.34   15.00
   0   4  -2  631.84   14.60
   0   4  -2  635.34   15.40
   1  -4   2  970.80   21.50
   1  -4   2  939.81   22.30
  -1  -4  -2  968.00   21.70
   1   4   2  916.91   20.30
  -1   4  -2  950.20   22.40
   1   4   2  952.10   21.50
  -1   4  -2  959.00   21.30
  -2  -4  -2 1716.73   36.90
   2  -4   2 1658.03   37.70
   2  -4   2 1699.23   37.00
  -2   4  -2 1712.53   36.90
   2   4   2 1622.34   36.40
  -2   4  -2 1727.13   37.80
   3  -4   2 2732.63   60.79
   3  -4   2 2924.21   60.49
  -3  -4  -2 2767.72   59.79
  -3   4  -2 2864.91   61.19
  -3   4  -2 2727.03   60.09
  -4  -4  -2   29.60    3.40
   4  -4   2   33.80    3.80
   4  -4   2   26.60    3.10
  -4  -4  -2   28.30    3.80
   4  -4   2   31.20    3.70
  -4   4  -2   32.80    3.20
  -5  -4  -2  119.39    2.90
   5  -4   2  134.69    6.50
   5  -4   2  125.69    5.70
  -5  -4  -2  116.99    4.90
  -5  -4  -2  117.49    6.80
   5  -4   2  123.29    5.60
  -5   4  -2  127.09    5.70
   6  -4   2 1093.79   27.00
  -6  -4  -2 1040.00   27.30
   6  -4   2 1076.29   24.70
  -6  -4  -2 1084.79   24.40
   6  -4   2 1070.49   24.40
   6  -4   2 1067.59   26.40
  -6   4  -2 1077.89   26.60
  -6   4  -2 1086.99   25.80
  -7  -4  -2  969.00   26.60
   7  -4   2 1011.60   22.00
   7  -4   2  988.90   21.90
  -7  -4  -2  981.80   22.90
   7  -4   2 1026.10   25.90
   7  -4   2 1000.60   26.40
  -7  -4  -2 1012.00   21.70
  -7   4  -2  981.30   24.50
  -7   4  -2  982.80   25.50
   8  -4   2  597.44   18.00
  -8  -4  -2  553.14   19.00
  -8  -4  -2  618.24   14.00
  -8  -4  -2  597.64   15.40
  -8   4  -2  620.24   19.10
  -8   4  -2  599.14   17.30
  -9  -4  -2    4.70    2.40
   9  -4   2   -5.10    5.30
  -9  -4  -2   10.10    4.90
  -9   4  -2   -1.30    4.90
  -9   4  -2    0.10    6.90
  10  -4   2  118.59   13.70
 -10  -4  -2  128.99    6.20
 -10   4  -2  122.79    9.70
 -10  -5   2  384.06   10.10
  10  -5  -2  397.06   17.70
 -10  -5   2  409.16   13.20
 -10   5   2  399.06   15.70
  -9  -5   2  137.59    5.40
  -9  -5   2  150.28    7.80
  -9   5   2  125.09   10.60
  -8  -5   2  217.38    7.90
  -8  -5   2  223.68   12.40
   8  -5  -2  226.68   11.30
   7  -5  -2  139.09    5.40
  -7  -5   2  145.29    5.00
   7  -5  -2  133.09    8.60
   7  -5  -2  129.39    5.10
  -7  -5   2  158.88   10.00
  -7   5   2  139.19    7.30
  -7   5   2  145.59    7.80
   6  -5  -2  799.52   19.10
   6  -5  -2  804.22   19.40
  -6  -5   2  788.12   18.60
  -6  -5   2  803.22   21.50
  -6   5   2  794.72   20.60
  -6   5   2  813.22   20.30
   5  -5  -2  115.09    6.00
  -5  -5   2  113.69    4.50
   5  -5  -2  106.59    5.50
  -5   5   2  108.59    6.00
  -5   5   2  112.19    5.90
  -4  -5   2   29.70    3.00
  -4  -5   2   29.00    3.00
   4  -5  -2   30.30    3.40
   4  -5  -2   34.90    4.20
  -4   5   2   32.00    3.50
  -4   5   2   28.40    3.50
  -3  -5   2 2555.04   54.09
  -3  -5   2 2498.75   55.09
   3  -5  -2 2576.04   55.39
   3  -5  -2 2614.34   56.09
  -3   5   2 2550.34   55.39
  -3   5   2 2506.95   55.59
  -2  -5   2 1748.63   39.10
   2  -5  -2 1807.92   39.10
   2  -5  -2 1760.02   39.60
  -2  -5   2 1768.92   37.90
  -2   5   2 1732.13   39.10
  -2   5   2 1744.03   38.60
   1  -5  -2  151.08    6.20
  -1  -5   2  141.59    6.00
  -1  -5   2  163.08    4.90
  -1   5   2  152.78    5.70
   1   5  -2  157.48    6.10
  -1   5   2  152.48    5.10
   1   5  -2  158.18    4.80
   0  -5  -2  248.08    7.70
   0  -5   2  260.87    7.20
   0  -5   2  246.58    8.30
   0   5  -2  242.18    7.00
   0   5   2  244.88    6.40
   0   5  -2  248.28    8.30
   0   5   2  241.18    7.40
  -1  -5  -2    7.60    2.20
   1  -5   2    4.00    1.80
   1  -5   2    6.40    2.50
  -1   5  -2    4.50    1.60
   1   5   2    5.50    1.80
   1   5   2    5.00    1.00
  -1   5  -2    3.80    2.70
   2  -5   2  651.33   17.10
   2  -5   2  668.73   16.10
  -2  -5  -2  670.43   16.10
  -2   5  -2  652.13   17.20
  -2   5  -2  647.04   15.80
  -3  -5  -2 2761.72   58.49
   3  -5   2 2680.93   59.59
   3  -5   2 2682.53   59.19
  -3   5  -2 2797.32   59.89
  -3   5  -2 2650.83   58.59
   4  -5   2 2044.80   45.50
   4  -5   2 2099.49   45.20
  -4  -5  -2 2086.69   44.60
  -4  -5  -2 1993.30   45.80
   4  -5   2 2005.90   45.70
  -4   5  -2 2022.40   45.10
  -4   5  -2 2048.30   46.20
   5  -5   2    3.20    3.20
   5  -5   2    6.20    3.30
  -5  -5  -2   -1.20    2.40
  -5  -5  -2    4.10    3.30
   5  -5   2    6.80    3.00
  -5   5  -2    4.60    4.00
  -5   5  -2    3.30    3.00
  -6  -5  -2   43.80    5.30
  -6  -5  -2   36.00    3.40
   6  -5   2   39.00    4.90
   6  -5   2   32.30    5.00
   6  -5   2   37.70    4.00
   6  -5   2   36.30    4.00
  -6   5  -2   33.30    4.40
  -6   5  -2   39.60    4.80
  -7  -5  -2  296.57   13.20
   7  -5   2  273.27   11.60
   7  -5   2  293.77   12.50
  -7  -5  -2  285.17   10.50
   7  -5   2  280.57    9.00
   7  -5   2  293.77    9.00
  -7   5  -2  293.17   12.50
  -7   5  -2  310.57   11.00
   8  -5   2   -2.70    6.20
  -8  -5  -2   -2.40    3.60
   8  -5   2   -9.70    5.80
  -8   5  -2   -1.40    6.60
  -8   5  -2   -5.30    5.60
   9  -5   2  139.89   12.80
  -9  -5  -2  145.29    8.20
  -9   5  -2  142.79   10.60
  10  -5   2  423.26   18.50
 -10   5  -2  407.56   15.60
  -9  -6   2  503.15   14.00
   9  -6  -2  502.45   18.50
  -9  -6   2  493.65   13.00
  -9   6   2  495.05   16.90
   8  -6  -2   59.49    7.00
  -8  -6   2   53.49    7.40
  -8  -6   2   65.79    5.40
  -8  -6   2   62.09    4.40
  -8   6   2   71.19    7.60
   7  -6  -2  438.46   12.20
   7  -6  -2  441.46   12.10
  -7  -6   2  404.96   11.40
  -7  -6   2  416.76   15.60
   7  -6  -2  398.76   14.50
  -7   6   2  419.46   13.70
  -6  -6   2   12.70    2.60
  -6  -6   2   11.40    5.10
  -6  -6   2   14.70    2.60
   6  -6  -2    9.50    3.80
   6  -6  -2    1.50    3.80
  -6   6   2   14.70    4.30
  -6   6   2   15.50    3.80
   5  -6  -2 3408.46   73.69
   5  -6  -2 3429.16   73.39
  -5  -6   2 3346.97   71.39
  -5  -6   2 3269.17   72.49
  -5   6   2 3414.06   73.69
  -5   6   2 3389.26   73.59
  -4  -6   2   43.40    3.90
   4  -6  -2   44.60    4.40
   4  -6  -2   33.10    4.70
  -4  -6   2   42.90    3.00
  -4   6   2   36.70    4.10
  -4   6   2   46.90    4.20
   3  -6  -2  789.22   20.80
  -3  -6   2  838.82   18.70
  -3  -6   2  819.02   20.30
   3  -6  -2  842.42   20.50
  -3   6   2  836.22   20.60
  -3   6   2  816.42   20.00
   2  -6  -2   -1.50    2.70
  -2  -6   2    4.30    2.40
  -2  -6   2    1.70    1.70
   2  -6  -2   -3.10    2.10
  -2   6   2    0.80    2.00
  -2   6   2    1.60    2.00
   1  -6  -2   34.90    3.70
  -1  -6   2   41.30    4.40
  -1  -6   2   36.60    3.30
   1  -6  -2   29.80    3.80
  -1   6   2   37.40    3.00
   1   6  -2   39.40    4.60
  -1   6   2   36.80    3.50
   1   6  -2   39.00    3.00
   0  -6   2    5.30    2.60
   0  -6   2   10.80    2.00
   0  -6  -2   11.80    2.50
   0   6  -2   13.90    2.20
   0   6   2    9.80    1.60
   0   6  -2    6.00    3.10
  -1  -6  -2  377.66   12.40
   1  -6   2  420.86   12.40
   1  -6   2  439.06   11.10
  -1   6  -2  440.16   11.00
   1   6   2  425.96    9.60
  -1   6  -2  386.66   13.50
   2  -6   2  157.28    7.20
   2  -6   2  137.29    6.90
  -2   6  -2  146.89    5.80
   2   6   2  154.68    3.50
   3  -6   2  182.28    8.20
   3  -6   2  161.38    7.00
   3  -6   2  151.08    7.50
  -3   6  -2  161.18    6.20
  -3   6  -2  176.58    8.50
  -4  -6  -2   26.00    3.30
   4  -6   2   32.80    4.20
   4  -6   2   35.40    4.00
  -4   6  -2   27.70    4.80
  -4   6  -2   30.80    3.30
  -5  -6  -2 1025.50   24.00
  -5  -6  -2 1019.10   26.30
   5  -6   2 1011.80   25.40
   5  -6   2 1022.00   25.40
  -5   6  -2 1002.50   25.90
  -5   6  -2 1000.60   24.60
   6  -6   2    2.00    5.00
   6  -6   2    2.30    3.40
  -6  -6  -2    2.90    5.30
  -6   6  -2    3.10    3.00
  -6   6  -2   -3.00    4.10
  -7  -6  -2  622.64   16.40
   7  -6   2  497.65   20.10
   7  -6   2  593.04   18.20
  -7  -6  -2  590.34   18.80
   7  -6   2  617.74   16.40
   7  -6   2  649.93   16.40
  -7   6  -2  613.94   17.60
  -7   6  -2  634.74   19.30
  -8  -6  -2   -1.80    4.00
   8  -6   2    4.10    2.90
   8  -6   2   -4.00    3.40
   8  -6   2    4.50    5.30
  -8   6  -2   -2.20    4.30
   9  -6   2  398.06   18.40
  -9  -6  -2  396.16   13.20
  -9   6  -2  417.56   15.00
  -9  -7   2   45.50    4.40
  -9  -7   2   40.70    4.90
   9  -7  -2   31.10    8.50
  -9  -7   2   42.90    4.40
  -9   7   2   34.90    6.70
   8  -7  -2   67.69    5.90
   8  -7  -2   69.49    8.40
  -8  -7   2   58.69    5.40
  -8  -7   2   53.19    5.20
  -8  -7   2   57.19    6.10
   8  -7  -2   58.19    6.20
  -8   7   2   57.79    6.50
  -7  -7   2  140.19   11.30
   7  -7  -2  152.98    8.30
  -7  -7   2  142.49    7.60
  -7  -7   2  154.48    6.10
  -7   7   2  140.99    9.80
  -6  -7   2  508.65   12.70
   6  -7  -2  518.25   15.70
  -6  -7   2  506.85   14.40
  -6   7   2  512.95   15.70
   5  -7  -2   17.80    4.30
  -5  -7   2   17.70    2.80
  -5  -7   2   19.00    3.30
   5  -7  -2   19.40    4.20
  -5   7   2   12.20    3.40
  -4  -7   2   53.69    3.40
   4  -7  -2   55.49    6.30
   4  -7  -2   55.49    6.30
  -4  -7   2   51.19    5.10
  -4   7   2   58.19    5.60
   3  -7  -2  855.61   21.40
  -3  -7   2  834.22   19.20
  -3  -7   2  819.52   21.10
   3  -7  -2  828.02   21.90
  -3   7   2  832.82   20.40
   2  -7  -2  711.33   19.10
  -2  -7   2  705.63   16.70
   2  -7  -2  708.83   18.30
  -2  -7   2  717.33   18.70
  -2   7   2  692.23   17.20
  -1  -7   2  120.19    5.10
  -1  -7   2  107.79    6.50
   1  -7  -2  120.69    7.00
   1  -7  -2  111.09    6.80
   1   7  -2  109.99    4.50
  -1   7   2  108.59    4.70
   0  -7   2    0.50    3.40
   0  -7   2    5.30    2.10
   0  -7  -2    5.30    3.20
   0  -7  -2    7.00    3.10
   0   7   2    0.70    1.70
   0   7  -2    8.30    2.20
   0   7  -2   -0.10    3.30
   1  -7   2  157.98    7.60
  -1  -7  -2  170.08    7.60
   1  -7   2  178.18    7.00
  -1   7  -2  175.18    8.40
  -1   7  -2  160.78    5.90
   1   7   2  160.28    4.70
   2  -7   2  151.98    6.60
   2  -7   2  133.59    7.20
  -2  -7  -2  144.89    6.50
   2   7   2  148.09    3.70
  -2   7  -2  140.49    5.80
  -2   7  -2  143.19    8.60
   3  -7   2  502.15   15.70
   3  -7   2  518.95   14.70
   3  -7   2  557.84   15.30
  -3  -7  -2  526.85   14.50
  -3   7  -2  514.15   14.00
  -3   7  -2  530.55   15.90
   4  -7   2  339.07   11.20
   4  -7   2  323.87   12.10
  -4  -7  -2  353.96   10.90
   4  -7   2  340.97   12.30
  -4   7  -2  317.47   13.20
  -4   7  -2  341.87   10.60
   5  -7   2  117.99    8.10
   5  -7   2  117.19    7.80
  -5  -7  -2  123.89    6.90
   5  -7   2  109.09    7.90
  -5  -7  -2  120.89    9.50
  -5   7  -2  113.09   10.00
  -5   7  -2  108.49    6.40
   6  -7   2   30.20    5.50
   6  -7   2    6.20    5.40
  -6  -7  -2   20.00    4.40
  -6  -7  -2   22.20    5.70
   6  -7   2   10.90    5.20
  -6   7  -2    9.00    5.70
  -6   7  -2   17.80    3.90
   7  -7   2  314.77   11.90
  -7  -7  -2  295.67   10.70
   7  -7   2  309.37   13.60
  -7   7  -2  293.07   11.60
   8  -7   2   50.79    8.60
   8  -7   2   48.20    5.50
   8  -7   2   57.09    6.40
  -8  -7  -2   58.39    5.90
  -8   7  -2   58.79    6.50
   9  -7   2  279.37   17.70
  -9   7  -2  294.37   14.60
  -8  -8   2  147.79    6.20
  -8  -8   2  140.69    9.20
   8  -8  -2  145.19    9.20
   8  -8  -2  149.59   13.20
  -8  -8   2  145.59    6.40
  -8   8   2  142.39   11.60
  -7  -8   2    9.30    3.00
   7  -8  -2    8.30    5.30
   7  -8  -2   10.90    5.80
  -7  -8   2   11.80    4.30
  -7   8   2   13.10    5.00
   6  -8  -2  808.62   22.10
  -6  -8   2  790.92   18.40
  -6  -8   2  759.72   20.80
  -6   8   2  833.12   23.80
  -5  -8   2    8.90    2.60
  -5  -8   2    5.00    3.70
   5  -8  -2   12.20    5.00
   5  -8  -2    6.80    4.80
  -5   8   2   16.40    3.80
   4  -8  -2  105.39    8.30
  -4  -8   2  106.79    5.10
  -4  -8   2  113.29    7.20
   4  -8  -2  107.89    8.30
  -4   8   2  110.79    6.90
  -3  -8   2  426.16   11.20
   3  -8  -2  409.46   14.20
  -3  -8   2  433.86   13.60
   3  -8  -2  411.26   13.80
  -3   8   2  431.96   12.60
   2  -8  -2   49.40    5.30
   2  -8  -2   38.90    5.30
  -2  -8   2   44.40    4.70
  -2  -8   2   49.90    5.10
  -2   8   2   48.80    4.60
   1  -8  -2   92.69    6.70
  -1  -8   2   92.19    5.20
   1  -8  -2   98.69    6.60
  -1  -8   2   98.19    7.30
   1   8  -2   95.89    4.80
  -1   8   2   87.79    4.70
   0  -8   2   40.90    5.20
   0  -8   2   45.90    4.00
   0  -8  -2   39.00    4.50
   0  -8  -2   40.60    4.80
   0   8   2   34.50    3.40
   0   8  -2   42.50    3.70
  -1  -8  -2    9.20    4.10
   1  -8   2    4.40    4.10
  -1  -8  -2   14.00    4.10
  -1   8  -2   12.30    3.00
  -1   8  -2   10.50    4.80
   1   8   2    6.40    1.50
   2  -8   2  673.43   17.30
   2  -8   2  641.34   18.10
   2  -8   2  643.24   18.60
  -2  -8  -2  640.44   17.70
  -2   8  -2  635.44   16.50
  -2   8  -2  638.44   18.70
   3  -8   2  383.46   13.30
   3  -8   2  392.76   13.30
  -3  -8  -2  381.76   12.60
   3  -8   2  381.06   12.40
  -3   8  -2  385.06   13.80
  -3   8  -2  387.46   11.60
   4  -8   2  201.78   10.50
   4  -8   2  208.88    9.40
   4  -8   2  202.98   10.30
  -4  -8  -2  207.08    9.40
  -4   8  -2  219.38   11.70
  -4   8  -2  220.68    8.40
  -5  -8  -2    7.10    4.10
   5  -8   2   -1.10    5.30
   5  -8   2    5.10    5.10
   5  -8   2    6.10    4.90
  -5   8  -2    2.70    5.80
  -5   8  -2    6.50    4.10
  -6  -8  -2  165.88    9.20
   6  -8   2  170.38   10.00
   6  -8   2  172.58   10.20
  -6   8  -2  165.58    8.90
  -7  -8  -2   76.49    7.00
   7  -8   2   64.09    7.20
   7  -8   2   82.59    9.30
  -7   8  -2   83.69    8.10
   8  -8   2  698.53   19.40
  -8  -8  -2  639.34   19.10
   8  -8   2  683.83   23.00
  -8   8  -2  663.33   20.30
  -8  -9   2   90.19    9.70
  -8  -9   2   86.19    4.80
   8  -9  -2  101.99   10.80
  -8  -9   2   91.19    9.30
  -8   9   2   81.29    9.10
  -7  -9   2   74.39    7.30
   7  -9  -2   61.29    7.80
   7  -9  -2   62.59    6.80
  -7  -9   2   78.69    4.80
  -7   9   2   79.59    7.90
  -6  -9   2  416.06   14.50
   6  -9  -2  425.76   15.70
   6  -9  -2  422.06   15.60
  -6  -9   2  420.66   11.40
  -6   9   2  448.76   14.70
   5  -9  -2   22.10    6.20
  -5  -9   2   29.30    5.20
   5  -9  -2   26.40    6.40
  -5  -9   2   32.70    3.60
  -5   9   2   22.30    4.30
  -4  -9   2  320.27   12.60
   4  -9  -2  314.27   13.10
   4  -9  -2  335.27   13.60
  -4  -9   2  338.07    9.90
  -4   9   2  328.87   11.60
  -3  -9   2  198.08    7.40
   3  -9  -2  183.68   10.40
  -3  -9   2  188.68    9.90
   3  -9  -2  186.18   10.50
  -3   9   2  195.88    8.50
  -2  -9   2  429.56   14.40
   2  -9  -2  440.56   14.90
   2  -9  -2  441.66   15.00
  -2   9   2  443.06   12.50
   1  -9  -2  205.38   10.30
  -1  -9   2  205.58   10.40
   1  -9  -2  208.58   10.60
  -1  -9   2  205.38    8.10
   1   9  -2  197.38    7.40
  -1   9   2  205.48    7.20
   0  -9  -2 1009.50   26.60
   0  -9   2 1032.60   24.30
   0  -9   2  986.50   26.30
   0  -9  -2  964.20   25.30
   0   9   2  986.40   22.90
   0   9  -2 1010.60   23.80
  -1  -9  -2  228.88   11.00
   1  -9   2  247.88   11.70
  -1  -9  -2  238.78   10.10
   1  -9   2  245.38   11.20
   1  -9   2  256.57   10.00
  -1   9  -2  251.37    9.00
   1   9   2  249.08    6.80
   2  -9   2  294.67   12.40
  -2  -9  -2  287.97   11.60
   2  -9   2  273.67   10.40
   2  -9   2  281.97   12.00
  -2  -9  -2  291.87   11.90
  -2   9  -2  286.77    9.80
   2   9   2  258.17    6.80
  -2   9  -2  281.77   13.20
   3  -9   2   92.19    7.70
   3  -9   2  114.29    9.10
  -3  -9  -2  106.59    8.40
   3  -9   2   84.59    8.90
  -3   9  -2   85.49    8.50
  -3   9  -2   85.89    6.60
   4  -9   2   18.70    5.50
  -4  -9  -2   15.40    5.00
   4  -9   2   12.80    5.50
   4  -9   2   25.70    5.50
  -4   9  -2   18.50    4.60
  -4   9  -2   15.20    4.80
   5  -9   2   19.30    6.20
  -5  -9  -2   43.30    6.50
   5  -9   2   34.10    6.60
  -5   9  -2   29.90    5.70
  -6  -9  -2  160.88   11.00
   6  -9   2  171.78   11.40
   6  -9   2  174.98   11.20
  -6   9  -2  182.38   10.90
   7  -9   2  282.67   12.00
  -7  -9  -2  255.07   13.20
   7  -9   2  244.98   13.70
  -7   9  -2  270.27   12.40
   7 -10  -2   58.19    9.10
   7 -10  -2   81.29    9.30
  -7 -10   2   84.99    8.50
  -7  10   2   86.49    8.10
  -6 -10   2    3.30    3.00
   6 -10  -2   -4.40    7.90
  -6 -10   2   -1.30    6.20
  -6 -10   2   -7.80    5.90
   6 -10  -2    7.20    6.60
  -6  10   2  -10.60    5.00
   5 -10  -2  870.51   31.50
  -5 -10   2 1071.99   27.70
  -5 -10   2 1007.30   26.60
  -5 -10   2 1067.29   23.40
   4 -10  -2    7.00    5.50
  -4 -10   2    6.90    5.10
  -4 -10   2    0.70    3.20
  -4  10   2    6.90    4.50
   3 -10  -2   35.30    6.60
  -3 -10   2   36.00    6.10
   3 -10  -2   35.90    5.90
  -3  10   2   40.10    4.80
   2 -10  -2    7.10    4.30
  -2 -10   2   -2.80    7.30
  -2 -10   2    0.80    5.20
   2 -10  -2   -4.80    5.00
  -2  10   2    5.00    3.50
  -1 -10   2  102.99    8.50
   1 -10  -2  116.89    9.90
  -1 -10   2  111.89    9.10
   1 -10  -2  106.89    8.20
  -1 -10   2  101.79    7.20
   1  10  -2  110.79    6.40
  -1  10   2  115.79    6.50
   0 -10   2  199.58    9.40
   0 -10  -2  211.08   10.70
   0 -10   2  182.28   10.50
   0 -10   2  195.28   11.70
   0 -10  -2  203.38   11.70
   0  10  -2  207.88    8.30
   0  10   2  189.28    6.90
   1 -10   2   65.69    8.00
   1 -10   2   70.19    6.90
  -1 -10  -2   63.49    6.00
  -1 -10  -2   84.09    8.90
   1 -10   2   82.29    8.50
  -1  10  -2   69.09    5.50
   1  10   2   72.99    4.20
   2 -10   2   11.00    5.10
   2 -10   2   21.10    4.80
   2 -10   2    4.30    5.00
  -2 -10  -2   12.10    5.60
  -2 -10  -2   15.60    5.30
  -2  10  -2   17.20    4.40
   3 -10   2  212.58   10.80
   3 -10   2  215.98   11.20
  -3 -10  -2  217.78   11.90
  -3 -10  -2  201.88   10.80
  -3  10  -2  221.18    9.10
  -4 -10  -2   50.89    6.00
  -4 -10  -2   52.09    7.20
   4 -10   2   58.89    7.60
  -4  10  -2   34.80    5.10
   5 -10   2  547.25   20.10
  -5 -10  -2  540.95   18.30
  -5  10  -2  532.55   16.80
  -6 -10  -2  324.87   14.70
   6 -10   2  331.47   16.20
  -6  10  -2  333.67   13.70
   6 -11  -2    2.60    8.70
  -6 -11   2   -7.00    6.10
  -6  11   2    5.30    7.20
  -5 -11   2   32.30    4.00
   5 -11  -2   42.40    9.50
  -5 -11   2   42.20    7.40
  -5  11   2   38.50    7.20
  -4 -11   2   20.40    6.90
   4 -11  -2   34.10    7.30
  -4  11   2   22.30    5.90
   3 -11  -2   62.09    7.70
  -3 -11   2   72.29    7.90
  -3  11   2   68.09    7.40
   2 -11  -2  109.39   11.70
  -2 -11   2   98.19    8.60
  -2  11   2  108.39    7.10
   1 -11  -2   50.79    8.10
  -1 -11   2   44.00    5.60
  -1  11   2   36.50    4.10
   0 -11  -2   21.50    7.20
   0 -11   2   25.00    6.20
   0 -11   2   12.60    5.20
   0  11   2   14.60    3.50
   0  11  -2   19.20    4.30
  -1 -11  -2   12.20    8.30
   1 -11   2    4.60    5.70
   1 -11   2    4.10    5.70
  -1  11  -2    7.80    4.20
   1  11   2    3.60    2.50
   2 -11   2  220.48   13.90
   2 -11   2  193.78   11.50
  -2  11  -2  199.08    9.70
   3 -11   2  232.98   14.60
  -3  11  -2  217.08   11.00
   4 -11   2   58.99    8.30
  -4  11  -2   69.39    7.50
   5 -11   2    6.10    8.70
  -5 -11  -2    8.70    8.90
  -5  11  -2    7.80    6.80
  -4 -12   2  334.17   17.60
   4 -12  -2  330.97   18.70
  -4  12   2  300.87   12.90
  -3 -12   2   23.80    8.50
  -3 -12   2   33.50    5.30
   3 -12  -2   35.70    9.70
  -3  12   2   29.40    7.50
   2 -12  -2   29.60    7.70
  -2 -12   2   31.60    7.50
  -2 -12   2   25.40    5.30
  -2  12   2   24.70    4.90
  -1 -12   2    3.20    5.80
  -1 -12   2    5.80    6.70
   1 -12  -2    0.70    7.40
  -1  12   2    7.70    3.80
   0 -12   2  115.39   10.60
   0 -12  -2  116.29   11.50
   0 -12   2  130.99   13.50
   0  12   2  121.29    6.90
   0  12  -2  112.09    7.90
   1 -12   2   38.30    7.10
   1 -12   2   38.20    9.00
  -1 -12  -2   27.00    8.40
   1  12   2   36.60    3.30
  -1  12  -2   31.10    4.70
   2 -12   2   79.79   10.60
  -2 -12  -2   75.99   10.20
  -2  12  -2   77.29    7.30
   3 -12   2   25.50    8.10
  -3 -12  -2   26.80    8.90
  -3  12  -2   16.10    6.30
  -4 -12  -2   51.99    9.70
   4 -12   2   22.60   10.10
  -4  12  -2   42.60    7.80
   0 -13   2    6.90    8.50
   0 -13  -2   12.90    9.70
 -11   0   3   -5.50    5.40
 -11   0   3    5.10    3.20
 -10   0   3   -9.40    6.30
 -10   0   3   -0.20    2.30
  -9   0   3   39.50    3.50
  -9   0   3   30.10    5.30
  -8   0   3    1.60    3.80
   8   0  -3    2.10    2.80
  -8   0   3   -0.80    1.50
   7   0  -3  600.64   15.80
  -7   0   3  593.64   16.30
  -7   0   3  582.24   13.80
  -6   0   3    0.10    1.10
   6   0  -3   -3.60    1.90
  -5   0   3 1841.72   41.20
  -5   0   3 1973.10   41.90
   5   0  -3 1927.31   41.70
  -4   0   3   -3.10    1.30
   4   0  -3   -1.00    1.20
  -4   0   3   -1.40    1.00
  -3   0   3 1559.44   33.40
   3   0  -3 1515.55   32.90
  -3   0   3 1549.05   32.90
  -2   0   3   -0.60    0.60
  -2   0   3    2.80    1.10
   2   0  -3    1.10    1.10
   1   0  -3 5537.05  130.69
  -1   0   3 5590.14  130.49
   0   0   3    1.10    0.60
  -1   0  -3 1435.56   31.30
   1   0   3 1421.76   30.40
   1   0   3 1386.46   30.50
   1   0   3 1432.46   31.10
  -2   0  -3   -0.70    1.20
   2   0   3   -1.40    1.00
  -2   0  -3    2.10    1.00
  -2   0  -3   -1.00    1.30
   2   0   3   -0.70    1.00
   2   0   3   -0.60    0.90
  -3   0  -3   91.39    4.40
  -3   0  -3   98.29    4.90
  -3   0  -3   96.69    3.50
   3   0   3  100.69    4.30
   3   0   3   99.99    3.60
   3   0   3  100.39    3.80
   4   0   3    1.30    1.80
  -4   0  -3   -1.40    1.90
   4   0   3   -1.30    2.00
  -4   0  -3    0.40    1.20
  -4   0  -3    2.40    1.90
   4   0   3   -1.80    0.90
   5   0   3    4.10    0.80
  -5   0  -3    6.40    1.70
  -5   0  -3   12.00    2.40
   5   0   3    2.90    2.60
   5   0   3    2.90    2.20
   6   0   3   -3.10    2.50
  -6   0  -3   -1.40    2.70
  -6   0  -3    2.70    2.00
   6   0   3    0.80    2.80
  -7   0  -3   50.59    4.50
   7   0   3   69.19    7.00
   7   0   3   79.89    7.80
   8   0   3   -3.90    3.70
  -8   0  -3    3.00    2.90
  -8   0  -3    4.10    4.10
   8   0   3    1.30    4.60
  -9   0  -3  270.27    9.60
  -9   0  -3  255.27   11.70
   9   0   3  251.57   13.30
  10   0   3    3.70    7.40
 -10   0  -3   -2.10    6.50
 -10   0  -3   -3.40    4.00
 -11  -1   3  131.79   11.70
 -11  -1   3  136.89    5.50
 -11   1   3  145.59   12.80
 -11   1   3  127.39    7.30
 -10  -1   3    2.00    4.70
  10  -1  -3    1.90    4.80
 -10  -1   3    1.50    1.90
 -10   1   3   -0.90    5.70
 -10   1   3   -2.20    2.90
   9  -1  -3   -4.90    3.30
  -9  -1   3    2.70    4.20
  -9   1   3    0.30    2.30
  -9   1   3    2.60    3.60
  -8  -1   3   68.79    7.60
   8  -1  -3   60.09    6.10
  -8  -1   3   50.99    3.50
  -8  -1   3   63.79    5.60
  -8   1   3   58.09    3.70
  -8   1   3   57.49    5.60
   7  -1  -3  261.07    9.10
  -7  -1   3  256.67    6.80
  -7  -1   3  264.57   14.30
  -7   1   3  247.78    9.20
  -7   1   3  249.88    7.30
  -6  -1   3  732.13   16.40
   6  -1  -3  714.53   17.90
  -6  -1   3  742.43   18.30
  -6   1   3  716.93   18.60
  -6   1   3  734.63   16.90
  -5  -1   3 1355.86   30.10
  -5  -1   3 1326.67   29.00
   5  -1  -3 1353.56   30.00
  -5   1   3 1304.57   29.30
   4  -1  -3   20.10    2.10
   4  -1  -3   22.00    1.70
  -4  -1   3   21.50    2.10
  -4  -1   3   17.80    2.00
   4  -1  -3   24.00    1.80
  -4   1   3   22.40    2.00
  -3  -1   3  130.69    4.90
   3  -1  -3  140.49    4.50
  -3  -1   3  143.39    4.30
  -3   1   3  136.09    4.50
   3   1  -3  140.79    3.70
   2  -1  -3   89.19    2.50
   2  -1  -3   90.09    3.60
  -2  -1   3   84.49    3.40
   2   1  -3   89.19    3.30
  -2   1   3   85.29    3.30
  -1  -1   3 1968.90   43.10
   1  -1  -3 2045.40   43.10
  -1   1   3 1997.90   43.10
   1   1  -3 2002.40   43.10
   0  -1  -3 7129.19  167.38
   0  -1   3 7319.97  168.38
   0   1  -3 7515.55  168.78
   0   1   3 7095.79  166.68
  -1  -1  -3 3102.89   64.49
   1  -1   3 3005.40   64.49
   1  -1   3 3036.90   63.79
  -1  -1  -3 2980.60   63.79
  -1   1  -3 3018.40   63.79
  -1   1  -3 3061.69   64.69
   1   1   3 2987.60   64.19
   2  -1   3  706.63   16.80
   2  -1   3  694.33   16.90
  -2  -1  -3  744.53   16.80
  -2  -1  -3  764.32   17.10
   2  -1   3  704.63   16.50
   2   1   3  741.43   16.80
   2   1   3  729.83   16.00
  -2   1  -3  714.33   17.20
  -2   1  -3  696.93   16.30
   2   1   3  741.73   16.60
   3  -1   3  575.34   13.90
   3  -1   3  571.34   14.50
  -3  -1  -3  591.64   13.10
  -3  -1  -3  568.94   14.10
   3  -1   3  582.34   14.00
  -3  -1  -3  585.94   14.60
  -3   1  -3  575.34   13.70
   3   1   3  557.24   13.40
   3   1   3  613.94   14.50
   3   1   3  599.14   13.40
  -3   1  -3  578.94   14.60
  -4  -1  -3 1189.78   26.20
   4  -1   3 1187.38   26.10
   4  -1   3 1144.39   25.50
  -4  -1  -3 1131.79   25.20
  -4  -1  -3 1179.88   27.10
   4  -1   3 1147.19   27.00
   4   1   3 1078.49   24.90
   4   1   3 1162.38   25.50
  -4   1  -3 1156.58   25.80
   4   1   3 1132.99   26.80
  -4   1  -3 1196.38   26.70
  -5  -1  -3   69.19    3.30
   5  -1   3   67.89    4.80
   5  -1   3   64.09    2.70
  -5  -1  -3   66.29    4.20
   5  -1   3   70.69    5.40
  -5  -1  -3   80.79    7.10
  -5   1  -3   63.99    3.80
   5   1   3   65.59    3.90
  -5   1  -3   63.79    4.80
   5   1   3   56.59    4.50
  -6  -1  -3  178.88    5.90
   6  -1   3  176.08    7.60
   6  -1   3  164.68    7.60
  -6  -1  -3  163.48    8.20
  -6  -1  -3  181.38    7.00
   6   1   3  178.48    6.60
  -6   1  -3  175.38    6.50
   6   1   3  164.38    8.10
  -6   1  -3  159.48    8.50
   7  -1   3  653.83   19.10
  -7  -1  -3  663.23   16.10
  -7  -1  -3  650.63   17.10
   7  -1   3  662.03   17.90
  -7  -1  -3  641.04   19.00
  -7   1  -3  654.43   16.70
   7   1   3  680.63   18.70
   7   1   3  684.83   17.20
   8  -1   3  297.87   12.10
   8  -1   3  291.17   12.50
  -8  -1  -3  295.27    9.20
  -8   1  -3  310.77   11.80
  -8   1  -3  291.27   10.10
   8   1   3  303.57   11.80
  -9  -1  -3  566.94   16.70
  -9  -1  -3  598.44   15.40
   9  -1   3  567.54   18.70
  -9   1  -3  580.34   15.90
  -9   1  -3  560.14   17.30
   9   1   3  547.95   18.30
 -10  -1  -3   38.40    4.80
 -10  -1  -3   38.90    6.60
  10  -1   3   30.60    7.10
 -10   1  -3   40.80    7.00
 -10  -2   3   44.90    6.30
 -10  -2   3   50.89    3.60
 -10   2   3   49.80    7.50
 -10   2   3   52.89    6.30
   9  -2  -3   19.70    4.20
  -9  -2   3   24.10    6.40
  -9  -2   3   16.80    2.00
  -9  -2   3   12.70    4.70
  -9   2   3    7.90    4.80
  -9   2   3   14.10    3.40
  -8  -2   3  265.87    7.10
  -8  -2   3  262.57   11.40
  -8  -2   3  272.47   10.20
   8  -2  -3  265.57   10.30
  -8   2   3  269.87   10.80
  -8   2   3  273.67    8.60
  -7  -2   3 1102.99   24.10
   7  -2  -3 1080.69   26.50
  -7  -2   3 1103.19   26.90
  -7   2   3 1105.39   25.30
  -7   2   3 1118.59   27.20
  -6  -2   3   47.70    2.80
  -6  -2   3   43.80    4.00
   6  -2  -3   46.70    4.30
  -6   2   3   46.00    4.10
  -6   2   3   49.99    3.50
  -5  -2   3   22.50    2.20
   5  -2  -3   23.60    1.70
   5  -2  -3   22.30    1.80
   5  -2  -3   21.10    2.50
  -5  -2   3   25.20    2.90
  -5   2   3   23.70    2.40
  -5   2   3   23.10    3.30
   4  -2  -3 1785.62   37.80
  -4  -2   3 1736.73   38.20
   4  -2  -3 1767.72   38.10
   4  -2  -3 1738.33   37.80
  -4   2   3 1745.73   38.30
  -3  -2   3 3676.43   77.49
   3  -2  -3 3708.03   77.59
  -3   2   3 3622.14   77.69
   2  -2  -3 1782.12   38.30
  -2  -2   3 1790.82   38.20
  -2   2   3 1764.22   38.30
   2   2  -3 1707.83   37.80
   1  -2  -3  440.66   11.10
  -1  -2   3  444.56   11.20
  -1   2   3  444.26   11.00
   1   2  -3  442.66   11.10
   0  -2  -3 9198.78  218.98
   0  -2   3 9999.00  222.18
   0   2   3 9976.60  220.08
   0   2  -3 9736.13  220.98
  -1  -2  -3 2507.45   54.29
  -1  -2  -3 2510.35   53.79
   1  -2   3 2529.85   53.89
   1  -2   3 2579.94   54.69
   1   2   3 2518.75   54.09
  -1   2  -3 2608.94   54.79
  -1   2  -3 2492.75   53.79
   2  -2   3  262.57    8.00
  -2  -2  -3  272.97    7.80
  -2  -2  -3  273.57    7.70
   2  -2   3  273.67    7.50
   2   2   3  276.37    7.30
   2   2   3  277.27    6.50
  -2   2  -3  271.97    7.40
  -2   2  -3  266.57    8.10
   3  -2   3 3966.10   83.69
   3  -2   3 4000.10   84.29
  -3  -2  -3 3974.60   84.19
   3  -2   3 3943.71   83.99
  -3  -2  -3 4040.60   83.69
  -3   2  -3 4014.50   84.39
  -3   2  -3 3881.31   83.49
   3   2   3 3948.20   82.99
   3   2   3 3804.12   82.59
  -4  -2  -3  949.90   22.30
   4  -2   3  895.91   21.10
  -4  -2  -3  912.81   21.10
   4  -2   3  913.31   21.50
  -4  -2  -3  885.11   19.90
   4  -2   3  890.71   22.10
   4   2   3  964.10   20.30
  -4   2  -3  917.61   22.00
  -4   2  -3  920.01   21.20
   5  -2   3  158.68    5.30
  -5  -2  -3  160.28    4.70
   5  -2   3  161.48    8.00
  -5  -2  -3  164.08    6.20
  -5  -2  -3  150.88    7.30
   5  -2   3  150.88    6.90
  -5   2  -3  161.68    6.10
   5   2   3  161.68    5.30
  -5   2  -3  157.58    7.20
  -6  -2  -3  191.38    5.70
   6  -2   3  185.18    5.20
  -6  -2  -3  185.28    7.10
   6  -2   3  194.08    9.00
   6  -2   3  193.18    5.40
  -6  -2  -3  187.58    9.60
   6  -2   3  185.88    7.90
   6   2   3  185.48    6.70
  -6   2  -3  225.28   10.20
  -6   2  -3  192.38    6.90
   7  -2   3  409.86   13.90
   7  -2   3  437.46   13.90
  -7  -2  -3  416.76   14.40
  -7  -2  -3  428.46   12.20
  -7  -2  -3  435.36   10.90
  -7   2  -3  431.66   12.50
  -7   2  -3  418.16   13.50
   8  -2   3    6.30    4.60
  -8  -2  -3   -1.90    5.40
   8  -2   3    5.40    5.40
  -8  -2  -3   -3.60    3.50
  -8  -2  -3    4.90    2.60
  -8   2  -3   -0.70    5.20
  -8   2  -3    0.30    3.40
   9  -2   3   37.70    6.50
   9  -2   3   33.60    6.70
  -9  -2  -3   33.80    3.60
  -9  -2  -3   30.10    5.60
  -9   2  -3   39.60    6.50
  -9   2  -3   40.60    5.10
  10  -2   3  576.84   21.40
 -10  -2  -3  582.44   15.70
 -10  -2  -3  528.55   17.20
 -10   2  -3  550.64   18.60
 -10   2  -3  592.94   17.80
  10  -3  -3  297.87   14.40
 -10  -3   3  299.07    7.90
 -10  -3   3  308.97   12.40
 -10   3   3  311.67   11.40
 -10   3   3  311.07   14.30
  -9  -3   3  208.48    9.60
   9  -3  -3  188.78   10.50
  -9  -3   3  170.98   12.20
  -9  -3   3  197.78    5.90
  -9   3   3  194.48    8.40
  -9   3   3  185.48   10.00
  -8  -3   3   18.90    4.10
  -8  -3   3   26.30    2.90
  -8  -3   3   16.60    5.40
   8  -3  -3   26.20    4.60
  -8   3   3   18.80    3.40
  -8   3   3   14.50    4.70
  -7  -3   3   11.90    1.90
   7  -3  -3   14.30    3.80
  -7  -3   3   20.30    4.50
  -7   3   3   14.10    3.00
  -7   3   3   13.10    3.70
  -6  -3   3  585.84   15.60
  -6  -3   3  550.54   13.30
   6  -3  -3  553.24   15.00
  -6   3   3  557.64   14.50
  -6   3   3  574.74   15.80
   5  -3  -3 1234.88   27.90
   5  -3  -3 1188.48   26.90
  -5  -3   3 1227.98   28.10
   5  -3  -3 1228.78   26.90
  -5   3   3 1216.58   28.60
  -5   3   3 1210.08   27.70
  -4  -3   3 3265.17   70.29
   4  -3  -3 3294.47   70.69
   4  -3  -3 3347.06   70.59
  -4   3   3 3318.17   71.49
  -4   3   3 3364.26   70.99
  -3  -3   3 1246.18   27.20
   3  -3  -3 1217.08   27.40
   3  -3  -3 1211.78   27.60
  -3   3   3 1206.98   27.50
  -2  -3   3 1490.25   32.80
   2  -3  -3 1507.35   32.90
   2   3  -3 1465.15   32.30
  -2   3   3 1469.95   32.90
   1  -3  -3 1600.64   34.60
  -1  -3   3 1543.85   34.70
  -1  -3   3 1587.84   33.90
   1   3  -3 1567.04   34.50
  -1   3   3 1544.75   34.50
   0  -3  -3 2052.59   43.10
   0  -3   3 1944.11   42.40
   0  -3   3 1904.81   43.20
   0   3  -3 2010.50   43.20
   0   3   3 1966.40   42.80
   0   3  -3 1967.10   42.40
   1  -3   3  462.45   12.30
  -1  -3  -3  466.15   11.80
   1  -3   3  477.45   11.50
  -1   3  -3  462.65   11.40
   1   3   3  457.45   11.50
  -1   3  -3  472.35   12.30
   2  -3   3   60.49    3.50
  -2  -3  -3   58.79    3.80
  -2  -3  -3   58.89    3.80
   2  -3   3   52.89    4.00
   2   3   3   59.79    3.10
  -2   3  -3   62.09    4.70
  -2   3  -3   60.29    3.50
   2   3   3   62.49    2.10
  -3  -3  -3  105.69    4.70
  -3  -3  -3   98.99    5.30
   3  -3   3  100.39    5.00
   3  -3   3  108.89    4.80
  -3   3  -3  111.19    4.60
   3   3   3  103.09    3.70
   3   3   3  101.69    3.00
  -3   3  -3   96.59    5.40
   4  -3   3  628.64   15.80
   4  -3   3  643.94   16.60
  -4  -3  -3  649.83   15.50
   4   3   3  631.84   14.00
  -4   3  -3  628.94   15.50
  -4   3  -3  598.24   17.90
  -5  -3  -3  287.97    6.70
   5  -3   3  262.47    8.30
   5  -3   3  264.47    9.90
  -5  -3  -3  314.17    8.70
  -5  -3  -3  292.77   10.00
   5  -3   3  258.07    9.50
   5  -3   3  260.17    8.00
  -5   3  -3  270.27    8.80
  -5   3  -3  280.87   11.20
   6  -3   3  734.83   19.10
  -6  -3  -3  746.93   18.00
  -6  -3  -3  735.03   16.30
  -6  -3  -3  701.73   19.90
   6  -3   3  710.43   17.00
   6  -3   3  757.82   17.30
   6  -3   3  712.73   19.80
  -6   3  -3  740.53   18.40
  -6   3  -3  732.13   19.60
  -7  -3  -3 1118.59   24.60
   7  -3   3 1108.79   28.80
   7  -3   3 1098.99   27.60
  -7  -3  -3 1093.09   28.60
  -7   3  -3 1121.69   26.80
  -7   3  -3 1135.09   27.90
   8  -3   3  207.68   11.40
  -8  -3  -3  224.68    6.80
  -8  -3  -3  206.98   10.80
  -8   3  -3  213.98   12.20
  -8   3  -3  231.68    9.50
   9  -3   3   18.60    5.90
   9  -3   3   10.70    5.90
  -9  -3  -3   10.20    2.70
  -9  -3  -3    4.60    4.60
  -9   3  -3    1.20    5.60
  -9   3  -3    3.80    6.00
 -10  -3  -3    6.90    3.50
  10  -3   3   -6.60    7.90
 -10  -3  -3   12.20    5.80
 -10   3  -3    9.30    6.10
 -10  -4   3  114.19    5.00
  10  -4  -3  126.49   11.90
 -10  -4   3  120.69    8.70
 -10   4   3  120.49   10.40
   9  -4  -3  944.11   25.50
  -9  -4   3  936.21   23.90
  -9  -4   3  925.91   26.40
  -9  -4   3  948.91   21.20
  -9   4   3  948.01   23.90
  -9   4   3  918.01   25.20
  -8  -4   3   15.70    4.90
   8  -4  -3   10.70    4.50
  -8   4   3   19.70    4.50
  -8   4   3   13.60    3.90
  -7  -4   3  397.16   10.30
  -7  -4   3  413.66   13.90
   7  -4  -3  412.96   13.10
  -7   4   3  412.36   12.10
  -7   4   3  390.06   13.30
   6  -4  -3  514.15   12.70
   6  -4  -3  523.65   14.40
   6  -4  -3  506.85   12.70
  -6  -4   3  517.75   14.90
  -6  -4   3  499.95   12.50
  -6   4   3  512.85   15.00
  -6   4   3  520.15   14.00
   5  -4  -3 2541.95   55.39
  -5  -4   3 2571.44   56.39
   5  -4  -3 2583.44   55.19
  -5  -4   3 2517.75   54.89
  -5   4   3 2539.35   55.79
  -5   4   3 2592.14   56.59
   4  -4  -3  683.83   16.70
   4  -4  -3  666.03   16.80
  -4  -4   3  684.73   16.20
  -4   4   3  675.83   16.90
  -4   4   3  663.13   17.00
  -3  -4   3 1694.03   37.10
   3  -4  -3 1688.13   37.30
   3  -4  -3 1704.83   37.70
  -3   4   3 1668.93   37.40
  -3   4   3 1643.84   37.30
  -2  -4   3  309.27    8.20
   2  -4  -3  317.97    9.10
  -2  -4   3  291.07    8.80
  -2   4   3  309.97    8.90
  -2   4   3  291.87    8.50
   2   4  -3  306.77    8.50
  -1  -4   3 3222.08   69.29
   1  -4  -3 3282.77   70.09
  -1  -4   3 3267.87   70.39
   1   4  -3 3304.37   69.99
  -1   4   3 3281.67   70.09
   0  -4   3    3.90    1.90
   0  -4  -3    2.60    2.20
   0  -4   3    3.80    1.90
   0   4  -3    3.80    2.50
   0   4   3    4.10    1.60
   0   4  -3    9.80    1.90
   1  -4   3   50.19    3.40
  -1  -4  -3   54.79    4.10
   1  -4   3   57.59    4.00
  -1   4  -3   54.19    4.80
  -1   4  -3   54.69    3.20
   1   4   3   44.20    3.30
  -2  -4  -3  911.41   21.30
   2  -4   3  896.01   21.90
   2  -4   3  955.20   21.30
  -2   4  -3  916.11   21.10
   2   4   3  874.91   19.20
   2   4   3  899.01   20.80
  -2   4  -3  921.91   22.30
  -3  -4  -3  281.97    8.50
   3  -4   3  279.87    9.20
  -3  -4  -3  285.17    9.20
  -3   4  -3  263.17   11.00
  -3   4  -3  281.57    8.20
   3   4   3  284.07    7.50
   4  -4   3   16.10    3.00
  -4  -4  -3   17.70    2.60
   4  -4   3   12.30    3.30
  -4  -4  -3   19.70    4.20
  -4   4  -3   10.40    2.80
  -4   4  -3   19.00    4.00
   5  -4   3   -3.20    2.60
   5  -4   3   -1.50    2.80
   5  -4   3    0.60    2.90
  -5  -4  -3    0.30    3.90
  -5  -4  -3    1.10    2.30
   5  -4   3    1.10    2.50
  -5   4  -3   -0.80    3.70
  -5   4  -3   -2.90    2.00
   6  -4   3  615.84   15.60
  -6  -4  -3  644.34   18.80
   6  -4   3  619.84   17.40
   6  -4   3  609.04   18.20
   6  -4   3  651.53   16.10
  -6   4  -3  609.54   18.00
  -6   4  -3  628.94   16.80
  -7  -4  -3   94.09    6.20
   7  -4   3  102.39    7.70
   7  -4   3   96.09    5.10
   7  -4   3  107.59    4.80
  -7  -4  -3  101.29    8.30
  -7  -4  -3  104.69    3.30
   7  -4   3  101.19    9.20
  -7   4  -3   91.49    8.90
  -7   4  -3  101.39    6.30
  -8  -4  -3   30.60    2.70
  -8  -4  -3   26.80    4.90
   8  -4   3   30.90    6.70
   8  -4   3   31.30    6.40
  -8   4  -3   35.00    6.50
  -8   4  -3   34.20    4.20
   9  -4   3   25.30    6.60
  -9  -4  -3   27.30    5.70
  -9  -4  -3   24.20    2.70
  -9   4  -3   28.00    7.30
  -9   4  -3   27.90    5.00
 -10  -4  -3  143.39    6.00
  10  -4   3  142.89   13.10
 -10   4  -3  157.58   10.30
 -10  -5   3  118.79    8.70
  10  -5  -3  143.29   11.40
 -10   5   3  115.99   12.40
   9  -5  -3   -1.00    5.30
  -9  -5   3   -4.50    4.40
  -9  -5   3    1.50    2.40
  -9   5   3   -0.50    4.20
  -9   5   3   -4.70    4.80
  -8  -5   3   17.30    2.30
  -8  -5   3   14.40    6.30
   8  -5  -3   12.50    4.80
  -8   5   3    7.50    4.40
  -8   5   3   15.60    4.00
   7  -5  -3  100.69    4.50
  -7  -5   3   95.39    4.60
   7  -5  -3   94.99    5.30
   7  -5  -3   98.69    7.50
  -7  -5   3   82.19    7.70
  -7   5   3   95.49    7.70
  -7   5   3  101.29    6.60
   6  -5  -3 1995.40   44.10
  -6  -5   3 2032.90   45.60
  -6  -5   3 1953.30   43.50
   6  -5  -3 1970.10   43.70
  -6   5   3 1976.80   45.40
  -6   5   3 2001.90   44.90
   5  -5  -3  888.91   21.30
  -5  -5   3  874.81   21.00
   5  -5  -3  906.71   21.80
  -5   5   3  883.01   22.00
  -5   5   3  886.51   22.40
   4  -5  -3    0.40    2.60
  -4  -5   3    0.80    2.00
  -4  -5   3    0.30    2.10
   4  -5  -3    0.10    2.70
  -4   5   3    3.90    2.90
  -4   5   3   -0.70    1.90
   3  -5  -3   29.20    3.50
  -3  -5   3   34.90    3.20
  -3  -5   3   28.90    3.10
   3  -5  -3   32.00    3.70
  -3   5   3   36.20    3.60
  -3   5   3   25.80    3.30
  -2  -5   3  546.75   13.20
   2  -5  -3  566.24   14.50
  -2  -5   3  536.55   14.40
  -2   5   3  541.65   13.80
  -2   5   3  540.05   14.20
   2   5  -3  543.75   13.70
  -1  -5   3  580.74   15.30
   1  -5  -3  596.14   15.20
  -1  -5   3  585.04   14.10
  -1   5   3  582.34   15.00
  -1   5   3  589.04   14.20
   1   5  -3  586.24   15.10
   0  -5  -3 2769.62   58.79
   0  -5   3 2646.14   59.29
   0  -5   3 2774.92   57.99
   0   5  -3 2644.04   57.79
   0   5   3 2650.03   58.49
   0   5  -3 2799.12   59.19
   0   5   3 2632.94   57.29
   1  -5   3 2284.97   48.10
  -1  -5  -3 2224.78   48.40
   1  -5   3 2204.68   49.20
  -1   5  -3 2174.68   47.80
   1   5   3 2140.59   46.70
  -1   5  -3 2270.97   49.30
   1   5   3 2171.58   48.10
  -2  -5  -3  235.98    7.60
   2  -5   3  225.08    8.60
  -2   5  -3  232.58    7.40
  -2   5  -3  223.88    8.50
   2   5   3  220.78    7.00
   2   5   3  229.38    5.10
  -3  -5  -3 1188.98   28.80
   3  -5   3 1074.09   28.90
   3  -5   3 1222.48   28.60
  -3   5  -3 1227.28   27.50
  -3   5  -3 1239.18   28.80
   4  -5   3  360.16   11.10
   4  -5   3  344.47   11.30
  -4  -5  -3  356.66   11.90
  -4   5  -3  354.46   10.50
  -4   5  -3  363.26   11.90
   5  -5   3   90.59    7.60
   5  -5   3   92.99    6.10
  -5  -5  -3   84.99    5.50
  -5  -5  -3  101.79    8.10
  -5   5  -3   94.09    5.40
  -5   5  -3   91.89    7.00
  -6  -5  -3   45.70    5.70
   6  -5   3   39.10    5.50
   6  -5   3   46.70    4.60
   6  -5   3   43.50    4.50
   6  -5   3   39.60    5.20
  -6   5  -3   36.80    5.90
  -6   5  -3   39.50    4.50
  -7  -5  -3  134.29    7.70
   7  -5   3  128.59    8.60
   7  -5   3  132.49    6.90
   7  -5   3  131.59    6.60
   7  -5   3  148.29    9.70
  -7  -5  -3  133.49    9.50
  -7   5  -3  137.79    7.50
  -7   5  -3  121.49    9.20
   8  -5   3  321.67   13.90
   8  -5   3  295.47    8.20
  -8  -5  -3  299.87   11.30
   8  -5   3  300.87    7.90
  -8   5  -3  296.97   11.60
  -8   5  -3  298.67   14.80
  -9  -5  -3  136.79    9.80
   9  -5   3  144.39   13.70
  -9   5  -3  161.28   11.00
  -9  -6   3   -0.90    3.20
  -9  -6   3    4.40    3.90
   9  -6  -3   11.30    7.00
  -9   6   3   10.30    6.90
  -8  -6   3  274.27    9.00
   8  -6  -3  279.27   12.30
  -8  -6   3  259.47   13.50
  -8   6   3  258.57   11.10
  -7  -6   3  147.09    6.80
  -7  -6   3  132.29    9.40
   7  -6  -3  133.29    7.10
   7  -6  -3  152.58    9.00
   7  -6  -3  142.09    7.00
  -7   6   3  159.98    8.30
  -7   6   3  143.49    8.30
  -6  -6   3   70.39    8.10
  -6  -6   3   65.69    5.10
   6  -6  -3   49.50    6.00
   6  -6  -3   73.39    6.60
  -6  -6   3   62.89    4.70
  -6   6   3   69.99    6.00
  -6   6   3   57.29    6.40
  -5  -6   3  122.29    5.40
   5  -6  -3  116.19    8.00
  -5  -6   3  124.99    5.90
   5  -6  -3  112.99    7.10
  -5   6   3  117.29    7.00
  -5   6   3  119.09    7.20
  -4  -6   3   37.50    4.40
  -4  -6   3   45.60    4.20
   4  -6  -3   45.10    5.40
   4  -6  -3   44.10    4.60
  -4   6   3   45.30    4.40
  -4   6   3   46.70    5.10
   3  -6  -3   18.80    6.40
   3  -6  -3   17.10    3.80
  -3  -6   3   19.10    3.10
  -3  -6   3   21.50    2.60
  -3   6   3   15.10    2.70
  -3   6   3   16.70    2.70
   2  -6  -3  927.41   29.50
   2  -6  -3 1162.88   27.40
  -2  -6   3 1147.39   25.20
  -2  -6   3 1142.09   26.80
  -2   6   3 1123.69   25.70
   2   6  -3 1156.68   26.00
  -2   6   3 1127.29   26.40
  -1  -6   3   23.30    3.50
  -1  -6   3   22.70    2.50
  -1   6   3   26.60    3.40
  -1   6   3   22.70    2.50
   1   6  -3   23.20    3.50
   0  -6   3 4619.44   96.59
   0  -6   3 4588.04   98.29
   0   6   3 4517.25   97.29
   0   6  -3 4579.44   96.49
   0   6   3 4491.65   95.79
   1  -6   3    4.30    3.20
   1  -6   3    3.10    2.20
   1   6   3    0.80    1.00
  -1   6  -3   -0.90    1.80
   1   6   3   -1.50    2.20
   2  -6   3   17.60    3.80
   2  -6   3   16.70    2.90
  -2  -6  -3   18.20    3.40
   2   6   3   15.80    1.00
  -2   6  -3   18.40    2.60
  -2   6  -3   21.10    4.40
   3  -6   3   -2.30    2.70
  -3  -6  -3    5.40    3.20
   3  -6   3   -0.50    2.60
  -3   6  -3   -2.40    3.00
  -3   6  -3    2.10    2.70
  -4  -6  -3  502.45   15.10
  -4  -6  -3  481.35   13.70
   4  -6   3  497.65   14.80
   4  -6   3  485.75   14.50
  -4   6  -3  490.55   13.60
  -4   6  -3  484.65   15.30
  -5  -6  -3    0.80    4.10
   5  -6   3    3.60    3.80
   5  -6   3   -0.90    3.60
   5  -6   3    4.70    3.60
  -5  -6  -3    2.50    3.10
  -5   6  -3   -0.80    2.80
  -5   6  -3    4.40    5.00
  -6  -6  -3  401.26   15.10
   6  -6   3  382.56   13.60
  -6  -6  -3  393.96   12.60
   6  -6   3  410.26   12.90
  -6   6  -3  386.76   12.30
  -6   6  -3  400.46   15.20
   7  -6   3   22.00    6.30
  -7  -6  -3    8.40    4.60
   7  -6   3    8.30    4.40
  -7   6  -3   10.10    5.90
  -7   6  -3   16.20    4.10
   8  -6   3  116.29    6.40
   8  -6   3  122.39    6.70
  -8  -6  -3  112.39    9.20
   8  -6   3  130.09   12.30
  -8   6  -3  129.39    8.60
   9  -6   3    6.40    8.90
  -9  -6  -3    1.80    5.30
  -9   6  -3   15.20    6.50
  -9  -7   3   22.30    4.90
  -9  -7   3   22.30    4.50
   9  -7  -3   17.60    8.00
  -9  -7   3   19.20    4.80
  -9   7   3   15.90    6.40
  -8  -7   3   38.80    4.90
   8  -7  -3   36.70   10.20
   8  -7  -3   33.40    4.20
   8  -7  -3   28.80    4.30
  -8  -7   3   36.60    4.90
  -8   7   3   28.90    6.90
  -7  -7   3  110.29    9.50
  -7  -7   3  129.59    7.60
   7  -7  -3  125.29    8.00
  -7  -7   3  133.79    7.00
  -7   7   3  137.49    8.30
  -7   7   3  115.79    8.60
   6  -7  -3  871.31   22.30
  -6  -7   3  838.72   21.60
   6  -7  -3  869.91   22.90
  -6   7   3  879.61   23.00
  -6   7   3  856.01   23.10
   5  -7  -3  393.46   13.30
  -5  -7   3  404.76   11.00
   5  -7  -3  389.56   13.00
  -5  -7   3  397.06   12.60
  -5   7   3  395.56   12.60
  -5   7   3  386.66   12.70
  -4  -7   3  307.37    8.90
   4  -7  -3  303.67   11.20
   4  -7  -3  296.87   11.00
  -4  -7   3  292.67   10.30
  -4   7   3  281.37   10.30
  -4   7   3  302.47   10.50
  -3  -7   3   31.50    3.20
   3  -7  -3   29.30    4.20
  -3  -7   3   31.80    4.10
   3  -7  -3   26.10    4.50
  -3   7   3   25.50    3.90
  -3   7   3   28.60    3.80
  -2  -7   3   66.99    6.00
   2  -7  -3   72.39    5.90
  -2  -7   3   74.09    4.70
   2  -7  -3   73.19    6.60
  -2   7   3   69.09    5.10
  -2   7   3   75.89    4.40
   1  -7  -3   10.50    3.70
  -1  -7   3    7.70    3.00
   1  -7  -3    7.60    3.10
  -1   7   3    4.30    3.00
  -1   7   3    5.60    2.20
   0  -7   3 1334.07   30.20
   0  -7  -3 1326.17   31.10
   0  -7   3 1314.37   32.10
   0   7  -3 1297.77   29.80
   0   7  -3 1347.17   31.80
   0   7   3 1293.67   29.10
   0   7   3 1318.17   30.90
   1  -7   3 1022.10   24.30
  -1  -7  -3 1015.10   24.80
   1  -7   3 1034.10   25.90
  -1   7  -3  994.10   25.50
  -1   7  -3 1015.20   23.90
   1   7   3 1009.80   22.20
  -2  -7  -3  218.68    8.40
   2  -7   3  217.58    8.20
   2  -7   3  225.18    9.30
  -2   7  -3  207.58    7.60
   2   7   3  209.88    4.90
  -2   7  -3  213.48   10.50
  -3  -7  -3  974.10   24.20
   3  -7   3  995.80   24.50
   3  -7   3  962.30   25.10
  -3   7  -3  956.70   25.60
  -3   7  -3  979.80   23.50
   4  -7   3  116.09    8.20
   4  -7   3  118.69    8.80
   4  -7   3  122.49    8.20
  -4  -7  -3  120.19    7.40
  -4   7  -3  110.39    8.50
  -4   7  -3  107.49    6.70
   5  -7   3   22.80    4.80
   5  -7   3   24.80    5.10
   5  -7   3   23.60    5.10
  -5  -7  -3   27.30    5.40
  -5  -7  -3   24.70    4.30
  -5   7  -3   29.40    4.40
  -5   7  -3   29.50    6.10
   6  -7   3  518.25   16.90
   6  -7   3  578.34   17.50
  -6  -7  -3  564.34   16.20
   6  -7   3  564.44   16.50
  -6  -7  -3  535.25   18.30
  -6   7  -3  572.14   18.70
   7  -7   3  245.18   11.10
   7  -7   3  229.08   13.70
   7  -7   3  255.27   11.40
  -7  -7  -3  233.18   10.60
  -7   7  -3  248.98   11.50
  -8  -7  -3  332.17   13.50
   8  -7   3  324.47   17.30
   8  -7   3  362.66   12.20
  -8   7  -3  348.77   14.60
   8  -8  -3   27.60    5.90
  -8  -8   3   31.00    5.50
   8  -8  -3   29.70    7.70
  -8   8   3   28.60    6.40
   7  -8  -3   97.39    8.10
   7  -8  -3  100.99    8.70
  -7  -8   3  101.99    6.60
  -7  -8   3   91.79    8.50
  -7   8   3   92.79   10.00
   6  -8  -3  296.97   13.10
   6  -8  -3  303.77   12.40
  -6  -8   3  293.97   11.30
   5  -8  -3  110.09    8.60
  -5  -8   3  120.79    7.80
   5  -8  -3  104.19    9.00
  -5   8   3  126.79    8.30
  -4  -8   3   37.70    4.90
   4  -8  -3   39.00    5.60
   4  -8  -3   30.20    5.40
  -4   8   3   29.10    4.50
  -4   8   3   36.20    4.80
   3  -8  -3  374.76   13.50
   3  -8  -3  382.96   13.90
  -3  -8   3  382.46   12.70
  -3   8   3  382.16   12.50
  -3   8   3  380.96   11.60
   2  -8  -3   -2.00    4.30
   2  -8  -3    3.30    4.30
  -2  -8   3   -1.50    3.00
  -2  -8   3   -1.90    2.80
  -2   8   3   -5.50    2.70
  -1  -8   3 1242.38   30.50
   1  -8  -3 1215.18   29.80
   1  -8  -3 1182.58   30.20
  -1   8   3 1204.08   27.60
   0  -8   3   22.00    5.20
   0  -8  -3   22.80    4.20
   0  -8   3   28.80    4.00
   0  -8  -3   22.30    4.20
   0   8   3   22.40    2.60
   0   8  -3   21.30    5.20
   0   8  -3   27.10    3.60
  -1  -8  -3  581.24   16.80
   1  -8   3  628.74   18.30
   1  -8   3  607.14   16.40
   1   8   3  590.94   13.80
  -1   8  -3  608.04   18.20
  -1   8  -3  583.34   15.70
   2  -8   3   58.89    5.50
   2  -8   3   65.89    7.30
  -2  -8  -3   55.09    5.50
  -2   8  -3   59.29    5.60
   2   8   3   59.09    2.10
  -2   8  -3   54.99    5.90
   3  -8   3 1158.28   28.50
   3  -8   3 1180.38   29.80
  -3  -8  -3 1139.69   28.40
  -3   8  -3 1180.18   28.00
  -3   8  -3 1151.48   30.00
   4  -8   3   -4.60    5.00
   4  -8   3   13.30    5.20
  -4  -8  -3    8.00    4.40
   4  -8   3   10.00    4.90
  -4   8  -3    6.90    5.50
  -4   8  -3   13.10    3.80
  -5  -8  -3   38.00    6.60
  -5  -8  -3   49.00    5.60
   5  -8   3   38.60    5.20
   5  -8   3   41.20    6.30
   5  -8   3   41.70    5.50
  -5   8  -3   40.60    7.60
  -6  -8  -3  168.08   10.00
   6  -8   3  171.48   10.50
   6  -8   3  172.48   11.90
  -6   8  -3  172.18    9.10
  -7  -8  -3    9.20    6.10
   7  -8   3   -0.90    6.10
   7  -8   3   12.30    6.20
  -7   8  -3    2.60    4.90
   8  -8   3    8.70    6.50
   8  -8   3   -8.10    8.70
  -8  -8  -3   10.30    7.00
  -8   8  -3    9.30    5.80
  -7  -9   3    2.60    4.30
   7  -9  -3    0.30    5.30
  -7  -9   3   -5.20    5.70
   7  -9  -3   -3.30    6.40
  -7   9   3    5.50    6.80
  -6  -9   3   56.19    5.80
   6  -9  -3   48.10    7.00
  -6  -9   3   47.40    6.20
   6  -9  -3   46.00    6.90
  -6   9   3   54.19    6.80
   5  -9  -3  289.47   13.30
   5  -9  -3  293.57   13.40
  -5  -9   3  309.27   13.10
  -5  -9   3  293.07    9.70
  -5   9   3  302.37   12.00
  -4  -9   3  305.87   10.00
  -4  -9   3  289.57   12.30
   4  -9  -3  288.37   13.20
   4  -9  -3  301.77   12.60
  -4   9   3  298.37   11.40
  -3  -9   3  493.25   16.30
   3  -9  -3  487.55   16.00
  -3  -9   3  471.95   17.40
   3  -9  -3  476.95   16.20
  -3   9   3  474.75   14.30
   2  -9  -3   26.70    5.60
  -2  -9   3   26.10    5.30
   2  -9  -3   30.50    5.70
  -2  -9   3   26.30    4.00
  -2   9   3   28.10    3.90
   1  -9  -3   48.90    5.30
   1  -9  -3   54.59    6.20
  -1  -9   3   53.79    6.40
  -1  -9   3   48.70    5.30
  -1   9   3   53.09    4.60
   0  -9   3   18.40    5.30
   0  -9  -3   17.00    5.40
   0  -9   3   10.40    4.10
   0  -9  -3   11.60    5.00
   0   9   3   10.00    2.80
   0   9  -3   16.60    3.80
   0   9  -3    1.70    5.60
   1  -9   3  506.45   17.00
  -1  -9  -3  519.35   16.90
  -1  -9  -3  489.85   15.60
   1  -9   3  509.35   15.30
  -1   9  -3  518.15   14.10
   1   9   3  510.45   12.00
  -1   9  -3  496.45   17.50
  -2  -9  -3   46.70    5.30
   2  -9   3   46.00    6.60
   2  -9   3   41.40    5.80
  -2   9  -3   50.79    6.10
   2   9   3   44.60    2.10
  -2   9  -3   48.20    4.40
  -3  -9  -3   98.39    8.70
   3  -9   3   92.49    9.20
   3  -9   3   98.79    8.40
   3  -9   3  110.99    9.00
  -3   9  -3   95.19    8.70
  -3   9  -3   91.99    6.40
   4  -9   3    3.60    5.60
   4  -9   3   -3.30    3.90
  -4  -9  -3    4.50    4.70
   4  -9   3    0.90    4.30
  -5  -9  -3    7.20    5.30
   5  -9   3   10.50    5.80
   5  -9   3   10.00    5.70
  -5   9  -3    5.00    4.10
   6  -9   3   27.60   11.30
   6  -9   3   22.20    6.30
  -6  -9  -3   23.30    5.60
  -6   9  -3   23.50    6.30
  -7   9  -3  509.05   17.20
  -7 -10   3   39.90    7.70
   7 -10  -3   41.60    9.00
  -7  10   3   26.40    6.70
  -6 -10   3   14.40    6.20
   6 -10  -3   18.20    6.70
  -6 -10   3    7.90    4.30
   6 -10  -3   17.80    7.70
  -6  10   3    7.20    6.30
   5 -10  -3   -3.30    7.30
   5 -10  -3   -9.70    5.50
  -5 -10   3   -0.90    5.40
  -5  10   3   -4.70    5.50
   4 -10  -3  163.78    9.60
  -4 -10   3  176.78    8.70
  -4 -10   3  182.28   11.60
   4 -10  -3  155.88   12.30
  -4  10   3  179.28    9.50
   3 -10  -3  342.67   13.40
  -3 -10   3  398.56   15.20
  -3 -10   3  357.66   11.60
  -3  10   3  371.76   12.40
   2 -10  -3  212.08   11.00
  -2 -10   3  193.98    9.10
   2 -10  -3  209.48   12.00
  -2 -10   3  200.88   10.90
  -2  10   3  224.48    8.80
   1 -10  -3    0.40    5.70
  -1 -10   3    7.50    4.40
   1 -10  -3    3.20    3.90
  -1 -10   3   11.80    4.70
  -1  10   3    7.50    3.60
   0 -10  -3 1746.03   43.60
   0 -10   3 1819.92   41.90
   0 -10  -3 1812.72   44.60
   0 -10   3 1860.61   45.00
   0  10  -3 1861.11   41.40
   0  10   3 1813.62   40.00
  -1 -10  -3   10.90    5.80
   1 -10   3    6.20    5.30
  -1 -10  -3    7.20    4.70
   1 -10   3   10.70    5.80
  -1  10  -3    7.50    4.70
  -1  10  -3    1.80    4.00
   1  10   3    6.80    1.80
   2 -10   3   22.90    4.80
  -2 -10  -3   25.50    6.10
  -2  10  -3   16.00    3.80
  -2  10  -3    8.80    5.00
   3 -10   3  240.58   13.60
   3 -10   3  208.58   11.30
   4 -10   3  298.17   15.30
   5 -10   3   58.19    9.10
  -5  10  -3   44.80    6.00
   6 -10   3   78.79    9.90
  -6  10  -3   71.89    7.50
   5 -11  -3   17.10    7.20
  -5 -11   3   15.90    4.30
  -5  11   3   23.90    6.90
   4 -11  -3   -0.80    8.10
  -4 -11   3   11.50    4.20
  -4  11   3    8.00    5.60
  -3 -11   3   -2.80    4.40
   3 -11  -3   12.10    7.50
  -3  11   3    4.70    4.40
  -2 -11   3    7.90    6.00
   2 -11  -3   15.40    7.40
  -2 -11   3   13.90    5.00
  -2  11   3   20.30    4.40
  -1 -11   3   54.59    6.30
  -1 -11   3   48.20    7.20
   1 -11  -3   59.59    8.40
  -1  11   3   51.49    4.80
   0 -11   3  367.96   13.90
   0 -11  -3  356.96   15.30
   0 -11   3  367.76   17.00
   0  11  -3  362.06   12.40
   0  11   3  351.96   10.50
  -1 -11  -3  165.98   11.20
   1 -11   3  146.69   11.10
   1 -11   3  157.78   10.70
   1  11   3  158.88    5.50
  -1  11  -3  170.68    9.00
   2 -11   3   48.10    9.00
  -2 -11  -3   61.79    8.90
  -2  11  -3   60.09    5.90
   3 -11   3   90.29   10.50
  -3 -11  -3   99.59   10.60
  -3  11  -3   80.99    7.60
   4 -11   3   57.29    9.80
  -4 -11  -3   50.09    9.00
  -4  11  -3   51.69    7.40
  -5 -11  -3   79.99    9.60
   5 -11   3   86.99   11.20
  -5  11  -3   79.99    8.60
  -3 -12   3   62.09    6.70
  -3 -12   3   46.80    8.50
   3 -12  -3   51.69    8.80
  -3  12   3   54.59    7.90
  -2 -12   3   21.50    5.80
  -2 -12   3    6.10    8.40
   2 -12  -3   12.20    9.10
  -2  12   3   29.40    5.00
  -1 -12   3   78.59    9.20
   1 -12  -3   77.99    9.30
  -1 -12   3   74.49    7.60
  -1  12   3   91.49    7.30
   0 -12   3   -3.10    6.40
   0 -12  -3   -7.20    8.40
   0 -12   3   -1.50    8.50
   0  12  -3    1.40    4.90
   0  12   3   -3.80    3.30
  -1 -12  -3   23.50    8.80
   1 -12   3   12.30    7.50
  -1  12  -3   15.20    5.00
   1  12   3   13.60    2.60
  -2 -12  -3    5.20    8.50
   2 -12   3    7.50    7.30
  -2  12  -3   -0.50    6.00
  -3 -12  -3    6.80    8.90
   3 -12   3   11.70    9.80
  -3  12  -3  -11.40    6.50
 -10   0   4  427.16   12.40
 -10   0   4  459.65   16.60
  -9   0   4    3.40    4.80
  -9   0   4   -1.80    2.60
  -8   0   4  119.09    5.20
  -8   0   4  113.89    7.20
  -7   0   4    0.80    1.60
  -6   0   4  129.49    5.00
  -5   0   4   -1.10    1.40
   4   0  -4 1389.96   30.40
  -4   0   4 1446.96   31.50
  -3   0   4   -1.20    1.40
   3   0  -4    1.00    1.70
   2   0  -4 1835.82   40.00
  -2   0   4 1829.92   40.10
  -1   0   4   -1.10    1.60
   1   0  -4   -1.90    1.90
   0   0  -4  802.42   19.10
   0   0   4  809.82   19.00
   0   0   4  802.32   17.50
  -1   0  -4   -0.40    2.10
   1   0   4    3.20    1.30
   1   0   4   -2.70    1.00
   1   0   4   -1.20    1.40
  -2   0  -4 2074.19   45.10
   2   0   4 2076.79   45.60
   2   0   4 2134.19   45.20
   2   0   4 2077.39   45.90
  -2   0  -4 2189.88   46.40
  -3   0  -4   -0.30    1.30
  -3   0  -4   -0.40    1.80
   3   0   4    0.80    1.60
   3   0   4   -1.90    1.70
   3   0   4    4.10    1.60
  -4   0  -4  132.09    6.30
   4   0   4  133.69    5.30
  -4   0  -4  137.39    4.80
   4   0   4  136.99    4.90
   4   0   4  135.09    5.90
   5   0   4   -0.30    2.40
   5   0   4    1.00    2.50
   5   0   4    0.70    1.40
  -5   0  -4    2.90    1.90
  -6   0  -4   67.89    4.40
   6   0   4   50.29    5.90
   7   0   4    1.70    4.30
  -7   0  -4    3.10    2.50
  -7   0  -4   -0.10    4.30
   7   0   4    2.60    3.90
  -8   0  -4  295.57   12.40
   8   0   4  289.57   11.60
  -8   0  -4  293.17    9.70
  -9   0  -4    4.30    6.60
   9   0   4   -6.80    6.10
  -9   0  -4    4.90    3.60
 -10   0  -4   52.69    8.10
  10   0   4   65.19    8.30
 -10   0  -4   77.29    7.50
 -10  -1   4  165.18   11.60
 -10  -1   4  150.38    6.30
 -10   1   4  156.68   12.00
 -10   1   4  149.99    7.70
  -9  -1   4  520.75   15.80
   9  -1  -4  504.75   15.50
  -9  -1   4  511.35   12.80
  -9   1   4  494.65   13.60
  -8  -1   4  201.28    6.40
   8  -1  -4  202.28    8.50
  -8   1   4  206.38    7.50
  -8   1   4  188.68    9.80
   7  -1  -4  819.72   20.00
  -7  -1   4  820.92   20.40
  -7  -1   4  806.62   18.70
  -7   1   4  787.62   19.10
  -7   1   4  787.92   21.00
   6  -1  -4   21.30    2.70
  -6  -1   4   24.90    2.80
  -6  -1   4   23.20    3.10
  -6   1   4   21.70    2.50
  -5  -1   4    8.30    2.30
   5  -1  -4    9.10    1.90
  -5  -1   4    9.30    1.60
  -5   1   4    9.00    1.80
   4  -1  -4  556.14   12.90
  -4  -1   4  541.95   13.40
  -4  -1   4  541.15   13.00
   4  -1  -4  535.95   12.60
   4  -1  -4  553.54   13.00
  -4   1   4  543.65   13.50
  -3  -1   4  283.17    7.40
   3  -1  -4  323.27    7.20
   3  -1  -4  310.47    8.50
  -3  -1   4  294.87    8.50
  -3   1   4  362.56    8.90
   3   1  -4  284.17    8.10
  -2  -1   4   16.10    2.10
   2  -1  -4   17.50    2.40
   2   1  -4   18.20    2.20
  -2   1   4   17.40    2.20
  -1  -1   4 4806.02  101.39
   1  -1  -4 4886.71  101.39
  -1   1   4 4690.23  101.19
   1   1  -4 4783.52  101.29
   0  -1  -4 4568.74   97.19
   0  -1   4 4647.23   96.49
   0  -1   4 4518.15   97.29
   0   1  -4 4717.13   97.39
   0   1   4 4502.75   97.09
  -1  -1  -4   79.49    4.70
   1  -1   4   86.19    3.60
   1  -1   4   80.79    3.30
   1  -1   4   90.59    4.50
  -1  -1  -4   82.99    3.40
   1   1   4   85.69    3.40
  -1   1  -4   88.09    5.00
   1   1   4   82.69    4.10
  -2  -1  -4  328.97    9.00
  -2  -1  -4  342.77    9.70
   2  -1   4  326.87    9.40
   2  -1   4  324.07    9.00
   2  -1   4  338.17    8.70
  -2   1  -4  319.47    8.50
   2   1   4  329.27    8.80
  -2   1  -4  336.77   10.00
   2   1   4  321.17    9.00
   2   1   4  325.37    8.20
   3  -1   4  547.75   12.80
   3  -1   4  516.55   13.10
  -3  -1  -4  505.25   13.30
  -3  -1  -4  516.45   12.10
   3  -1   4  502.75   13.30
  -3  -1  -4  513.45   13.50
   3   1   4  516.85   12.20
   3   1   4  521.15   13.30
  -3   1  -4  496.65   13.60
   3   1   4  491.45   12.60
  -3   1  -4  512.15   12.60
   4  -1   4  284.37    9.20
  -4  -1  -4  293.87    9.10
   4  -1   4  278.47    8.60
  -4  -1  -4  300.57    9.80
   4  -1   4  287.27    8.40
  -4  -1  -4  292.77    7.60
  -4   1  -4  284.97    9.60
   4   1   4  285.57    7.80
  -4   1  -4  288.17    8.20
   4   1   4  287.27    7.90
   4   1   4  290.37    9.30
   5  -1   4 1224.98   27.50
   5  -1   4 1218.68   29.70
  -5  -1  -4 1261.97   27.40
  -5  -1  -4 1262.87   29.90
   5   1   4 1240.58   27.80
   5   1   4 1218.58   26.70
  -5   1  -4 1253.77   28.10
  -5   1  -4 1230.78   29.30
   5   1   4 1232.78   29.40
  -6  -1  -4 4406.46   95.59
  -6  -1  -4 4939.81   98.69
   6  -1   4 4568.24   96.89
  -6  -1  -4 4557.54   98.19
   6  -1   4 4395.66   94.69
   6  -1   4 4293.17   94.59
   6  -1   4 4537.55   98.39
  -6   1  -4 4455.45   96.19
  -6   1  -4 4555.44   97.49
   6   1   4 4521.05   96.09
   6   1   4 4586.84   98.19
   7  -1   4  207.58    9.60
  -7  -1  -4  213.88   10.50
  -7  -1  -4  215.08    9.10
   7  -1   4  220.78   10.40
  -7  -1  -4  215.48    7.10
   7   1   4  201.28   10.10
   7   1   4  195.78   10.10
  -7   1  -4  208.58    7.60
  -7   1  -4  202.58    9.70
  -8  -1  -4   48.40    4.80
   8  -1   4   52.79    6.50
  -8  -1  -4   55.39    6.20
  -8   1  -4   42.40    4.50
  -8   1  -4   61.49    7.10
   8   1   4   46.30    5.30
   9  -1   4    4.20    6.30
  -9  -1  -4    7.80    6.20
  -9  -1  -4    5.20    3.40
   9  -1   4   12.40    6.80
  -9   1  -4   17.20    7.20
  -9   1  -4   18.20    4.50
  10  -1   4   73.19   10.10
 -10  -1  -4   68.69    8.20
 -10  -1  -4   66.89    5.50
 -10   1  -4   92.19    9.40
 -10   1  -4   68.39    6.80
 -10  -2   4   78.39    4.60
  10  -2  -4   87.29    9.00
 -10  -2   4   78.49    9.40
 -10   2   4   77.79    7.40
 -10   2   4   94.89    9.50
  -9  -2   4   57.99    7.10
   9  -2  -4   51.09    5.80
  -9  -2   4   52.39    3.80
  -9  -2   4   46.80    5.50
  -9   2   4   49.50    5.70
  -9   2   4   49.50    6.90
   8  -2  -4    1.90    3.90
  -8  -2   4    0.70    1.80
  -8  -2   4   -1.40    4.50
  -8   2   4   -1.30    2.60
  -8   2   4   -5.70    4.30
  -7  -2   4  172.18    9.70
  -7  -2   4  161.38    5.50
   7  -2  -4  159.58    7.10
  -7   2   4  167.38    6.80
  -7   2   4  163.78    8.00
  -6  -2   4 1265.07   28.50
  -6  -2   4 1208.58   27.30
   6  -2  -4 1202.28   28.00
  -6   2   4 1212.98   27.90
   5  -2  -4  236.58    6.40
   5  -2  -4  238.98    7.10
  -5  -2   4  240.48    7.60
  -5  -2   4  237.18    7.00
   5  -2  -4  233.88    6.70
  -5   2   4  236.58    7.60
   4  -2  -4 1075.69   24.20
   4  -2  -4 1072.79   23.60
  -4  -2   4 1036.40   24.10
   4  -2  -4 1066.19   24.10
  -4  -2   4 1079.59   23.90
  -4   2   4 1053.89   24.50
  -3  -2   4  693.43   16.50
   3  -2  -4  706.33   16.70
   3   2  -4  677.63   15.70
  -3   2   4  666.73   16.60
  -2  -2   4    8.80    2.00
   2  -2  -4   13.70    2.50
  -2   2   4   14.20    2.20
   2   2  -4   12.00    2.10
  -1  -2   4  991.00   23.40
  -1  -2   4  994.80   22.50
   1  -2  -4 1024.10   23.30
  -1   2   4 1009.60   23.10
   1   2  -4 1002.00   23.20
   0  -2   4  105.99    4.20
   0  -2  -4  101.69    4.70
   0  -2  -4   98.19    3.40
   0  -2   4   97.69    4.90
   0   2   4  104.19    4.70
   0   2  -4  106.79    5.50
  -1  -2  -4 3711.93   77.89
   1  -2   4 3663.73   77.19
  -1  -2  -4 3619.64   76.89
   1  -2   4 3662.13   78.19
   1   2   4 3569.84   77.59
  -1   2  -4 3612.94   77.19
  -1   2  -4 3682.93   78.29
  -2  -2  -4  507.85   12.80
   2  -2   4  518.15   12.60
   2  -2   4  489.35   13.20
  -2  -2  -4  501.05   13.20
  -2   2  -4  506.35   12.40
   2   2   4  499.55   12.60
  -2   2  -4  504.15   13.60
   2   2   4  514.25   11.70
   3  -2   4 4444.06   95.69
   3  -2   4 4638.74   95.09
  -3  -2  -4 4497.65   95.49
  -3  -2  -4 4556.74   95.49
   3  -2   4 4472.15   95.59
  -3   2  -4 4571.84   96.19
  -3   2  -4 4383.06   94.89
   3   2   4 4375.56   94.69
   3   2   4 4474.35   93.99
  -4  -2  -4  174.78    4.90
  -4  -2  -4  169.08    6.90
   4  -2   4  174.38    7.30
   4  -2   4  165.58    6.60
   4   2   4  170.68    5.30
  -4   2  -4  183.48    7.90
   4   2   4  176.18    5.50
  -4   2  -4  178.58    6.30
   5  -2   4 1351.36   32.40
   5  -2   4 1363.16   33.00
  -5  -2  -4 1350.56   29.80
   5  -2   4 1375.06   30.80
  -5  -2  -4 1382.86   32.70
   5   2   4 1371.06   30.10
  -5   2  -4 1392.96   32.40
  -5   2  -4 1364.16   31.00
   6  -2   4  185.38    6.20
   6  -2   4  196.68    9.00
  -6  -2  -4  200.38    9.60
  -6  -2  -4  203.78    6.20
  -6  -2  -4  191.98   10.50
   6  -2   4  192.78    6.70
   6  -2   4  181.48    9.50
  -6   2  -4  191.28    7.30
  -6   2  -4  188.48    9.50
   6   2   4  192.98    7.10
   7  -2   4  115.29    8.00
  -7  -2  -4  128.79   10.10
  -7  -2  -4  119.99    5.10
   7  -2   4  123.29    9.00
  -7  -2  -4  120.19    7.80
  -7   2  -4  112.89    6.60
  -7   2  -4  124.49    8.70
   7   2   4  128.09    6.70
  -8  -2  -4   42.10    5.80
   8  -2   4   31.70    6.50
   8  -2   4   28.40    6.30
  -8  -2  -4   40.90    4.50
  -8   2  -4   46.00    7.30
  -8   2  -4   39.80    4.80
  -9  -2  -4 1217.58   30.50
  -9  -2  -4 1253.37   28.10
   9  -2   4 1221.88   32.60
   9  -2   4 1230.48   31.30
  -9   2  -4 1172.68   31.90
  -9   2  -4 1187.98   30.00
 -10  -2  -4   74.79    7.00
  10  -2   4   80.29   10.20
 -10  -2  -4   81.39    8.20
 -10   2  -4   67.89    7.20
  10  -3  -4  203.58   11.00
 -10  -3   4  186.48   12.60
 -10  -3   4  187.48    6.70
 -10   3   4  221.78   13.60
 -10   3   4  200.78    9.90
  -9  -3   4   19.00    2.60
   9  -3  -4   21.00    5.10
  -9  -3   4   22.20    5.20
  -9  -3   4   30.90    6.80
  -9   3   4   16.20    3.90
  -9   3   4   13.50    6.20
  -8  -3   4  498.95   12.60
  -8  -3   4  500.75   16.10
   8  -3  -4  504.05   15.10
  -8   3   4  496.35   16.20
  -8   3   4  515.55   14.20
  -7  -3   4  471.55   11.90
  -7  -3   4  461.35   14.40
   7  -3  -4  466.15   13.60
  -7   3   4  468.55   14.40
  -7   3   4  470.05   13.20
   6  -3  -4  268.37    8.70
   6  -3  -4  264.27    7.10
   6  -3  -4  254.97    6.80
  -6  -3   4  252.87   10.50
  -6  -3   4  253.97    7.80
  -6   3   4  280.37    9.80
  -6   3   4  284.67    9.10
   5  -3  -4    1.30    1.90
   5  -3  -4   -0.40    2.20
  -5  -3   4    0.60    1.50
   5  -3  -4    1.70    1.90
  -5  -3   4   -1.10    2.40
  -5   3   4    1.20    2.10
   4  -3  -4  375.16   10.50
   4  -3  -4  381.46   10.70
  -4  -3   4  371.86   10.20
  -4   3   4  363.06   10.50
  -3  -3   4  281.67    8.40
   3  -3  -4  288.57    8.70
  -3   3   4  281.87    8.50
   3   3  -4  281.77    7.70
  -2  -3   4  403.96   11.20
   2  -3  -4  417.36   11.40
   2   3  -4  411.26   10.80
  -2   3   4  412.66   11.20
  -1  -3   4   19.60    2.60
  -1  -3   4   18.10    2.20
   1  -3  -4   12.90    2.30
  -1   3   4   17.60    2.30
   1   3  -4   12.50    2.70
   0  -3  -4  811.52   19.30
   0  -3   4  769.32   19.40
   0  -3   4  815.22   18.50
   0   3  -4  785.32   19.40
   0   3   4  797.62   19.00
   1  -3   4  115.49    4.60
   1  -3   4  112.39    5.30
  -1  -3  -4  116.49    4.50
  -1  -3  -4  122.39    5.60
   1   3   4  119.29    5.00
  -1   3  -4  115.99    5.70
  -1   3  -4  111.49    4.50
  -2  -3  -4   17.60    2.20
   2  -3   4   18.30    3.00
  -2  -3  -4   12.80    2.40
   2  -3   4   14.40    2.70
   2   3   4   15.00    2.20
   2   3   4   16.00    1.70
  -2   3  -4   19.10    3.30
  -2   3  -4   17.10    2.10
   3  -3   4  309.47    9.80
  -3  -3  -4  323.87    9.90
  -3  -3  -4  310.27    9.60
   3   3   4  311.57    8.60
  -3   3  -4  303.87    9.10
   3   3   4  313.47    7.60
  -3   3  -4  317.87   10.70
  -4  -3  -4 1310.47   32.60
   4  -3   4 1392.86   31.80
  -4  -3  -4 1388.66   32.30
   4  -3   4 1408.86   32.40
  -4   3  -4 1375.06   31.20
   4   3   4 1360.96   30.10
  -4   3  -4 1414.16   32.60
   4   3   4 1375.86   29.60
   5  -3   4 1323.87   30.70
  -5  -3  -4 1337.47   32.00
   5  -3   4 1354.06   32.10
   5  -3   4 1369.76   31.30
  -5  -3  -4 1309.37   30.80
  -5   3  -4 1366.86   32.10
   5   3   4 1317.67   29.10
  -5   3  -4 1328.27   30.70
   6  -3   4  720.23   20.20
   6  -3   4  736.93   17.50
   6  -3   4  720.13   19.10
  -6  -3  -4  714.73   16.20
   6  -3   4  736.43   17.70
  -6  -3  -4  622.94   19.90
  -6  -3  -4  713.13   20.10
   6   3   4  734.33   16.80
  -6   3  -4  737.03   18.30
  -6   3  -4  711.13   20.00
  -7  -3  -4  295.57   10.90
   7  -3   4  291.37    7.90
  -7  -3  -4  288.67    7.80
  -7  -3  -4  299.07   13.10
   7  -3   4  284.57   12.20
   7  -3   4  287.67    8.20
   7  -3   4  284.37   11.70
  -7   3  -4  281.97   12.40
  -7   3  -4  300.47   10.00
  -8  -3  -4   10.30    5.00
   8  -3   4    4.30    5.60
   8  -3   4    5.10    5.10
  -8  -3  -4    7.70    2.50
  -8   3  -4    8.40    6.00
  -8   3  -4    7.30    3.50
  -9  -3  -4  107.99   10.30
  -9  -3  -4  104.19    5.40
   9  -3   4   95.09   10.50
  -9   3  -4   99.59    9.50
  -9   3  -4   97.19    9.20
 -10  -4   4  670.53   16.80
 -10  -4   4  701.13   20.50
  10  -4  -4  707.03   22.10
 -10   4   4  714.43   22.10
 -10   4   4  702.13   19.80
   9  -4  -4    0.80    4.90
  -9  -4   4   -1.30    6.00
  -9  -4   4    9.20    2.70
  -9   4   4    4.80    6.20
  -9   4   4   -1.30    4.30
  -8  -4   4   -3.50    5.60
  -8  -4   4    5.80    2.30
   8  -4  -4   -4.10    4.10
  -8   4   4    7.40    4.00
  -7  -4   4  891.41   21.40
   7  -4  -4  920.01   23.00
  -7  -4   4  930.21   23.80
  -7   4   4  930.31   24.20
  -7   4   4  908.21   22.80
  -6  -4   4   33.10    3.50
   6  -4  -4   30.70    3.40
  -6  -4   4   29.40    7.80
   6  -4  -4   29.10    3.60
   6  -4  -4   24.10    2.90
  -6   4   4   29.20    4.30
  -6   4   4   29.20    3.70
  -5  -4   4    8.40    3.00
   5  -4  -4    2.40    2.30
   5  -4  -4    6.80    2.70
   5  -4  -4    9.10    2.70
  -5  -4   4    1.20    2.00
  -5   4   4    7.30    2.90
  -5   4   4    8.10    2.70
  -4  -4   4  693.83   17.60
   4  -4  -4  718.13   18.00
   4  -4  -4  722.33   17.90
  -4   4   4  694.93   17.90
  -4   4   4  760.22   18.50
  -3  -4   4 2195.08   48.00
   3  -4  -4 2202.08   48.00
  -3   4   4 2164.88   48.10
   3   4  -4 2152.38   46.80
  -2  -4   4  500.65   13.40
   2  -4  -4  499.85   13.40
  -2  -4   4  497.65   12.50
   2   4  -4  493.45   12.80
  -2   4   4  483.65   13.20
  -1  -4   4   35.50    4.10
   1  -4  -4   30.70    3.50
  -1  -4   4   36.30    3.10
   1   4  -4   33.80    3.50
  -1   4   4   32.70    3.30
   0  -4   4 5578.14  115.59
   0  -4  -4 5567.54  116.49
   0  -4   4 5354.76  116.79
   0   4   4 5405.96  116.19
   0   4  -4 5551.34  116.69
   1  -4   4  622.54   16.70
   1  -4   4  630.44   15.60
  -1  -4  -4  650.23   16.40
  -1   4  -4  624.34   16.80
   1   4   4  645.54   15.80
  -1   4  -4  623.84   15.50
  -2  -4  -4 1764.82   38.40
   2  -4   4 1606.84   39.40
   2  -4   4 1750.82   39.50
   2   4   4 1755.22   38.20
  -2   4  -4 1742.13   38.20
  -2   4  -4 1782.22   39.70
   2   4   4 1690.33   36.50
   3  -4   4 1237.98   29.90
  -3  -4  -4 1262.87   28.90
  -3  -4  -4 1211.28   28.90
   3  -4   4 1232.08   29.40
  -3   4  -4 1256.57   29.70
   3   4   4 1212.98   26.20
   3   4   4 1222.78   27.70
  -3   4  -4 1238.48   28.30
   4  -4   4 1375.26   32.50
  -4  -4  -4 1372.36   32.60
   4  -4   4 1422.06   32.20
  -4  -4  -4 1394.86   32.00
   4   4   4 1364.36   30.40
  -4   4  -4 1370.46   31.70
   4   4   4 1384.06   29.40
  -4   4  -4 1427.76   33.50
   5  -4   4   18.90    4.10
  -5  -4  -4   26.70    4.50
   5  -4   4   18.60    4.30
  -5  -4  -4   28.40    5.00
   5  -4   4   26.40    4.00
  -5   4  -4   24.10    3.30
  -5   4  -4   22.90    5.10
   6  -4   4   26.20    5.30
  -6  -4  -4   30.10    4.20
   6  -4   4   34.70    4.20
   6  -4   4   36.70    4.20
  -6  -4  -4   34.00    5.20
   6  -4   4   32.00    4.70
  -6   4  -4   36.90    5.70
  -6   4  -4   33.10    3.90
   7  -4   4   13.20    3.10
  -7  -4  -4   15.20    4.80
   7  -4   4    3.60    4.40
  -7  -4  -4   12.50    4.70
   7  -4   4   14.10    3.50
   7  -4   4    5.90    5.40
  -7   4  -4   10.40    3.50
  -7   4  -4   12.00    5.70
   8  -4   4  216.08   11.80
  -8  -4  -4  211.78   11.00
  -8   4  -4  205.08   13.40
  -8   4  -4  220.78    9.90
  -9  -4  -4   56.79    7.40
   9  -4   4   54.89    8.10
  -9   4  -4   53.79    6.90
  10  -5  -4   49.99    8.10
 -10  -5   4   45.80    6.50
 -10  -5   4   46.40    4.40
 -10   5   4   43.20    8.70
 -10   5   4   60.49    7.60
  -9  -5   4  248.98    8.90
   9  -5  -4  244.88   12.00
  -9  -5   4  253.37   13.40
  -9   5   4  233.38   13.40
  -9   5   4  244.28   11.50
  -8  -5   4  218.38    8.10
  -8  -5   4  240.08   12.90
   8  -5  -4  227.98   10.70
  -8   5   4  255.37   12.10
  -8   5   4  224.58   10.00
   7  -5  -4  686.93   16.70
  -7  -5   4  681.13   19.90
   7  -5  -4  697.53   16.90
  -7  -5   4  707.53   17.60
   7  -5  -4  704.13   19.00
  -7   5   4  717.53   19.00
  -7   5   4  649.04   19.70
  -6  -5   4  125.79    8.30
   6  -5  -4  124.99    6.90
   6  -5  -4  127.09    7.40
   6  -5  -4  129.69    6.40
  -6  -5   4  127.29    6.00
  -6   5   4  120.59    7.20
  -6   5   4  129.49    7.30
   5  -5  -4   92.09    6.10
   5  -5  -4   87.69    5.60
  -5  -5   4   84.39    5.00
  -5   5   4   84.39    6.00
  -5   5   4   78.39    5.70
  -4  -5   4  204.88    7.70
   4  -5  -4  192.98    9.10
   4  -5  -4  178.18    7.90
  -4   5   4  194.78    7.80
  -4   5   4  187.38    8.00
   3  -5  -4  991.10   24.50
  -3  -5   4 1020.80   23.10
   3  -5  -4 1002.10   24.40
  -3  -5   4 1000.40   24.10
  -3   5   4 1005.70   24.30
  -3   5   4  972.70   23.70
   3   5  -4 1006.10   22.90
  -2  -5   4   57.79    4.80
   2  -5  -4   48.20    5.40
  -2  -5   4   56.59    4.10
  -2   5   4   46.00    4.50
  -2   5   4   49.90    4.10
   2   5  -4   58.09    5.10
   1  -5  -4 1748.53   39.10
  -1  -5   4 1702.83   39.30
  -1  -5   4 1757.02   38.00
  -1   5   4 1704.23   38.80
   1   5  -4 1740.53   38.80
  -1   5   4 1684.13   37.90
   0  -5   4 1606.64   37.40
   0  -5  -4 1664.53   37.10
   0   5  -4 1643.54   37.50
   0   5   4 1570.44   36.40
   0   5  -4 1586.54   35.80
   1  -5   4  208.68    8.50
   1  -5   4  216.28    7.20
  -1   5  -4  201.78    6.90
   1   5   4  206.08    7.40
  -1   5  -4  222.58    9.10
   2  -5   4  441.76   13.60
   2  -5   4  444.36   12.60
   2   5   4  452.85   10.10
   2   5   4  475.45   12.20
  -2   5  -4  456.35   14.10
  -2   5  -4  429.16   12.00
  -3  -5  -4  261.97    9.00
  -3  -5  -4  285.07   11.30
   3  -5   4  264.77   10.10
   3  -5   4  269.67    9.60
   3   5   4  278.47    8.20
  -3   5  -4  278.27   10.40
  -3   5  -4  266.97    8.60
   4  -5   4   69.29    6.20
  -4  -5  -4   56.79    5.80
  -4  -5  -4   57.39    5.70
   4  -5   4   56.89    5.60
  -4   5  -4   64.89    7.70
  -4   5  -4   53.59    5.10
  -5  -5  -4  715.03   18.60
   5  -5   4  711.23   19.10
   5  -5   4  692.93   19.00
  -5  -5  -4  707.03   20.20
  -5   5  -4  686.93   18.20
  -5   5  -4  715.23   20.60
   6  -5   4  305.17   11.20
   6  -5   4  307.57   12.70
   6  -5   4  308.97   11.80
   6  -5   4  322.37   10.70
  -6  -5  -4  309.77   11.50
  -6  -5  -4  324.37   13.70
  -6   5  -4  311.17   11.10
  -6   5  -4  315.47   13.70
   7  -5   4   76.89    8.00
  -7  -5  -4   84.09    7.90
   7  -5   4   84.09    6.50
   7  -5   4   69.39    7.10
   7  -5   4   83.19    6.70
  -7  -5  -4   92.49    8.60
  -7   5  -4   72.19    7.10
   8  -5   4   -3.00    6.80
   8  -5   4    7.20    2.70
   8  -5   4    1.20    3.20
  -8  -5  -4   13.50    5.40
  -8   5  -4    2.30    5.20
   9  -5   4   -1.90    6.80
  -9  -5  -4    7.00    6.00
  -9   5  -4   -2.50    6.20
  -9  -6   4   64.49    6.50
  -9   6   4   66.69    8.60
  -9   6   4   56.69    6.90
   8  -6  -4   58.59    3.80
   8  -6  -4   56.09    4.50
   8  -6  -4   67.99    7.50
  -8  -6   4   49.99    7.50
  -8  -6   4   49.60    5.80
  -8   6   4   60.49    6.70
  -8   6   4   68.69    8.00
   7  -6  -4   55.19    5.80
  -7  -6   4   72.69    8.30
   7  -6  -4   69.09    6.30
   7  -6  -4   62.19    7.10
  -7  -6   4   56.79    6.40
  -7   6   4   57.59    5.70
  -6  -6   4    6.60    3.30
   6  -6  -4    7.10    4.00
  -6  -6   4    5.30    5.00
  -6  -6   4    4.80    3.30
  -6   6   4    7.70    3.90
  -6   6   4    6.80    3.70
  -5  -6   4   35.00    3.80
   5  -6  -4   49.30    5.90
  -5   6   4   30.60    4.10
  -5   6   4   35.40    4.50
   4  -6  -4    0.00    3.60
  -4  -6   4   -1.60    2.70
   4  -6  -4    5.50    2.90
  -4  -6   4    0.50    2.70
  -4   6   4   -0.80    3.00
  -4   6   4    1.70    2.70
  -3  -6   4  810.42   20.90
  -3  -6   4  786.22   19.70
   3  -6  -4  818.52   21.50
   3  -6  -4  835.32   21.20
  -3   6   4  843.82   21.00
  -3   6   4  822.92   20.50
  -2  -6   4    5.60    2.70
   2  -6  -4    5.40    3.50
  -2  -6   4    5.60    2.70
   2   6  -4   -0.60    3.20
  -2   6   4    5.20    2.50
  -2   6   4    7.30    2.60
   1  -6  -4   49.90    6.00
  -1  -6   4   51.19    4.10
  -1  -6   4   47.20    5.60
  -1   6   4   40.60    4.10
  -1   6   4   49.99    4.30
   1   6  -4   47.10    5.60
   0  -6   4   15.30    4.80
   0  -6  -4   18.60    3.30
   0  -6   4   16.60    3.80
   0   6   4   12.60    2.20
   0   6  -4   17.90    3.00
   0   6  -4   20.00    7.10
   0   6   4   12.40    3.00
   1  -6   4  896.31   23.50
   1  -6   4  926.21   22.10
  -1  -6  -4  938.51   22.90
   1   6   4  892.81   20.20
  -1   6  -4  897.01   21.80
  -1   6  -4  941.41   23.60
   1   6   4  897.51   22.10
   2  -6   4   64.79    6.40
   2  -6   4   53.89    5.10
  -2  -6  -4   57.69    5.20
  -2   6  -4   60.99    6.40
   2   6   4   58.79    4.60
  -2   6  -4   61.79    4.40
   2   6   4   59.69    2.30
  -3  -6  -4    0.70    2.90
   3  -6   4    2.60    3.10
   3  -6   4    3.10    3.70
  -3   6  -4    3.40    3.80
  -3   6  -4    1.70    3.00
   3   6   4    2.20    2.30
   4  -6   4    9.60    3.70
   4  -6   4    4.50    4.20
  -4  -6  -4    6.50    3.90
  -4  -6  -4    2.60    3.70
  -4   6  -4    9.30    5.30
  -4   6  -4    7.60    2.80
  -5  -6  -4  471.55   16.30
   5  -6   4  483.95   15.60
  -5  -6  -4  476.85   14.50
   5  -6   4  468.15   15.60
  -5   6  -4  491.25   17.00
  -5   6  -4  477.65   14.30
   6  -6   4   -5.50    4.50
   6  -6   4    7.60    4.20
   6  -6   4    4.50    5.00
  -6  -6  -4    3.60    4.40
   6  -6   4   -1.50    3.60
  -6  -6  -4   -1.90    4.90
  -6   6  -4   -7.80    5.70
  -6   6  -4    2.90    3.00
   7  -6   4  120.99    9.90
  -7  -6  -4  144.09   10.40
   7  -6   4  126.49    8.50
  -7   6  -4  138.49    8.30
   8  -6   4   47.40    7.80
  -8  -6  -4   67.79    7.30
   8  -6   4   60.79    6.90
   8  -6   4   59.89    6.60
  -8   6  -4   45.60    6.20
  -9  -7   4  190.18    9.50
   9  -7  -4  171.68   13.10
  -9  -7   4  155.28   14.10
  -9   7   4  164.78   12.30
   8  -7  -4  402.46   15.10
   8  -7  -4  391.46   12.00
  -8  -7   4  365.76   12.90
  -8  -7   4  386.96   13.30
   8  -7  -4  380.66   11.90
  -8   7   4  379.86   16.00
   7  -7  -4  768.82   22.20
  -7  -7   4  785.52   21.10
  -7  -7   4  835.72   20.60
   7  -7  -4  860.31   24.00
   7  -7  -4  799.22   21.40
  -7  -7   4  784.82   23.40
  -7   7   4  787.02   22.90
  -7   7   4  798.92   22.50
   6  -7  -4   71.99    6.30
  -6  -7   4   73.79    6.20
  -6  -7   4   78.49    6.50
   6  -7  -4   76.69    8.10
  -6   7   4   67.09    7.60
  -6   7   4   81.19    7.90
  -5  -7   4   14.50    3.90
   5  -7  -4    2.30    4.40
  -5  -7   4    8.30    3.60
   5  -7  -4    8.90    4.80
  -5   7   4    7.00    4.10
  -5   7   4    6.60    3.40
   4  -7  -4  153.18    9.00
   4  -7  -4  141.89    8.70
  -4  -7   4  137.89    7.80
  -4  -7   4  157.48    8.10
  -4   7   4  142.39    7.20
  -4   7   4  150.78    8.20
  -3  -7   4 1014.40   25.70
   3  -7  -4 1008.90   25.60
   3  -7  -4  992.70   25.70
  -3   7   4 1010.40   24.50
  -3   7   4 1022.20   25.30
  -2  -7   4  196.78    7.80
  -2  -7   4  192.78    8.60
   2  -7  -4  195.08    9.40
   2  -7  -4  220.48    9.70
   2   7  -4  198.88    9.10
  -2   7   4  214.68    7.40
  -2   7   4  205.08    8.80
  -1  -7   4 1173.38   27.20
  -1  -7   4 1166.08   29.40
   1  -7  -4 1193.18   28.80
  -1   7   4 1188.58   28.50
  -1   7   4 1150.98   26.90
   0  -7   4  135.29    7.70
   0  -7   4  143.59    6.60
   0  -7  -4  142.29    8.30
   0   7   4  137.69    5.30
   0   7  -4  117.39    8.80
   0   7   4  147.79    7.40
   0   7  -4  142.49    6.10
   1  -7   4    3.70    4.10
   1  -7   4    5.20    3.10
  -1  -7  -4    9.80    3.30
  -1   7  -4    3.90    3.00
   1   7   4    6.00    3.10
   1   7   4    8.30    1.50
  -1   7  -4    5.00    4.50
   2  -7   4   23.30    4.80
   2  -7   4   16.80    4.40
  -2  -7  -4   14.70    4.20
   2   7   4   15.10    1.50
  -2   7  -4   21.90    5.40
   2   7   4   20.60    3.40
  -2   7  -4   18.20    3.10
   3  -7   4  523.15   16.40
  -3  -7  -4  552.94   16.20
   3  -7   4  547.25   15.70
  -3   7  -4  540.15   17.90
  -3   7  -4  550.84   15.00
   4  -7   4   22.10    4.60
  -4  -7  -4   25.30    4.70
  -4  -7  -4   20.70    5.70
   4  -7   4   20.30    5.10
  -4   7  -4   25.20    3.90
  -4   7  -4   22.40    6.00
  -5  -7  -4  736.83   21.70
  -5  -7  -4  741.83   20.70
   5  -7   4  734.63   20.70
   5  -7   4  762.32   20.80
   5  -7   4  745.13   21.30
  -5   7  -4  753.72   20.10
  -5   7  -4  712.03   22.20
  -6  -7  -4   -0.30    4.90
   6  -7   4   -7.00    4.50
   6  -7   4   -0.70    5.10
  -6   7  -4   -4.30    3.60
   7  -7   4   15.60    7.00
   7  -7   4   -6.80    5.60
  -7  -7  -4    7.60    6.20
   7  -7   4    1.00    4.90
  -7   7  -4    2.50    4.40
   8  -7   4   -2.30    8.20
  -8  -7  -4    0.80    6.90
   8  -7   4    6.60    5.60
  -8   7  -4   -0.70    5.30
   8  -8  -4  198.88   13.20
  -8  -8   4  206.88   11.10
  -8  -8   4  208.98    9.90
   8  -8  -4  226.58   10.50
  -8   8   4  203.78   12.40
  -7  -8   4  237.18   11.40
   7  -8  -4  256.57   12.00
  -7  -8   4  239.18   10.30
   7  -8  -4  218.38   12.10
  -7   8   4  222.18   11.50
  -7   8   4  227.38   12.70
  -6  -8   4  334.37   13.00
   6  -8  -4  313.17   14.10
  -6  -8   4  317.07   11.30
   6  -8  -4  311.77   12.90
  -6   8   4  320.97   12.70
  -6   8   4  314.17   14.20
  -5  -8   4   25.90    4.90
   5  -8  -4   25.60    5.90
   5  -8  -4   35.40    6.10
  -5  -8   4   35.20    4.20
  -5   8   4   26.10    4.70
  -5   8   4   29.60    5.50
  -4  -8   4  530.55   14.40
  -4  -8   4  515.35   16.50
   4  -8  -4  544.15   17.20
   4  -8  -4  531.65   17.00
  -4   8   4  544.35   16.60
  -4   8   4  512.45   15.70
   3  -8  -4  206.98   10.50
  -3  -8   4  200.98   10.10
   3  -8  -4  202.18   10.70
  -3  -8   4  204.98    8.10
  -3   8   4  197.78    9.50
  -3   8   4  189.18    8.60
   2  -8  -4    2.60    4.40
   2  -8  -4    3.30    3.90
  -2  -8   4   -0.30    4.00
  -2  -8   4    6.40    3.50
  -2   8   4    2.30    3.10
  -2   8   4    0.30    3.00
  -1  -8   4  161.28    7.90
  -1  -8   4  153.48    8.40
   1  -8  -4  154.18    8.50
   1  -8  -4  145.49    9.20
  -1   8   4  153.68    6.30
  -1   8   4  144.89    7.50
   1   8  -4  147.79    9.20
   0  -8  -4 5348.06  116.79
   0  -8   4 5494.95  117.99
   0  -8   4 5447.26  115.49
   0   8   4 5309.97  114.19
   0   8   4 5492.85  116.49
   0   8  -4 5501.35  117.19
   0   8  -4 5396.56  115.49
   1  -8   4   77.39    7.10
  -1  -8  -4  108.59    8.40
   1  -8   4   83.29    6.60
  -1   8  -4   95.19    5.70
   1   8   4   93.39    3.60
  -1   8  -4   90.29    8.20
   2  -8   4  537.75   15.80
  -2  -8  -4  556.74   16.90
   2  -8   4  552.84   17.60
  -2   8  -4  552.44   18.40
  -2   8  -4  532.45   15.10
   3  -8   4   66.79    6.80
   3  -8   4   66.49    6.50
  -3  -8  -4   72.79    8.20
  -3   8  -4   72.39    5.80
  -3   8  -4   61.79    7.40
   4  -8   4   14.50    5.60
   4  -8   4    7.70    5.50
  -4  -8  -4   15.80    5.00
  -4  -8  -4   12.50    5.30
  -4   8  -4    0.90    4.40
  -4   8  -4    5.30    3.50
  -5  -8  -4    8.00    4.70
   5  -8   4   17.80    5.90
   5  -8   4   13.70    6.10
  -5  -8  -4   14.60    5.10
  -5   8  -4   14.90    4.40
   6  -8   4   39.70    6.80
   6  -8   4   51.69    6.60
  -6  -8  -4   51.99    6.30
  -6   8  -4   30.10    6.20
   7  -8   4   80.79    9.30
   7  -8   4   85.29    9.90
   7  -8   4   83.79    9.00
  -7   8  -4   79.19    8.00
  -7  -9   4  300.07   14.20
  -7  -9   4  315.57   11.10
   7  -9  -4  292.67   14.30
   7  -9  -4  301.77   13.70
  -7   9   4  300.57   15.10
  -6  -9   4    9.20    4.30
   6  -9  -4    9.10    5.80
   6  -9  -4    4.70    6.10
  -6  -9   4    9.00    5.30
  -6   9   4   -3.40    6.20
  -5  -9   4    3.70    5.60
   5  -9  -4    4.90    5.70
  -5  -9   4   -2.70    3.90
   5  -9  -4   -7.10    5.80
  -4  -9   4   59.19    6.80
  -4  -9   4   61.49    5.70
   4  -9  -4   86.29    9.00
   4  -9  -4   80.09    9.20
  -4   9   4   75.39    7.60
   3  -9  -4  306.87   11.90
   3  -9  -4  294.87   13.50
  -3  -9   4  315.07   10.70
  -3  -9   4  281.77   12.90
  -3   9   4  300.37   12.60
  -3   9   4  306.17   11.00
   2  -9  -4  459.55   15.80
  -2  -9   4  482.25   14.10
  -2  -9   4  490.45   16.40
   2  -9  -4  451.15   15.70
  -2   9   4  475.65   15.10
  -2   9   4  463.45   13.50
   1  -9  -4   45.10    5.10
  -1  -9   4   60.09    6.60
   1  -9  -4   44.60    5.80
  -1  -9   4   68.59    7.20
   1   9  -4   59.79    6.80
  -1   9   4   43.70    4.80
   0  -9   4   88.19    9.50
   0  -9  -4   69.59    7.20
   0  -9   4   71.79    7.80
   0   9   4   67.39    4.70
   0   9  -4   76.89    5.90
   0   9  -4   83.29    7.90
   1  -9   4  181.48   10.90
  -1  -9  -4  168.78   10.10
   1  -9   4  149.09    8.40
   1   9   4  175.88    5.40
  -1   9  -4  173.38    7.70
  -1   9  -4  193.18   11.20
   2  -9   4   -0.30    5.00
   2  -9   4    3.00    5.20
  -2  -9  -4   -2.10    4.80
  -2   9  -4   -9.00    5.60
  -2   9  -4   -2.40    3.80
  -3  -9  -4  424.86   15.30
   3  -9   4  429.06   15.20
   3  -9   4  473.35   16.70
  -3   9  -4  432.76   14.20
  -4  -9  -4  274.87   11.90
   4  -9   4  248.88   12.30
  -4   9  -4  301.67   11.90
   5  -9   4  101.99    9.60
   5  -9   4  109.39   11.80
  -5   9  -4  100.09    9.30
   6  -9   4    8.00    7.20
   6  -9   4   12.80    7.60
  -6   9  -4    0.70    5.10
  -6 -10   4  123.89   12.40
   6 -10  -4  127.19   12.80
  -6 -10   4   93.69    8.30
  -6  10   4  116.19   11.90
  -5 -10   4   35.80    5.30
   5 -10  -4   55.09    8.80
  -5 -10   4   39.70    7.10
  -5  10   4   32.00    6.80
  -4 -10   4  127.89    8.50
   4 -10  -4  115.19   12.20
  -4 -10   4  136.59   11.00
  -4  10   4  111.89    8.90
  -3 -10   4  103.69    9.00
  -3 -10   4  111.49    8.50
   3 -10  -4  129.29   11.70
  -3  10   4  110.89    8.00
  -2 -10   4   32.60    6.50
  -2 -10   4   17.80    5.20
   2 -10  -4   21.40    7.00
  -2  10   4   23.90    4.30
  -1 -10   4   93.79    8.60
  -1 -10   4   92.89    8.70
  -1  10   4   95.29    6.30
   0 -10   4    7.40    4.40
   0  10   4   15.60    3.30
   0  10  -4    7.70    3.80
   0  10  -4   22.10    6.70
   1 -10   4  539.95   16.40
   1 -10   4  513.85   19.90
  -1  10  -4  581.74   16.40
   1  10   4  559.14   12.90
  -1  10  -4  530.15   19.40
   2 -10   4   58.29    6.40
   2 -10   4   68.39    8.40
   3 -10   4   29.70    7.50
  -3  10  -4   19.60    4.60
   4 -10   4    3.00    7.50
  -4  10  -4    1.30    4.60
   5 -10   4  162.38   14.40
  -5  10  -4  140.09   10.10
  -5 -11   4    3.30    7.90
   5 -11  -4    4.40    9.00
  -5 -11   4    3.90    5.90
  -5  11   4   -4.60    6.60
  -4 -11   4   24.30    8.00
  -4 -11   4   19.70    5.40
   4 -11  -4   27.60    9.00
  -4  11   4   30.00    5.50
   3 -11  -4  106.59   12.60
  -3 -11   4  109.59    9.50
  -3 -11   4   87.19    9.60
  -3  11   4   91.79    8.20
  -2 -11   4   16.80    5.90
   2 -11  -4   12.30    7.90
  -2 -11   4   13.00    7.40
  -2  11   4    8.10    4.20
  -1 -11   4  301.07   15.60
   1 -11  -4  297.97   15.80
  -1 -11   4  248.38   12.30
  -1  11   4  257.37    9.90
   0 -11  -4   53.19    7.60
   0 -11   4   63.79    9.40
   0 -11   4   56.59    7.00
   0  11   4   63.09    5.10
   1 -11   4   14.90    7.90
  -1 -11  -4    3.30    7.30
   1  11   4    3.90    2.00
  -1  11  -4   -1.70    4.30
  -2 -11  -4   71.29    9.10
   2 -11   4   68.99    9.80
  -2  11  -4   60.69    7.00
   3 -11   4   -3.00    8.30
  -3 -11  -4    2.60    6.40
  -3  11  -4   14.30    5.20
   4 -11   4   -0.10    9.20
  -4  11  -4   -3.20    5.50
  -3 -12   4   15.70    7.00
  -3 -12   4   -3.30    8.90
   3 -12  -4   22.00    8.30
  -3  12   4   14.20    5.90
   2 -12  -4   33.90    8.60
  -2 -12   4   41.10    8.10
  -2 -12   4   51.69    9.90
  -2  12   4   49.70    5.80
  -1 -12   4   21.60    7.50
   1 -12  -4   15.90    9.10
  -1 -12   4   18.30    7.80
  -1  12   4   17.20    4.30
   0 -12   4  165.78   14.00
   0 -12  -4  171.88   13.50
   0  12   4  162.38    7.10
   1 -12   4   20.20    9.60
  -1 -12  -4   26.30    7.90
  -1  12  -4   28.40    5.80
  -2 -12  -4   59.59   10.80
   2 -12   4   88.69   11.80
  -2  12  -4   66.39    8.00
 -10   0   5    4.90    7.00
 -10   0   5    5.80    3.80
  -9   0   5    8.20    3.40
  -9   0   5   10.20    5.00
  -8   0   5    2.80    2.70
  -7   0   5  780.12   19.00
  -6   0   5    0.70    2.00
  -5   0   5 3915.01   83.69
  -4   0   5    0.00    1.90
   4   0  -5    0.80    1.90
  -3   0   5    6.50    2.40
   3   0  -5    9.50    2.50
  -2   0   5   -1.60    1.90
   2   0  -5   -0.10    2.30
  -1   0   5   50.49    3.90
   1   0  -5   50.99    4.50
   0   0  -5   26.80    3.30
  -1   0  -5   23.20    3.00
   1   0   5   20.90    2.10
   1   0   5   20.60    2.80
   1   0   5   21.90    1.90
  -2   0  -5   -2.00    2.30
   2   0   5   -2.00    1.90
   2   0   5   -1.10    1.50
   2   0   5   -0.70    1.90
   3   0   5 2795.92   59.79
   3   0   5 2752.42   60.49
  -3   0  -5 2840.32   61.29
   3   0   5 2743.83   60.39
  -3   0  -5 2804.92   59.59
   4   0   5   -1.10    2.00
  -4   0  -5    0.90    3.20
  -4   0  -5   -0.90    1.90
   4   0   5   -0.80    2.20
   4   0   5    2.70    2.50
  -5   0  -5 2565.94   56.49
   5   0   5 2520.45   54.49
  -5   0  -5 2459.65   54.59
   5   0   5 2577.24   56.69
  -6   0  -5    2.40    2.50
   6   0   5   -5.70    3.80
  -6   0  -5    5.60    4.20
   6   0   5    0.40    1.60
   6   0   5    0.50    4.20
   7   0   5 1265.47   30.20
   7   0   5 1272.37   31.80
  -7   0  -5 1250.07   29.10
  -7   0  -5 1254.47   31.30
  -8   0  -5   -2.50    3.20
  -8   0  -5    4.60    6.50
   8   0   5    2.90    5.30
   8   0   5   -4.40    4.60
  -9   0  -5  223.98   10.00
   9   0   5  222.08   12.50
   9   0   5  213.78   14.10
  -9   0  -5  224.68   14.20
 -10  -1   5  719.63   22.90
 -10  -1   5  728.53   18.60
 -10   1   5  745.13   23.40
 -10   1   5  752.02   19.40
  -9  -1   5  318.67   10.00
  -9   1   5  323.57   13.20
  -9   1   5  315.17   10.50
  -8  -1   5    0.30    2.70
  -8   1   5   -0.10    2.90
  -8   1   5    1.20    3.90
  -7  -1   5  251.07    8.20
  -7   1   5  247.78    8.70
  -6  -1   5  198.48    7.10
  -6  -1   5  206.08    7.40
  -6   1   5  205.18    7.60
   5  -1  -5  524.45   12.40
   5  -1  -5  505.15   12.40
  -5  -1   5  528.45   13.70
  -5  -1   5  539.45   13.00
  -5   1   5  526.15   13.80
  -4  -1   5  918.61   20.20
   4  -1  -5  916.71   21.10
  -4  -1   5  902.11   21.50
   4   1  -5  895.51   20.40
  -4   1   5  899.71   21.60
  -3  -1   5 5046.90  108.09
   3  -1  -5 5220.78  107.89
  -3   1   5 5036.00  107.99
   3   1  -5 5070.49  107.49
   2  -1  -5  481.35   12.90
  -2  -1   5  483.55   12.90
   2   1  -5  476.95   12.70
  -2   1   5  473.35   12.80
  -1  -1   5   22.20    2.60
   1  -1  -5   29.00    3.00
  -1   1   5   24.10    2.80
   1   1  -5   28.10    3.20
   0  -1   5    4.20    1.90
   0  -1   5    2.60    0.90
   0  -1   5    2.50    1.80
   0  -1  -5    4.80    2.60
   0   1  -5    4.10    2.20
   0   1   5   -0.20    2.10
   1  -1   5  244.68    7.20
   1  -1   5  242.78    7.00
  -1  -1  -5  253.37    7.00
  -1  -1  -5  263.67    8.80
   1  -1   5  243.28    8.10
  -1   1  -5  240.38    8.40
   1   1   5  256.67    7.10
   1   1   5  247.68    7.80
   2  -1   5  787.62   18.50
  -2  -1  -5  706.53   20.60
   2  -1   5  771.02   19.10
   2  -1   5  808.22   18.40
  -2  -1  -5  794.22   18.50
   2   1   5  813.42   18.00
   2   1   5  791.42   19.00
   2   1   5  764.12   18.20
  -3  -1  -5 3098.29   66.19
   3  -1   5 3065.39   66.39
   3  -1   5 2994.40   66.29
  -3  -1  -5 3180.68   66.89
   3  -1   5 3129.59   65.69
  -3   1  -5 3037.00   65.49
   3   1   5 2967.20   65.99
   3   1   5 3017.10   65.09
   3   1   5 2918.61   65.79
  -3   1  -5 3210.48   67.59
  -4  -1  -5  144.69    5.20
  -4  -1  -5  147.49    7.30
   4  -1   5  147.29    6.00
  -4  -1  -5  139.09    8.50
   4  -1   5  134.79    6.70
   4   1   5  138.29    6.10
   4   1   5  153.28    6.00
  -4   1  -5  148.59    7.80
  -4   1  -5  138.59    5.60
   4   1   5  131.99    5.40
  -5  -1  -5    0.70    3.20
   5  -1   5    2.40    3.20
  -5  -1  -5   -4.50    3.40
   5  -1   5    1.40    2.50
   5  -1   5   -6.70    3.40
  -5  -1  -5   -2.20    1.90
   5   1   5    2.20    1.90
   5   1   5    1.40    2.60
  -5   1  -5   -0.80    2.40
   5   1   5    2.80    3.50
  -5   1  -5    0.90    3.80
   6  -1   5  941.91   24.30
  -6  -1  -5  899.31   23.40
   6  -1   5  927.11   20.90
  -6  -1  -5  900.01   21.10
   6  -1   5  900.61   22.80
  -6   1  -5  912.11   23.90
  -6   1  -5  897.91   21.70
   6   1   5  883.61   23.00
   6   1   5  909.01   23.80
   7  -1   5   79.39    8.20
   7  -1   5   79.69    7.30
  -7  -1  -5   77.69    5.00
  -7  -1  -5   84.29    8.20
  -7   1  -5   85.19    9.20
  -7   1  -5   72.49    5.80
   7   1   5   77.59    8.20
   7   1   5   79.79    8.30
  -8  -1  -5   90.79    6.40
  -8  -1  -5   99.59    9.80
   8  -1   5   97.19    9.10
   8  -1   5  108.49    9.90
   8   1   5  106.69    8.50
   8   1   5   89.89    9.90
  -8   1  -5   95.49    6.90
  -8   1  -5   95.59   10.50
  -9  -1  -5  109.79   12.00
   9  -1   5  110.29   11.10
  -9  -1  -5   94.79    6.70
   9  -1   5  108.09   10.90
  -9   1  -5  116.29   12.20
  -9   1  -5  101.99    8.00
 -10  -2   5  275.87    9.40
 -10  -2   5  269.87   14.20
 -10   2   5  303.97   14.10
 -10   2   5  292.07   11.50
  -9  -2   5   17.10    6.30
  -9  -2   5   21.20    3.40
   9  -2  -5   33.40    5.30
  -9   2   5   25.70    4.40
  -9   2   5   12.80    6.20
  -8  -2   5  497.95   13.70
   8  -2  -5  512.75   15.00
  -8  -2   5  516.75   15.80
  -8   2   5  532.75   14.70
  -8   2   5  522.65   16.20
  -7  -2   5  634.64   19.50
   7  -2  -5  667.53   17.10
  -7  -2   5  676.63   16.80
  -7   2   5  689.03   17.60
  -6  -2   5 2246.48   49.00
   6  -2  -5 2228.58   48.50
  -6  -2   5 2223.28   49.00
  -6   2   5 2235.98   49.40
   5  -2  -5  302.17    8.70
  -5  -2   5  318.77    8.80
   5  -2  -5  302.47    8.10
  -5  -2   5  302.97    9.40
   5  -2  -5  304.87    8.80
  -5   2   5  300.57    9.50
   4  -2  -5   64.09    5.00
  -4  -2   5   67.49    4.40
   4  -2  -5   66.29    2.70
  -4  -2   5   68.99    3.60
   4   2  -5   68.99    3.50
  -4   2   5   72.39    4.60
   3  -2  -5  793.22   19.20
  -3  -2   5  804.02   19.30
   3  -2  -5  779.42   16.90
   3   2  -5  762.72   18.50
  -3   2   5  779.52   19.20
  -2  -2   5 2843.72   61.59
   2  -2  -5 2898.91   61.49
   2   2  -5 2818.82   61.19
  -2   2   5 2756.12   61.39
   1  -2  -5    3.70    2.70
  -1  -2   5    2.10    2.20
   1  -2  -5    0.80    0.80
  -1  -2   5    0.00    1.90
   1   2  -5    0.50    2.00
  -1   2   5    3.50    1.90
   0  -2   5 1592.74   34.70
   0  -2  -5 1598.04   35.70
   0  -2   5 1568.14   35.90
   0  -2  -5 1523.95   33.70
   0   2  -5 1598.24   35.80
   0   2   5 1560.74   35.50
   1  -2   5  595.44   14.60
  -1  -2  -5  595.54   15.50
  -1  -2  -5  574.04   14.10
   1  -2   5  591.34   15.70
  -1   2  -5  601.74   16.00
   1   2   5  591.74   13.90
   1   2   5  579.14   15.00
   2  -2   5  175.58    7.30
  -2  -2  -5  175.38    8.70
   2  -2   5  177.08    6.40
  -2  -2  -5  187.08    6.60
   2  -2   5  189.28    6.70
   2   2   5  187.48    5.60
  -2   2  -5  183.88    6.40
  -2   2  -5  174.18    8.10
   2   2   5  180.28    6.60
  -3  -2  -5  370.16   11.10
   3  -2   5  368.56   11.20
  -3  -2  -5  370.76   11.50
   3  -2   5  379.06   11.10
   3  -2   5  365.06   10.50
  -3   2  -5  380.46   10.40
  -3   2  -5  370.96   12.20
   3   2   5  358.46   10.30
   3   2   5  369.46    9.50
  -4  -2  -5  255.07    9.70
   4  -2   5  239.78    8.40
   4  -2   5  239.38    8.40
   4  -2   5  235.28    9.00
  -4  -2  -5  239.78    8.80
   4   2   5  241.28    7.30
   4   2   5  244.48    7.60
  -4   2  -5  235.48    7.70
  -4   2  -5  241.28    9.40
   5  -2   5   17.60    3.90
  -5  -2  -5   19.50    4.30
   5  -2   5   22.60    4.10
  -5  -2  -5   19.20    4.10
   5  -2   5   13.10    2.90
   5   2   5   25.00    3.00
   5   2   5   17.70    2.70
  -5   2  -5   16.00    3.20
  -5   2  -5   21.00    4.80
   6  -2   5 1280.57   31.60
   6  -2   5 1267.97   30.20
  -6  -2  -5 1293.27   28.10
  -6  -2  -5 1288.27   30.80
  -6  -2  -5 1220.38   31.30
   6  -2   5 1206.88   28.60
   6   2   5 1284.57   28.70
  -6   2  -5 1245.58   31.40
  -6   2  -5 1253.87   29.40
  -7  -2  -5   13.30    4.90
   7  -2   5   15.70    2.20
   7  -2   5   15.50    4.50
  -7  -2  -5   13.60    2.70
  -7  -2  -5   14.70    5.60
   7  -2   5   11.00    4.60
   7  -2   5   14.40    2.60
  -7   2  -5   18.20    3.80
   7   2   5   18.50    4.00
  -7   2  -5   13.00    5.60
   8  -2   5  247.78   13.30
  -8  -2  -5  233.18    7.90
   8  -2   5  231.78   12.40
  -8  -2  -5  223.48   11.90
  -8   2  -5  238.48   14.00
  -8   2  -5  262.87    9.60
  -9  -2  -5   74.19    7.40
  -9  -2  -5   71.29    6.20
   9  -2   5   84.59   10.00
  -9   2  -5   81.49    7.60
  10  -3  -5    5.70    5.40
 -10  -3   5   10.20    3.40
 -10  -3   5   10.30    7.30
 -10  -3   5    5.90    6.80
 -10   3   5    3.60    4.50
 -10   3   5    3.90    8.00
  -9  -3   5   25.70    3.60
  -9  -3   5   27.80    6.80
   9  -3  -5   33.40    5.60
  -9   3   5   30.30    4.60
  -9   3   5   25.70    7.10
   8  -3  -5  336.27   11.60
  -8  -3   5  308.57    9.80
  -8  -3   5  331.57   12.70
  -8   3   5  326.07   11.60
  -8   3   5  338.27   14.10
   7  -3  -5  446.86   12.70
  -7  -3   5  417.96   15.30
  -7  -3   5  439.56   12.30
  -7   3   5  462.35   14.90
  -7   3   5  433.76   13.10
  -6  -3   5   50.59    4.70
   6  -3  -5   52.99    3.50
   6  -3  -5   50.59    4.50
  -6  -3   5   46.50    4.60
   6  -3  -5   53.79    4.50
  -6   3   5   45.40    5.10
   5  -3  -5  271.07    8.70
   5  -3  -5  265.57    7.70
  -5  -3   5  270.67    8.50
   5  -3  -5  273.17    8.80
  -5  -3   5  254.77    8.60
  -5   3   5  255.57    8.70
   4  -3  -5  171.18    7.30
  -4  -3   5  168.68    5.70
  -4  -3   5  157.98    6.50
   4  -3  -5  157.28    4.90
   4   3  -5  163.98    5.20
  -4   3   5  167.08    6.90
   3  -3  -5  221.28    8.00
  -3  -3   5  200.98    7.50
  -3   3   5  195.68    7.20
   3   3  -5  198.58    6.70
   2  -3  -5 2718.03   57.69
  -2  -3   5 2526.45   57.59
  -2  -3   5 2639.04   57.59
  -2   3   5 2552.54   57.39
   2   3  -5 2698.53   57.29
  -1  -3   5  510.85   14.30
  -1  -3   5  524.75   13.10
   1  -3  -5  507.25   14.00
  -1   3   5  517.05   13.80
   1   3  -5  536.45   14.20
   0  -3  -5 1089.99   24.50
   0  -3   5 1114.39   25.40
   0  -3   5 1107.79   26.50
   0   3  -5 1125.99   26.60
   0   3   5 1108.39   26.00
  -1  -3  -5  141.29    6.40
  -1  -3  -5  136.39    5.20
   1  -3   5  146.49    6.90
   1   3   5  145.09    5.70
  -1   3  -5  150.08    7.40
   2  -3   5 2130.39   47.80
   2  -3   5 2177.98   46.70
  -2  -3  -5 2094.19   46.60
  -2  -3  -5 2249.68   48.10
   2   3   5 2124.49   46.80
   2   3   5 2040.00   45.30
  -2   3  -5 2104.89   48.40
  -2   3  -5 2108.39   46.60
   3  -3   5  770.62   20.10
   3  -3   5  799.02   20.00
  -3  -3  -5  810.52   20.70
   3  -3   5  816.52   19.80
  -3  -3  -5  792.32   19.90
  -3   3  -5  785.72   19.20
  -3   3  -5  790.62   21.20
   3   3   5  782.22   19.10
   3   3   5  834.02   18.10
   4  -3   5  587.64   16.00
  -4  -3  -5  590.64   16.50
  -4  -3  -5  599.14   16.30
   4  -3   5  588.44   16.00
   4  -3   5  596.04   16.20
   4   3   5  578.84   13.80
  -4   3  -5  575.24   15.10
   4   3   5  588.64   14.60
  -4   3  -5  587.04   17.30
  -5  -3  -5    6.60    3.90
   5  -3   5    3.90    3.20
   5  -3   5    9.30    3.50
   5  -3   5   26.30    4.70
  -5  -3  -5   10.30    4.00
   5   3   5    4.10    2.50
   5   3   5    9.60    1.90
  -5   3  -5   12.90    2.90
  -5   3  -5   11.60    4.90
   6  -3   5  618.24   18.10
  -6  -3  -5  583.14   18.80
   6  -3   5  604.64   17.20
  -6  -3  -5  604.44   17.40
   6  -3   5  606.64   15.90
  -6   3  -5  589.34   18.70
   6   3   5  620.14   14.90
  -6   3  -5  590.74   16.40
   7  -3   5   25.90    3.60
  -7  -3  -5   19.60    6.30
  -7  -3  -5   22.40    5.90
   7  -3   5   16.80    3.10
   7  -3   5   20.30    4.90
  -7   3  -5   18.50    6.40
  -7   3  -5   23.70    4.40
   7   3   5   26.80    3.90
  -8  -3  -5  133.39   10.40
   8  -3   5  138.39   10.60
   8  -3   5  141.49    9.30
  -8   3  -5  149.59   12.70
   9  -3   5   30.10    8.90
  -9  -3  -5   30.60    6.80
  -9   3  -5   31.30    5.40
 -10  -4   5   -2.50    6.90
 -10  -4   5    3.50    3.80
  10  -4  -5   13.20    5.50
 -10   4   5   22.80    5.50
 -10   4   5    0.90    8.30
  -9  -4   5  128.99    7.00
  -9  -4   5  112.29   11.90
   9  -4  -5  134.39    9.70
  -9   4   5  140.59   11.90
  -9   4   5  121.89    8.60
   8  -4  -5    7.50    4.60
  -8  -4   5   13.10    5.80
  -8  -4   5    9.90    3.40
  -8   4   5    7.50    4.70
  -8   4   5   11.00    3.80
   7  -4  -5  481.05   11.80
   7  -4  -5  474.15   11.50
  -7  -4   5  485.05   13.60
  -7  -4   5  493.95   15.20
   7  -4  -5  489.95   13.90
  -7   4   5  493.55   16.00
  -7   4   5  479.65   14.60
  -6  -4   5  667.93   17.20
  -6  -4   5  663.53   17.70
   6  -4  -5  670.63   16.70
   6  -4  -5  655.43   16.90
   6  -4  -5  666.13   16.70
  -6   4   5  640.84   18.30
  -6   4   5  666.53   17.80
   5  -4  -5 2568.14   55.19
   5  -4  -5 2496.55   54.39
  -5  -4   5 2458.35   55.19
   5  -4  -5 2532.55   55.39
  -5  -4   5 2549.84   54.89
  -5   4   5 2460.35   55.59
  -5   4   5 2519.55   56.19
   4  -4  -5  469.05   13.50
   4  -4  -5  487.35   13.70
  -4  -4   5  468.55   13.40
  -4   4   5  473.35   13.60
   4   4  -5  463.45   11.40
  -3  -4   5  491.35   13.90
  -3  -4   5  534.45   13.70
  -3   4   5  502.45   14.00
   3   4  -5  521.25   13.30
   2  -4  -5    2.80    3.10
  -2  -4   5    2.80    2.10
  -2  -4   5    5.60    2.30
  -2   4   5    3.30    2.60
   2   4  -5    0.50    3.00
  -1  -4   5 1587.24   37.50
   1  -4  -5 1697.03   37.70
  -1  -4   5 1624.14   36.20
   1   4  -5 1643.14   37.20
  -1   4   5 1596.24   37.00
   0  -4   5  179.58    6.50
   0  -4   5  171.48    7.60
   0   4  -5  171.38    8.20
   0   4   5  170.48    6.70
   1  -4   5  776.52   20.20
  -1  -4  -5  791.12   19.90
  -1  -4  -5  772.12   18.40
   1   4   5  788.12   19.20
  -1   4  -5  743.63   22.00
  -1   4  -5  762.02   18.70
  -2  -4  -5   12.00    2.80
  -2  -4  -5   10.80    3.50
   2  -4   5   10.60    3.20
   2  -4   5    4.30    3.30
   2   4   5   12.30    1.80
  -2   4  -5   13.10    3.00
  -2   4  -5   11.00    4.00
   2   4   5   10.00    2.60
  -3  -4  -5   11.00    2.90
  -3  -4  -5    8.70    3.50
   3  -4   5    9.70    3.20
   3  -4   5    8.70    3.50
   3   4   5   10.50    2.50
   3   4   5    8.40    1.70
  -3   4  -5    8.70    2.90
  -3   4  -5    4.60    3.40
   4  -4   5   82.39    7.00
   4  -4   5   99.29    6.60
  -4  -4  -5   90.39    6.90
   4  -4   5   94.39    6.10
  -4  -4  -5   90.19    6.50
   4   4   5   90.39    4.80
   4   4   5   91.09    3.70
  -4   4  -5   95.49    8.40
  -4   4  -5   85.19    5.20
   5  -4   5 2815.02   62.39
  -5  -4  -5 2806.02   62.29
   5  -4   5 2818.82   61.49
  -5  -4  -5 2749.92   61.39
   5  -4   5 2745.33   61.39
  -5   4  -5 2738.63   62.69
  -5   4  -5 2755.72   60.79
   5   4   5 2731.93   58.79
   5   4   5 2757.92   58.39
   6  -4   5   42.10    5.30
  -6  -4  -5   46.50    5.50
   6  -4   5   42.70    4.50
   6  -4   5   37.50    6.00
  -6  -4  -5   52.99    6.50
  -6   4  -5   36.90    6.50
  -6   4  -5   41.60    4.40
   7  -4   5  241.18   12.40
   7  -4   5  253.27    9.70
   7  -4   5  273.77    9.50
  -7  -4  -5  246.88   12.40
  -7  -4  -5  265.67   13.30
   7  -4   5  268.27   13.20
  -7   4  -5  255.57   13.10
  -7   4  -5  238.18    9.80
  -8  -4  -5    8.00    6.00
   8  -4   5    3.50    2.70
   8  -4   5    3.30    5.70
   8  -4   5    6.10    2.40
  -8   4  -5    1.50    5.10
  -9  -4  -5   27.60    7.90
   9  -4   5   36.20    9.20
  -9   4  -5   23.70    6.70
   9  -5  -5  298.27   12.80
  -9  -5   5  302.87   16.60
  -9  -5   5  302.17   10.90
  -9   5   5  320.57   14.20
  -9   5   5  313.37   12.70
  -8  -5   5   76.89    6.50
   8  -5  -5   69.49    6.60
  -8  -5   5   74.19    8.00
  -8   5   5   74.19    7.50
  -8   5   5   78.39    8.30
   7  -5  -5   11.70    3.10
  -7  -5   5    5.60    3.50
   7  -5  -5   11.60    4.00
  -7  -5   5    5.80    5.10
   7  -5  -5    7.80    4.30
  -7   5   5   10.00    3.90
   6  -5  -5   59.99    5.90
  -6  -5   5   49.30    5.30
  -6  -5   5   53.69    5.90
   6  -5  -5   49.40    5.00
   6  -5  -5   59.79    5.30
  -6   5   5   55.79    5.60
  -6   5   5   52.59    5.90
   5  -5  -5  183.58    8.30
  -5  -5   5  183.88    8.30
   5  -5  -5  166.58    9.50
  -5   5   5  201.38    9.00
  -5   5   5  182.98    8.40
  -4  -5   5  887.01   22.10
   4  -5  -5  880.81   22.50
  -4  -5   5  892.31   21.00
  -4   5   5  861.01   22.00
  -4   5   5  840.22   21.90
  -3  -5   5  268.67    8.90
  -3  -5   5  265.87    9.80
   3  -5  -5  272.67   10.10
  -3   5   5  263.37    9.30
   3   5  -5  275.07    8.80
   2  -5  -5  477.95   14.10
  -2  -5   5  504.75   13.50
  -2  -5   5  506.15   14.60
  -2   5   5  494.15   13.90
   2   5  -5  489.95   13.80
   1  -5  -5   88.29    6.70
  -1  -5   5   78.59    4.80
  -1  -5   5   80.19    6.20
  -1   5   5   80.49    5.60
   0  -5  -5   63.59    6.40
   0  -5   5   74.59    4.80
   0  -5   5   71.69    5.50
   0   5  -5   58.89    6.70
   0   5   5   65.29    4.60
   1  -5   5  430.26   13.60
   1  -5   5  423.46   12.00
  -1  -5  -5  437.76   12.90
   1   5   5  422.16   12.40
  -1   5  -5  440.76   11.90
  -1   5  -5  423.66   13.40
   2  -5   5 1269.17   31.40
   2  -5   5 1303.67   30.20
  -2  -5  -5 1304.67   31.00
   2   5   5 1289.57   30.00
   2   5   5 1265.67   27.90
  -2   5  -5 1278.77   30.00
  -2   5  -5 1360.76   32.10
  -3  -5  -5  116.79    7.20
   3  -5   5  105.29    6.50
   3  -5   5  114.89    7.50
  -3  -5  -5  109.19    7.50
  -3   5  -5  114.19    9.00
   3   5   5  110.49    5.80
  -3   5  -5  113.89    5.70
   3   5   5  119.69    3.60
   4  -5   5  209.88    9.50
  -4  -5  -5  189.38    9.00
  -4  -5  -5  199.68    9.20
   4  -5   5  199.98    8.80
   4   5   5  200.28    7.00
  -4   5  -5  196.58    8.20
  -4   5  -5  205.98   10.20
   5  -5   5   98.19    7.40
   5  -5   5  104.79    7.80
  -5  -5  -5  112.19    9.60
   5  -5   5  113.79    9.10
  -5  -5  -5  103.89    8.20
  -5   5  -5   86.99    9.70
  -5   5  -5  105.19    6.40
   6  -5   5   15.90    4.60
  -6  -5  -5   16.70    5.10
  -6  -5  -5    5.10    4.40
   6  -5   5   10.40    4.30
   6  -5   5    2.10    5.30
  -6   5  -5    9.50    6.00
  -6   5  -5   13.10    3.70
  -7  -5  -5  124.09   10.00
   7  -5   5  117.19    9.60
   7  -5   5  116.99    8.40
   7  -5   5  121.49   10.10
  -7   5  -5  119.19    7.90
   8  -5   5   46.50    5.60
   8  -5   5   41.50    8.00
   8  -5   5   49.90    5.80
  -8  -5  -5   62.39    7.00
  -8   5  -5   55.59    6.90
   9  -6  -5   24.70    7.00
  -9  -6   5   13.30    4.90
  -9   6   5   14.10    7.80
  -9   6   5   19.80    6.80
  -8  -6   5  669.83   18.40
   8  -6  -5  623.34   15.40
   8  -6  -5  615.94   15.20
  -8  -6   5  586.44   20.50
   8  -6  -5  663.93   19.40
  -8   6   5  655.83   19.40
   7  -6  -5   24.20    5.40
  -7  -6   5    5.00    5.90
   7  -6  -5   17.60    4.40
   7  -6  -5   16.50    4.20
  -7  -6   5   14.60    4.20
  -7   6   5   22.90    6.20
  -7   6   5   23.60    5.00
  -6  -6   5  181.68    8.90
   6  -6  -5  174.28    8.60
  -6  -6   5  188.88   10.20
  -6  -6   5  168.78    8.50
  -6   6   5  167.88    8.40
  -6   6   5  181.08    9.00
  -5  -6   5    1.50    3.80
   5  -6  -5    0.90    4.30
  -5  -6   5   -3.30    3.30
   5  -6  -5    0.90    3.70
  -5   6   5    1.10    3.00
  -5   6   5   -2.50    4.00
  -4  -6   5   86.39    6.20
   4  -6  -5   73.79    7.10
  -4  -6   5   70.59    7.30
   4  -6  -5   81.99    6.80
  -4   6   5   71.69    6.80
  -4   6   5   80.29    6.00
   3  -6  -5   -1.00    3.90
  -3  -6   5    1.10    3.40
  -3  -6   5   -1.00    3.20
  -3   6   5   -1.30    2.70
  -3   6   5    4.10    2.80
   3   6  -5    2.40    2.90
  -2  -6   5  607.44   17.40
   2  -6  -5  598.54   17.30
  -2  -6   5  601.24   15.50
  -2   6   5  594.64   16.50
   2   6  -5  621.24   16.80
  -2   6   5  592.44   15.80
  -1  -6   5  120.69    5.90
   1  -6  -5  117.99    7.90
  -1  -6   5  114.19    7.40
  -1   6   5  105.79    5.50
  -1   6   5  108.49    6.20
   0  -6  -5 2055.39   46.50
   0  -6   5 2073.39   45.20
   0  -6   5 1980.70   46.80
   0   6   5 2010.00   44.30
   0   6   5 2037.10   46.00
   0   6  -5 2045.10   46.80
   1  -6   5    7.50    3.70
   1  -6   5    9.00    3.40
  -1  -6  -5    4.90    3.40
   1   6   5    2.50    1.70
   1   6   5    8.00    3.10
  -1   6  -5    4.10    2.90
  -1   6  -5    3.90    4.60
   2  -6   5   -2.80    3.70
   2  -6   5    2.70    3.30
  -2  -6  -5    0.60    4.10
  -2   6  -5    2.50    2.70
   2   6   5    7.20    1.30
   2   6   5    2.10    1.60
   2   6   5    8.10    3.10
  -2   6  -5    1.20    4.00
   3  -6   5   -3.30    4.10
  -3  -6  -5   -6.50    3.80
   3  -6   5   -1.20    3.40
  -3  -6  -5    0.80    3.30
   3   6   5   -1.10    2.60
  -3   6  -5    2.50    5.10
  -3   6  -5    3.40    2.70
  -4  -6  -5  843.02   22.90
  -4  -6  -5  842.92   22.50
   4  -6   5  843.32   22.80
   4  -6   5  865.11   22.80
  -4   6  -5  822.22   23.60
  -4   6  -5  858.51   21.70
   5  -6   5    6.90    4.80
   5  -6   5    4.50    4.10
  -5  -6  -5    8.00    5.10
  -5  -6  -5    4.60    4.90
  -5   6  -5   -3.70    4.70
  -5   6  -5    2.20    3.30
   6  -6   5  219.68   12.30
  -6  -6  -5  201.48   12.20
   6  -6   5  225.88   10.90
   6  -6   5  220.18   10.50
  -6  -6  -5  202.08   12.10
  -6   6  -5  214.08    9.60
  -7  -6  -5   -6.50    5.20
   7  -6   5    6.50    7.20
   7  -6   5   -0.50    5.50
   7  -6   5    7.10    5.40
  -7   6  -5   -0.80    4.40
   8  -6   5  239.98   10.50
   8  -6   5  231.58   14.40
  -8   6  -5  235.48   12.80
  -8  -7   5  141.89    9.70
  -8  -7   5  125.99   10.50
   8  -7  -5  116.39   10.10
   8  -7  -5  126.99    7.90
  -8   7   5  128.29   10.70
  -8   7   5  132.49   11.30
  -7  -7   5  251.67   13.40
   7  -7  -5  257.57   11.10
  -7  -7   5  241.58   11.30
   7  -7  -5  241.58   11.00
  -7  -7   5  233.28   11.50
  -7   7   5  241.58   12.80
   6  -7  -5   99.89    9.10
  -6  -7   5  111.09    7.90
   6  -7  -5  115.59   10.50
  -6  -7   5  117.39    9.00
  -6   7   5  119.99    8.90
  -5  -7   5   95.39    7.20
   5  -7  -5  111.79    9.20
   5  -7  -5   89.99    8.40
  -5  -7   5   99.49    8.00
  -5   7   5   92.29    7.10
  -5   7   5  101.89    8.10
  -4  -7   5  935.51   24.40
   4  -7  -5  920.71   24.50
  -4  -7   5  925.91   22.70
   4  -7  -5  951.90   24.90
  -4   7   5  902.11   23.50
  -4   7   5  915.51   24.10
   3  -7  -5  174.98   10.10
  -3  -7   5  171.78    7.90
   3  -7  -5  157.58    8.60
  -3  -7   5  167.98    9.20
  -3   7   5  158.48    8.10
  -3   7   5  153.78    8.60
   3   7  -5  168.48    8.20
  -2  -7   5   57.59    5.20
   2  -7  -5   64.29    6.20
  -2  -7   5   59.69    5.90
  -2   7   5   60.09    6.50
  -2   7   5   56.79    5.40
   2   7  -5   61.09    6.70
  -1  -7   5    4.60    4.10
   1  -7  -5   16.80    4.80
  -1  -7   5    6.80    4.00
  -1   7   5   18.40    4.10
  -1   7   5   17.90    3.10
   1   7  -5   20.30    4.90
   0  -7   5  125.89    7.90
   0  -7  -5  116.09    8.90
   0  -7   5  128.29    6.90
   0   7   5  112.49    5.50
   0   7   5  122.79    7.70
   0   7  -5  119.59    9.30
  -1  -7  -5   14.70    4.10
   1  -7   5   13.50    4.00
   1  -7   5   11.10    4.30
   1   7   5   10.90    2.10
   1   7   5   15.70    3.30
  -1   7  -5   14.60    5.50
  -1   7  -5   12.50    3.10
   2  -7   5  741.93   21.10
  -2  -7  -5  711.13   20.20
   2  -7   5  736.33   19.40
   2   7   5  734.83   18.90
   2   7   5  732.73   15.90
   2   7   5  661.43   16.20
  -2   7  -5  734.73   21.50
  -2   7  -5  711.13   18.60
  -3  -7  -5  109.19    8.90
  -3  -7  -5   95.89    8.60
   3  -7   5  107.19    8.70
   3  -7   5   93.89    8.50
  -3   7  -5   86.79   10.20
  -3   7  -5   93.99    6.30
   3   7   5  103.99    6.40
  -4  -7  -5  114.49    9.20
  -4  -7  -5  118.89   10.00
   4  -7   5  125.89    9.50
   4  -7   5  108.49    9.20
  -4   7  -5  103.49    6.80
  -4   7  -5  114.59    9.20
  -5  -7  -5    5.30    4.90
   5  -7   5    1.20    5.40
  -5  -7  -5   13.40    6.10
  -5   7  -5   10.30    4.70
  -6  -7  -5  115.19   10.00
   6  -7   5   90.49    9.30
   6  -7   5  117.99   11.40
   6  -7   5  117.49   11.50
  -6   7  -5  102.39    8.00
   7  -7   5   17.30    6.40
   7  -7   5    1.70    5.80
   7  -7   5    5.30    8.20
  -7   7  -5   14.10    5.40
  -8  -8   5   10.10    6.40
  -8  -8   5   10.30    6.20
   8  -8  -5    2.00    5.80
   8  -8  -5   15.60    8.00
  -8   8   5   10.20    7.30
  -8   8   5    2.00    7.90
   7  -8  -5  214.78   11.70
   7  -8  -5  216.88   11.90
  -7  -8   5  229.98   12.40
  -7  -8   5  195.08   10.30
  -7   8   5  223.58   11.90
  -7   8   5  210.98   12.90
   6  -8  -5    0.50    5.70
   6  -8  -5   -0.50    6.20
  -6  -8   5    9.60    5.00
  -6  -8   5   16.80    5.20
  -6   8   5    9.90    4.70
  -6   8   5    3.20    5.90
   5  -8  -5   14.30    5.80
  -5  -8   5    9.30    5.00
   5  -8  -5    9.00    6.00
  -5  -8   5   15.00    4.60
  -5   8   5    1.30    5.10
  -4  -8   5   14.80    4.50
   4  -8  -5   24.40    6.20
  -4  -8   5   15.90    5.00
   4  -8  -5   24.30    6.10
  -4   8   5   17.50    5.10
  -4   8   5   21.80    5.00
   3  -8  -5  336.37   13.60
   3  -8  -5  309.97   12.90
  -3  -8   5  306.57   12.80
  -3  -8   5  308.17   11.00
  -3   8   5  329.57   11.30
  -3   8   5  304.97   11.70
  -2  -8   5    7.60    4.20
  -2  -8   5    0.60    3.70
   2  -8  -5    6.00    4.30
   2  -8  -5   10.00    4.30
  -2   8   5    3.40    4.30
   2   8  -5    5.20    4.70
  -2   8   5    1.00    3.30
   1  -8  -5  205.58   11.00
  -1  -8   5  209.48    9.50
  -1  -8   5  205.78   11.00
   1   8  -5  204.18   10.90
  -1   8   5  220.68    7.90
  -1   8   5  218.68    9.90
   0  -8   5  130.89    8.70
   0  -8  -5  138.69    9.60
   0  -8   5  126.39    8.80
   0   8  -5  140.19   10.80
   0   8   5  134.09    8.30
   0   8   5  137.59    6.00
   1  -8   5    3.00    4.20
  -1  -8  -5    5.50    4.10
   1  -8   5   18.30    5.00
   1   8   5   16.30    4.40
  -1   8  -5   13.90    3.50
   1   8   5   14.20    2.00
  -1   8  -5    8.30    6.20
   2  -8   5   50.79    6.00
   2  -8   5   57.59    6.90
  -2  -8  -5   55.49    6.20
  -2   8  -5   57.19    5.40
   2   8   5   61.29    2.70
   2   8   5   51.19    5.90
  -2   8  -5   66.79    7.20
   3  -8   5  357.96   12.90
  -3  -8  -5  373.76   14.10
   3  -8   5  376.06   14.20
  -3   8  -5  353.96   15.20
  -3   8  -5  381.26   12.60
  -4  -8  -5   12.80    5.20
  -4  -8  -5    3.10    5.60
   4  -8   5   -3.90    5.50
  -4   8  -5    6.10    4.90
   5  -8   5  461.55   25.70
   5  -8   5  447.56   16.50
  -5   8  -5  487.45   16.00
   6  -8   5   11.40    6.30
   6  -8   5   21.40    8.90
  -6   8  -5   23.00    5.60
   7  -8   5  204.88   16.00
   7  -8   5  213.68   17.20
  -7   8  -5  214.68   11.80
  -7  -9   5   78.59    8.40
  -7  -9   5   91.99    9.00
   7  -9  -5   89.79    9.30
  -7   9   5   98.09    8.80
  -7   9   5  113.29   12.80
   6  -9  -5  124.09   11.10
  -6  -9   5  148.09   10.90
  -6  -9   5  139.69   10.30
  -6   9   5  146.89   11.60
  -6   9   5  137.89   12.10
   5  -9  -5   70.99    7.60
  -5  -9   5   60.29    7.20
  -5  -9   5   59.79    6.30
  -5   9   5   66.09    7.80
  -5   9   5   64.49    7.30
  -4  -9   5   -0.70    5.40
   4  -9  -5    0.30    5.70
  -4  -9   5    2.20    4.80
  -4   9   5    1.60    5.60
  -4   9   5    0.60    4.70
   3  -9  -5    9.40    5.60
  -3  -9   5   -3.30    4.60
   3  -9  -5    0.60    5.30
  -3  -9   5   15.20    5.90
  -3   9   5    4.10    4.30
  -2  -9   5   -1.80    5.50
  -2  -9   5  -11.40    4.40
   2  -9  -5   -2.80    4.90
   2  -9  -5   -6.00    5.20
  -2   9   5   -3.30    3.70
  -2   9   5   -7.00    3.50
  -1  -9   5   66.59    6.20
   1  -9  -5   59.79    6.90
  -1  -9   5   77.09    9.30
   1  -9  -5   48.40    6.30
  -1   9   5   59.29    5.40
  -1   9   5   62.89    6.70
   1   9  -5   72.89    7.60
   0  -9   5   -6.00    5.50
   0  -9  -5    8.60    4.30
   0  -9   5   -1.50    4.10
   0   9  -5    5.10    4.90
   0   9   5    5.30    3.80
   0   9   5   -5.10    2.60
   1  -9   5    4.00    4.80
   1  -9   5   -3.10    5.10
  -1   9  -5    3.70    3.30
  -1   9  -5    2.00    5.70
   1   9   5    0.40    1.70
   2  -9   5   78.89    7.30
   3  -9   5   60.59    8.30
  -3   9  -5   58.69    6.50
   4  -9   5  113.49   11.70
  -4   9  -5  111.89    9.50
   5  -9   5  -13.10    7.40
  -5   9  -5    5.20    6.30
   6  -9   5   -2.50    7.90
  -6   9  -5    3.10    5.70
  -6 -10   5   85.59    8.70
   6 -10  -5   87.49   10.20
  -6  10   5   99.49    9.70
   5 -10  -5    0.90    8.20
  -5 -10   5   12.10    5.30
  -5  10   5   13.00    6.70
   4 -10  -5   12.50    7.80
  -4 -10   5    3.40    5.60
   3 -10  -5   42.00    8.30
  -3 -10   5   42.30    6.30
  -3  10   5   36.70    5.60
  -2 -10   5   83.19    7.30
   2 -10  -5  104.09   11.10
  -2  10   5   89.79    7.10
   1 -10  -5   29.60    6.70
  -1 -10   5   36.40    6.80
  -1 -10   5   45.30    6.30
   1  10  -5   26.50    7.30
  -1  10   5   36.50    4.10
   0 -10   5  116.99   10.70
   0 -10  -5  110.39   11.60
   0 -10   5  103.59    9.40
   0  10   5  106.49    5.60
   0  10  -5  121.69   11.60
   1 -10   5   -2.40    6.70
   1  10   5   -1.30    1.80
  -1  10  -5    1.20    5.20
   2 -10   5   10.90    7.80
  -2  10  -5   15.50    5.50
   3 -10   5    3.20    6.40
  -3  10  -5   -1.60    4.60
   4 -10   5   12.40    7.20
  -4  10  -5    2.90    5.50
   5 -10   5    9.60    9.30
  -5  10  -5   -0.90    5.60
  -4 -11   5   72.69    7.40
   4 -11  -5   70.09   10.90
  -4 -11   5   82.99   10.30
  -4  11   5   76.79    7.70
  -3 -11   5  120.29   13.80
   3 -11  -5  126.49   14.60
  -3 -11   5  110.59   10.20
  -3  11   5  110.09    8.40
   2 -11  -5   62.59    8.70
  -2 -11   5   70.59   10.00
  -2 -11   5   70.29    7.10
  -2  11   5   77.39    7.00
   1 -11  -5    1.10    6.40
  -1 -11   5    7.30    8.30
  -1  11   5   -0.20    4.10
   0 -11   5    5.30    8.20
   0 -11  -5   -1.70    7.90
   0  11   5    5.90    3.20
   1 -11   5   19.00    8.70
  -1 -11  -5   -5.40    7.70
   1  11   5    2.00    2.00
  -1  11  -5    9.60    5.10
   2 -11   5   75.49    9.40
  -2  11  -5   69.89    7.10
   3 -11   5  165.58   15.90
  -3  11  -5  154.48   12.40
 -10   0   6   47.80    8.90
 -10   0   6   59.19    6.00
  -9   0   6   -1.00    4.20
  -8   0   6   87.79    6.60
  -7   0   6    3.80    3.20
  -6   0   6 1961.80   44.20
   5   0  -6    1.30    2.10
  -5   0   6   -0.40    2.60
  -4   0   6   97.89    5.70
   4   0  -6  100.19    5.60
  -3   0   6   -1.00    2.60
   3   0  -6   -1.90    2.80
  -2   0   6  436.66   12.70
   2   0  -6  440.66   12.50
   1   0  -6   -2.20    2.90
  -1   0   6   -1.00    1.90
   0   0   6  541.55   13.90
   0   0  -6  543.55   15.10
   0   0   6  554.94   15.00
   1   0   6    5.60    2.40
  -2   0  -6 1525.25   35.20
   2   0   6 1463.65   33.10
   2   0   6 1479.25   33.30
   2   0   6 1490.85   34.40
  -3   0  -6    1.40    3.60
   3   0   6   -1.40    2.50
   3   0   6   -2.10    2.30
   4   0   6 3046.50   67.29
   4   0   6 3105.29   66.49
   4   0   6 3051.79   66.79
  -4   0  -6 3102.99   68.29
  -5   0  -6   -4.30    2.40
  -5   0  -6    4.80    4.50
   5   0   6   -2.80    2.80
   5   0   6   -1.30    2.80
   5   0   6   -4.70    3.30
  -6   0  -6   23.70    5.80
   6   0   6   24.00    4.60
   6   0   6   24.90    4.80
  -6   0  -6   19.60    3.40
   6   0   6   24.30    3.00
  -7   0  -6    3.80    5.70
   7   0   6   -1.20    6.30
   7   0   6   -3.60    5.00
  -7   0  -6    4.90    3.40
   8   0   6  805.82   23.20
   8   0   6  837.12   24.90
  -8   0  -6  804.02   20.60
  -8   0  -6  804.72   25.50
  -9   0  -6    4.20    4.40
   9   0   6   -7.70    6.10
   9   0   6   -5.60    6.40
 -10  -1   6   12.50    8.10
 -10  -1   6   12.40    4.20
 -10   1   6   14.00    6.70
 -10   1   6   18.30    5.10
  -9  -1   6   29.90    4.80
  -9   1   6   37.90    5.00
  -9   1   6   34.50    7.40
  -8  -1   6  516.15   14.50
  -8   1   6  484.55   14.40
  -7  -1   6  104.69    6.50
  -7   1   6  106.39    6.50
  -6  -1   6 1576.74   36.40
  -6   1   6 1604.94   36.60
   5  -1  -6  180.58    6.80
  -5  -1   6  177.88    7.40
   5   1  -6  165.98    5.30
  -5   1   6  170.28    7.30
   4  -1  -6  355.46   10.60
  -4  -1   6  358.66   11.10
  -4   1   6  360.26   10.80
   4   1  -6  367.06   10.30
  -3  -1   6 1237.78   29.20
   3  -1  -6 1271.47   29.00
   3   1  -6 1249.18   28.80
  -3   1   6 1206.58   29.10
  -2  -1   6 1145.69   27.90
   2  -1  -6 1206.08   28.00
   2   1  -6 1197.28   27.90
  -2   1   6 1178.98   27.90
  -1  -1   6  155.48    6.90
  -1  -1   6  143.99    3.90
  -1   1   6  148.69    6.60
   1   1  -6  143.79    7.30
   0  -1   6  791.82   18.20
   0  -1  -6  828.62   20.70
   0  -1   6  838.42   20.70
   0   1  -6  832.32   21.00
   0   1   6  794.62   20.20
   1  -1   6 2098.89   46.90
   1  -1   6 2163.48   48.60
  -1  -1  -6 2202.78   49.30
  -1   1  -6 2204.08   49.50
   1   1   6 2156.68   48.40
   1   1   6 2219.88   47.20
   2  -1   6  325.67    9.80
   2  -1   6  317.77   10.70
  -2  -1  -6  330.17   11.10
   2  -1   6  324.37    9.50
  -2   1  -6  337.57   11.80
   2   1   6  334.47   10.40
   2   1   6  344.77    9.20
  -3  -1  -6  160.58    7.60
   3  -1   6  143.09    7.00
   3  -1   6  170.08    7.50
   3  -1   6  142.49    6.50
   3   1   6  148.69    5.90
   3   1   6  162.08    6.70
  -3   1  -6  151.48    8.70
   3   1   6  155.98    6.10
  -4  -1  -6   60.89    5.80
   4  -1   6   67.99    5.90
   4  -1   6   65.09    6.10
   4  -1   6   57.59    5.80
   4   1   6   58.19    4.80
   4   1   6   64.09    5.60
  -4   1  -6   62.09    6.00
  -4   1  -6   65.29    4.80
   4   1   6   58.89    5.40
   5  -1   6  111.99    7.30
  -5  -1  -6   99.89    8.60
   5  -1   6  111.39    6.80
   5  -1   6  108.89    5.90
   5   1   6  107.69    6.70
   5   1   6  104.79    5.50
  -5   1  -6  108.29    5.90
  -5   1  -6  101.69    9.00
   5   1   6  107.49    7.20
   6  -1   6   11.70    3.30
  -6  -1  -6    5.00    2.60
   6  -1   6   10.80    4.40
   6  -1   6    5.50    4.60
  -6  -1  -6    0.90    5.00
  -6   1  -6    4.80    4.40
   6   1   6    4.40    2.30
   6   1   6    5.10    3.50
  -6   1  -6    0.20    3.00
   6   1   6    5.20    4.40
   7  -1   6 1282.37   27.70
   7  -1   6 1257.97   31.00
  -7  -1  -6 1273.37   29.00
  -7  -1  -6 1222.18   32.00
  -7   1  -6 1255.37   29.70
   7   1   6 1288.67   35.00
  -7   1  -6 1200.28   32.30
   7   1   6 1240.38   29.90
  -8  -1  -6  161.78    7.60
  -8  -1  -6  163.88   12.70
   8  -1   6  182.18   11.20
   8  -1   6  155.78   10.80
  -8   1  -6  174.08    8.80
   8   1   6  171.88   11.00
  -9  -1  -6   29.60    5.10
   9  -1   6   30.20    9.00
  -9   1  -6   37.10    5.90
 -10  -2   6   -2.80    8.10
 -10  -2   6    3.50    4.10
 -10   2   6   13.20    8.20
 -10   2   6    8.60    5.20
  -9  -2   6  716.53   19.20
  -9   2   6  744.43   20.20
  -9   2   6  720.93   22.90
  -8  -2   6   16.00    3.80
  -8  -2   6   18.70    4.60
  -8   2   6   26.80    5.50
  -8   2   6   19.10    4.00
  -7  -2   6    1.90    3.20
  -7  -2   6    5.70    3.70
  -7   2   6    5.90    3.30
  -6  -2   6  115.89    5.90
   6  -2  -6  108.49    4.40
   6  -2  -6  108.89    5.20
  -6  -2   6   99.99    6.10
  -6   2   6  107.69    6.60
   5  -2  -6 3942.31   83.99
  -5  -2   6 3952.30   84.79
  -5  -2   6 3948.60   83.19
   5  -2  -6 3863.31   83.99
  -5   2   6 3947.10   84.99
   4  -2  -6  159.08    7.20
  -4  -2   6  161.38    5.30
  -4  -2   6  169.48    7.30
   4   2  -6  167.38    6.50
  -4   2   6  162.68    7.30
  -3  -2   6 1942.81   43.70
   3  -2  -6 1990.40   43.60
  -3  -2   6 1893.21   40.90
  -3   2   6 1925.71   43.50
   3   2  -6 1898.51   42.80
  -2  -2   6   18.60    3.30
  -2   2   6   21.50    3.30
   2   2  -6   17.30    3.40
  -1  -2   6 1723.43   37.30
  -1  -2   6 1647.84   38.20
   1  -2  -6 1710.83   38.30
   1   2  -6 1585.44   39.60
  -1   2   6 1629.04   37.80
   0  -2   6   70.19    4.30
   0  -2  -6   63.39    6.20
   0  -2  -6   62.59    3.10
   0  -2   6   62.89    4.90
   0   2  -6   58.39    5.30
   0   2   6   66.49    5.10
   1  -2   6   93.49    5.70
   1  -2   6   69.19    5.80
  -1  -2  -6   77.39    4.00
   1  -2   6   83.39    4.20
  -1  -2  -6   76.29    5.90
   1   2   6   87.79    4.00
  -1   2  -6   80.59    6.20
   1   2   6   72.89    5.20
  -2  -2  -6    2.80    2.40
   2  -2   6    1.90    2.30
   2  -2   6    0.00    2.90
   2  -2   6    1.00    2.30
  -2  -2  -6    3.10    3.00
  -2   2  -6   -0.50    3.00
   2   2   6    1.50    2.10
   2   2   6   -0.20    2.40
   3  -2   6  356.26   11.10
  -3  -2  -6  360.96   11.20
   3  -2   6  363.16   11.60
  -3  -2  -6  360.16   12.30
   3  -2   6  376.76   11.10
  -3   2  -6  364.46   12.40
  -3   2  -6  350.26   10.50
   3   2   6  353.16    9.70
   3   2   6  361.36   10.80
   4  -2   6   61.59    5.70
  -4  -2  -6   78.59    7.00
  -4  -2  -6   70.49    7.40
   4  -2   6   59.39    5.40
   4  -2   6   56.89    5.90
  -4   2  -6   61.59    5.70
   4   2   6   85.99    5.20
  -4   2  -6   49.80    4.30
   5  -2   6    2.50    3.70
  -5  -2  -6    8.60    4.70
   5  -2   6    0.50    3.90
  -5  -2  -6    8.00    4.50
   5  -2   6    6.70    3.50
  -5   2  -6    5.20    5.20
   5   2   6    5.30    2.80
   5   2   6    0.70    3.20
  -5   2  -6    0.70    2.50
   6  -2   6  151.58    9.70
  -6  -2  -6  160.88   11.00
   6  -2   6  147.59    7.30
  -6  -2  -6  159.38   10.40
   6  -2   6  171.58    8.80
  -6   2  -6  157.58    7.60
   6   2   6  162.38    7.70
  -6   2  -6  159.88   11.20
   6   2   6  155.38    5.10
   7  -2   6  225.78   12.00
   7  -2   6  222.78   13.90
   7  -2   6  261.87    8.30
  -7  -2  -6  254.97   12.80
  -7   2  -6  261.87   10.10
   7   2   6  272.17    9.80
  -7   2  -6  238.98   13.00
  -8  -2  -6   17.80    6.20
   8  -2   6   11.00    6.00
   8  -2   6    7.70    5.80
   8   2   6   10.10    4.90
   9  -2   6  147.29   14.90
  -9  -3   6  263.07   12.70
  -9  -3   6  219.68    9.60
   9  -3  -6  224.48   10.40
  -9   3   6  240.78   11.40
  -9   3   6  232.08   14.30
  -8  -3   6   28.20    4.70
  -8  -3   6   25.50    5.30
   8  -3  -6   27.70    4.30
  -8   3   6   23.40    5.30
  -8   3   6   28.40    5.00
  -7  -3   6  213.18    8.90
   7  -3  -6  210.08    7.60
  -7  -3   6  220.68    9.70
  -7   3   6  214.18    9.20
  -7   3   6  210.58   10.20
   6  -3  -6  857.31   20.20
   6  -3  -6  893.11   21.00
  -6  -3   6  882.01   21.40
   6  -3  -6  885.51   20.90
  -6  -3   6  879.71   22.00
  -6   3   6  852.51   22.30
  -5  -3   6  288.87    9.20
  -5  -3   6  284.67   10.10
   5  -3  -6  293.07   10.30
   5  -3  -6  296.67   10.10
   5  -3  -6  280.77    7.60
  -5   3   6  300.87   10.40
  -4  -3   6    8.60    2.20
   4  -3  -6   14.10    3.60
  -4  -3   6    7.70    3.10
  -4   3   6   13.70    3.40
   4   3  -6    6.80    2.50
  -3  -3   6  375.06   12.00
   3  -3  -6  394.16   12.30
   3  -3  -6  387.16    8.80
   3   3  -6  387.96   11.60
  -3   3   6  379.96   11.60
  -2  -3   6  467.45   14.00
  -2  -3   6  480.35   12.90
   2  -3  -6  487.45   18.00
  -2   3   6  481.95   13.80
   2   3  -6  473.25   13.70
  -1  -3   6  782.22   19.00
  -1  -3   6  763.12   20.20
   1  -3  -6  776.12   17.30
   1  -3  -6  813.32   20.50
   1   3  -6  790.22   20.70
  -1   3   6  760.42   19.70
   0  -3   6  847.12   22.10
   0  -3   6  870.71   20.60
   0  -3  -6  869.41   22.10
   0  -3  -6  855.61   19.50
   0   3  -6  848.12   22.30
   0   3   6  855.71   21.40
   1  -3   6  297.87   10.80
   1  -3   6  302.37    9.50
  -1  -3  -6  322.77   11.30
  -1  -3  -6  298.87    8.80
  -1   3  -6  327.47   11.20
   1   3   6  324.47   10.10
   2  -3   6    4.20    2.70
   2  -3   6    5.60    2.60
   2  -3   6    4.20    2.70
  -2  -3  -6    2.00    2.60
  -2  -3  -6    3.90    3.10
   2   3   6    4.70    2.00
   2   3   6    3.20    2.80
  -2   3  -6    9.70    4.30
   3  -3   6  128.09    6.90
   3  -3   6  128.29    6.80
   3  -3   6  123.09    6.50
  -3  -3  -6  122.49    7.90
   3   3   6  141.39    6.30
  -3   3  -6  126.49    9.00
   3   3   6  134.09    5.30
  -3   3  -6  126.69    6.00
   4  -3   6  124.29    7.40
   4  -3   6  110.69    7.70
   4  -3   6  116.69    7.30
  -4  -3  -6  118.69    8.40
  -4  -3  -6  115.09    8.00
   4   3   6  113.79    5.70
  -4   3  -6  110.99    9.30
   4   3   6  119.19    5.30
  -4   3  -6  124.29    6.00
  -5  -3  -6   14.80    5.10
  -5  -3  -6   24.60    5.40
   5  -3   6   19.50    4.60
   5  -3   6   21.60    4.60
   5  -3   6   16.40    4.30
   5   3   6   19.40    3.00
  -5   3  -6   15.90    3.30
  -5   3  -6   17.50    5.90
   5   3   6   14.00    3.00
   6  -3   6   10.40    4.30
   6  -3   6   18.70    5.30
  -6  -3  -6   21.90    5.70
   6  -3   6   20.30    4.00
  -6  -3  -6   25.60    5.80
  -6   3  -6    6.00    5.50
   6   3   6   15.20    1.80
   6   3   6   15.50    3.70
  -6   3  -6   15.40    4.10
   7  -3   6  449.16   13.20
  -7  -3  -6  435.76   15.90
   7  -3   6  421.76   15.40
   7  -3   6  445.46   12.80
   7  -3   6  449.56   17.00
  -7   3  -6  420.46   14.00
   7   3   6  432.16   12.40
  -8  -3  -6   49.30    8.50
   8  -3   6   58.19    8.10
  -8   3  -6   51.39    6.50
   9  -4  -6   24.50    4.90
  -9  -4   6   32.20    4.80
  -9  -4   6   21.90    6.80
  -9   4   6   30.20    6.30
  -9   4   6   25.20    8.10
   8  -4  -6   45.20    5.00
  -8  -4   6   40.30    6.40
  -8  -4   6   46.30    5.00
  -8   4   6   54.89    5.70
  -8   4   6   35.90    7.30
   7  -4  -6  169.98    7.00
   7  -4  -6  164.68    6.10
  -7  -4   6  161.68    9.90
   7  -4  -6  178.18    7.50
  -7  -4   6  168.18    8.60
  -7   4   6  158.78    9.30
  -7   4   6  166.58    9.00
   6  -4  -6  363.76   10.30
  -6  -4   6  357.16   12.10
   6  -4  -6  363.56   11.40
   6  -4  -6  367.66   12.10
  -6   4   6  350.86   12.60
  -6   4   6  360.66   12.30
  -5  -4   6   64.09    5.20
  -5  -4   6   68.79    6.10
   5  -4  -6   59.39    3.80
   5  -4  -6   66.69    6.60
  -5   4   6   55.59    5.40
  -4  -4   6 2094.09   46.70
   4  -4  -6 2004.20   43.90
  -4   4   6 2044.20   46.60
   4   4  -6 2049.89   44.60
  -3  -4   6   -0.30    2.60
   3  -4  -6    2.40    3.90
  -3  -4   6   -3.10    3.10
   3   4  -6    0.40    3.20
  -3   4   6    2.90    2.50
  -2  -4   6  163.68    8.10
   2  -4  -6  166.08    8.50
  -2  -4   6  163.08    6.70
  -2   4   6  167.58    7.20
   2   4  -6  169.38    8.00
   1  -4  -6    4.00    3.80
  -1  -4   6   -1.90    2.50
  -1  -4   6    5.00    3.30
  -1   4   6    1.20    2.90
   1   4  -6    5.30    3.90
   0  -4   6 1547.95   35.20
   0  -4  -6 1532.35   34.20
   0  -4  -6 1550.94   36.40
   0  -4   6 1501.55   36.80
   0   4  -6 1659.63   37.50
   0   4   6 1554.54   36.10
  -1  -4  -6   36.20    4.60
   1  -4   6   32.60    4.60
   1  -4   6   35.50    3.70
  -1  -4  -6   32.30    3.10
   1   4   6   39.30    4.20
  -1   4  -6   32.60    4.40
   2  -4   6  650.83   18.50
  -2  -4  -6  666.53   18.20
   2  -4   6  651.63   17.50
  -2  -4  -6  673.93   17.10
   2   4   6  671.63   17.40
   2   4   6  650.93   15.50
  -2   4  -6  654.13   16.90
  -2   4  -6  659.73   19.20
   3  -4   6   47.30    5.40
  -3  -4  -6   57.09    5.60
  -3  -4  -6   63.59    8.90
   3  -4   6   56.09    5.30
  -3   4  -6   64.79    4.80
  -3   4  -6   54.99    5.90
   3   4   6   57.69    3.70
   3   4   6   52.39    5.50
   4  -4   6   53.39    5.70
   4  -4   6   58.89    6.60
  -4  -4  -6   55.29    5.80
  -4  -4  -6   50.39    5.90
   4  -4   6   57.99    5.70
  -4   4  -6   65.39    6.50
   4   4   6   55.09    4.60
  -4   4  -6   56.69    5.70
   4   4   6   54.19    4.00
   5  -4   6   66.09    6.00
   5  -4   6   65.59    6.30
   5  -4   6   63.59    6.90
  -5  -4  -6   64.89    6.50
  -5  -4  -6   72.09    7.60
  -5   4  -6   66.79    6.30
  -5   4  -6   68.99    7.20
   5   4   6   67.89    4.90
   5   4   6   70.29    4.20
  -6  -4  -6   10.10    5.50
   6  -4   6    8.90    4.80
   6  -4   6   19.50    5.40
   6  -4   6    7.00    4.50
  -6  -4  -6   23.60    5.70
   6   4   6   12.80    2.90
  -6   4  -6   13.50    4.40
  -6   4  -6    0.20    4.60
   7  -4   6   44.70    5.20
  -7  -4  -6   46.80    6.90
   7  -4   6   38.60    6.60
  -7   4  -6   40.80    5.90
   8  -4   6  178.08   12.60
   8  -4   6  146.49    6.60
  -8   4  -6  158.58   10.70
  -9  -5   6   13.60    7.40
  -9  -5   6   27.70    5.20
   9  -5  -6    4.60    4.90
  -9   5   6    4.90    8.00
  -8  -5   6   41.50    8.30
   8  -5  -6   44.80    5.60
  -8  -5   6   51.69    6.00
  -8   5   6   46.20    7.80
  -8   5   6   47.70    6.00
  -7  -5   6  133.49    8.80
   7  -5  -6  151.88    7.80
   7  -5  -6  138.19    8.20
   7  -5  -6  132.89    7.20
  -7  -5   6  144.59   10.80
  -7   5   6  143.69    8.20
  -7   5   6  138.69    9.30
  -6  -5   6  190.38   10.00
  -6  -5   6  170.48    8.80
   6  -5  -6  189.48    7.50
   6  -5  -6  185.58    9.00
  -6   5   6  169.28    8.90
  -6   5   6  186.68    9.30
   5  -5  -6   65.69    4.70
   5  -5  -6   76.19    6.80
   5  -5  -6   67.19    7.50
  -5  -5   6   74.49    6.80
  -5   5   6   68.39    6.20
  -5   5   6   65.29    6.00
  -4  -5   6   48.70    5.00
  -4  -5   6   59.59    6.40
   4  -5  -6   57.89    6.00
  -4   5   6   56.19    6.40
   4   5  -6   54.29    5.00
  -3  -5   6   95.39    5.80
   3  -5  -6   94.49    8.00
  -3  -5   6   93.89    7.10
   3   5  -6   99.69    6.70
  -3   5   6   85.09    6.60
   2  -5  -6  891.11   23.00
  -2  -5   6  881.61   23.10
  -2  -5   6  928.71   22.00
   2   5  -6  848.32   24.10
  -2   5   6  915.91   23.00
   1  -5  -6  756.02   20.20
  -1  -5   6  753.42   19.00
  -1  -5   6  773.02   20.60
   1   5  -6  737.93   20.20
  -1   5   6  721.03   19.40
   0  -5  -6 1316.57   32.30
   0  -5   6 1342.47   31.20
   0  -5   6 1378.06   33.00
   0   5   6 1324.27   31.80
   0   5  -6 1334.07   32.70
   1  -5   6  124.79    6.60
  -1  -5  -6  131.19    6.30
  -1  -5  -6  133.79    8.50
   1  -5   6  123.29    8.20
   1   5   6  132.79    6.50
  -1   5  -6  129.89    9.20
   2  -5   6   47.50    5.50
  -2  -5  -6   39.50    4.80
  -2  -5  -6   43.20    4.30
   2  -5   6   37.40    4.30
  -2   5  -6   48.10    5.30
   2   5   6   39.80    4.20
   2   5   6   46.00    3.50
  -2   5  -6   40.30    5.30
  -3  -5  -6  302.87   11.30
   3  -5   6  309.57   12.10
   3  -5   6  277.27   10.80
  -3  -5  -6  295.07   12.10
  -3   5  -6  301.37   12.40
  -3   5  -6  298.27   10.00
   3   5   6  311.67   10.40
   3   5   6  303.97    8.00
   4  -5   6   32.00    4.50
   4  -5   6   27.30    5.20
  -4  -5  -6   28.20    5.70
   4  -5   6   19.40    5.30
  -4  -5  -6   34.30    4.90
   4   5   6   28.40    2.90
   4   5   6   25.30    3.50
  -4   5  -6   31.40    5.60
  -4   5  -6   31.50    4.50
  -5  -5  -6    2.90    5.30
   5  -5   6   13.90    4.80
   5  -5   6   14.30    4.90
   5  -5   6   -2.60    4.30
  -5  -5  -6    6.20    5.30
  -5   5  -6    5.40    3.40
   5   5   6    4.90    2.90
   5   5   6    5.60    1.60
  -6  -5  -6  262.17   12.50
  -6  -5  -6  234.48   11.70
   6  -5   6  280.47   12.00
   6  -5   6  263.37   12.30
  -6   5  -6  254.87   10.40
   7  -5   6    9.50    5.20
   7  -5   6   13.50    7.30
   7  -5   6   16.40    5.40
  -7   5  -6   20.00    5.00
   8  -5   6  115.69    8.20
   8  -5   6  102.79   11.20
  -8   5  -6  127.79   11.20
  -8  -6   6   33.50    5.90
  -8  -6   6   22.30    7.00
   8  -6  -6   28.60    5.30
   8  -6  -6   22.10    3.30
  -8   6   6   33.20    6.70
  -8   6   6   52.99    7.40
   7  -6  -6    4.30    4.40
  -7  -6   6    2.80    4.20
  -7  -6   6   -3.40    5.90
   7  -6  -6    4.70    4.40
  -7   6   6    5.60    5.30
  -7   6   6    1.90    4.80
   6  -6  -6   -7.50    5.60
  -6  -6   6   -1.30    4.70
  -6  -6   6   -2.30    4.00
  -6  -6   6    4.00    4.90
   6  -6  -6   -0.50    3.50
   6  -6  -6    1.10    4.90
  -6   6   6    0.90    4.00
  -6   6   6   -1.20    6.80
   5  -6  -6  979.80   26.10
  -5  -6   6  978.00   25.50
  -5  -6   6  974.10   24.40
   5  -6  -6  986.80   25.60
  -5   6   6  953.70   25.50
  -5   6   6 1003.90   25.70
  -4  -6   6   10.30    4.20
   4  -6  -6    6.30    4.50
  -4  -6   6   10.50    4.30
   4  -6  -6   15.00    5.10
   4   6  -6   12.30    3.40
  -4   6   6    9.10    3.70
  -4   6   6    7.20    3.30
  -3  -6   6  210.18    8.30
   3  -6  -6  216.98   10.90
  -3  -6   6  201.78    9.30
  -3   6   6  213.38    9.50
   3   6  -6  206.08    9.30
  -3   6   6  230.88    9.30
  -2  -6   6   57.09    5.60
  -2  -6   6   60.39    7.00
   2  -6  -6   64.69    6.10
  -2   6   6   62.79    6.40
   1  -6  -6   18.40    4.30
  -1  -6   6   23.20    4.90
  -1  -6   6   20.60    4.20
  -1   6   6   19.40    4.10
   1   6  -6   22.60    5.10
   0  -6  -6   28.70    4.50
   0  -6   6   24.60    4.00
   0  -6   6   32.30    5.20
   0   6  -6   29.30    5.70
   0   6   6   30.10    4.50
   1  -6   6  219.58    9.10
  -1  -6  -6  241.08   10.80
   1  -6   6  228.98   10.10
   1   6   6  238.08    9.40
  -1   6  -6  225.88   10.70
   2  -6   6   42.10    4.80
  -2  -6  -6   35.50    4.90
   2  -6   6   52.49    6.00
  -2  -6  -6   42.20    4.80
  -2   6  -6   42.20    5.90
   2   6   6   43.70    4.60
   2   6   6   34.30    3.40
  -2   6  -6   40.10    4.40
  -3  -6  -6 1629.64   39.90
   3  -6   6 1696.73   40.50
  -3  -6  -6 1689.63   39.20
   3  -6   6 1647.14   38.90
   3   6   6 1673.93   38.20
  -3   6  -6 1672.03   41.10
  -3   6  -6 1632.54   38.50
   3   6   6 1664.43   35.40
  -4  -6  -6   54.29    5.70
   4  -6   6   55.69    6.30
   4  -6   6   59.49    6.90
  -4  -6  -6   66.59    6.90
  -4   6  -6   30.60    6.70
   4   6   6   59.49    5.80
  -4   6  -6   53.49    5.40
   5  -6   6   82.19    8.80
  -5  -6  -6   80.79    9.40
  -5  -6  -6   63.79    7.20
   5  -6   6   67.89    7.30
  -5   6  -6   82.19    6.70
   6  -6   6   42.80    7.70
   6  -6   6   40.40    6.90
  -6   6  -6   43.60    5.50
   7  -6   6    2.20    5.60
   7  -6   6    0.10    6.00
   7  -6   6    0.70    6.50
  -7   6  -6    3.00    5.00
  -8  -7   6   12.20    6.40
   8  -7  -6   23.30    5.80
  -8  -7   6   26.00    7.60
   8  -7  -6   23.60    4.70
  -8   7   6   24.90    7.00
  -8   7   6   29.50    7.40
  -7  -7   6   74.29    8.60
   7  -7  -6   89.99    9.20
   7  -7  -6   84.99    8.80
  -7  -7   6   72.09    8.20
   7  -7  -6   78.09    7.70
  -7  -7   6   56.99    6.50
  -7   7   6   94.79   10.30
  -7   7   6   78.69    8.70
  -6  -7   6    7.00    5.50
  -6  -7   6    0.40    4.20
   6  -7  -6    7.70    7.20
   6  -7  -6   -4.10    4.80
  -6   7   6    1.00    4.70
   5  -7  -6  203.88   12.00
  -5  -7   6  224.18   11.00
  -5  -7   6  205.58    9.20
   5  -7  -6  203.88   11.10
  -5   7   6  227.78   10.80
  -5   7   6  213.88    9.90
   4  -7  -6   -2.50    5.70
  -4  -7   6   -1.40    4.50
  -4  -7   6   -1.40    4.40
   4  -7  -6    2.00    3.90
  -4   7   6   -2.10    4.20
  -4   7   6    3.80    3.60
  -3  -7   6  275.67   10.00
   3  -7  -6  279.87   12.50
  -3  -7   6  269.87   12.10
  -3   7   6  275.27   10.60
  -3   7   6  275.07   11.50
   2  -7  -6  211.68   11.10
  -2  -7   6  203.58    9.40
  -2  -7   6  210.38   10.60
  -2   7   6  212.48    8.20
   2   7  -6  201.38   10.20
  -2   7   6  205.78    9.20
  -1  -7   6   84.89    7.70
   1  -7  -6   88.99    9.00
  -1  -7   6   93.79    8.60
  -1   7   6   85.49    7.30
   1   7  -6  106.99    9.00
  -1   7   6   92.59    6.00
   0  -7   6  444.56   14.20
   0  -7  -6  437.26   15.50
   0  -7   6  443.06   15.90
   0   7   6  420.96   12.10
   0   7   6  464.35   14.50
   0   7  -6  443.36   16.00
  -1  -7  -6  505.75   16.70
   1  -7   6  502.65   15.10
   1  -7   6  481.85   16.40
  -1   7  -6  497.35   17.60
   1   7   6  504.95   12.80
   1   7   6  530.25   15.40
  -2  -7  -6   24.60    4.60
   2  -7   6   16.30    4.80
   2  -7   6   13.40    5.10
  -2  -7  -6   28.50    5.00
  -2   7  -6   17.70    4.20
   2   7   6   21.90    2.00
   2   7   6   23.20    2.40
   2   7   6   23.80    4.30
  -2   7  -6   31.90    6.20
   3  -7   6  120.49    9.90
  -3  -7  -6  125.89    9.60
  -3  -7  -6   95.79    8.30
   3  -7   6  108.99    7.90
  -3   7  -6   93.99    8.80
   3   7   6  107.09    7.80
  -3   7  -6  104.79    7.50
   4  -7   6   23.70    6.10
  -4  -7  -6   29.00    5.60
  -4  -7  -6   26.80    6.20
  -4   7  -6   25.30    5.20
  -5  -7  -6    7.90    4.90
   5  -7   6   -4.60    5.60
  -5   7  -6    7.00    4.20
   6  -7   6   85.09    9.30
   6  -7   6   71.59   12.30
   6  -7   6   69.59    8.60
  -6   7  -6   68.69    7.80
   7  -7   6  160.58   15.60
  -7   7  -6  147.29   11.90
   7  -8  -6   49.80    6.30
  -7  -8   6   49.30    6.60
  -7  -8   6   44.00    6.60
   7  -8  -6   42.70    7.30
  -7   8   6   37.60    6.90
  -7   8   6   30.30    8.30
  -6  -8   6   -2.60    5.20
   6  -8  -6   -4.40    5.90
   6  -8  -6    2.30    6.90
  -6  -8   6   -1.00    5.40
  -6   8   6   -1.20    4.80
  -6   8   6    6.20    6.80
   5  -8  -6    9.80    6.40
   5  -8  -6    9.30    6.00
  -5  -8   6    7.20    5.40
  -5  -8   6    8.30    5.10
  -5   8   6   18.30    5.30
  -5   8   6    5.60    5.90
   4  -8  -6  370.16   15.00
  -4  -8   6  383.76   14.80
   4  -8  -6  385.26   15.10
  -4  -8   6  369.56   12.60
  -4   8   6  395.86   15.20
  -4   8   6  395.86   13.70
   3  -8  -6   59.09    6.20
  -3  -8   6   63.79    6.10
   3  -8  -6   55.29    6.40
  -3  -8   6   68.79    7.10
  -3   8   6   73.89    7.10
  -3   8   6   57.49    7.40
   2  -8  -6  289.27   13.30
  -2  -8   6  298.07   11.00
  -2  -8   6  304.97   13.40
  -2   8   6  307.57   12.40
  -2   8   6  293.27   10.80
   2   8  -6  316.57   12.80
   1  -8  -6    7.90    5.50
  -1  -8   6   14.10    5.00
  -1  -8   6   11.10    4.50
   1   8  -6   10.20    5.90
  -1   8   6   10.10    3.90
  -1   8   6    9.00    4.50
   0  -8   6 1796.82   41.60
   0  -8  -6 1730.13   43.10
   0  -8   6 1759.32   43.80
   0   8  -6 1855.71   43.90
   0   8   6 1842.22   42.60
   0   8   6 1804.72   40.00
  -1  -8  -6    6.50    4.10
   1  -8   6    3.60    4.10
   1  -8   6    0.00    5.50
  -1   8  -6    3.70    5.70
   1   8   6    0.30    2.30
   1   8   6    5.30    3.70
   2  -8   6  148.89    8.50
   2  -8   6  154.48   12.70
   2   8   6  150.88    4.40
   2   8   6  164.98    8.70
  -2   8  -6  140.79   11.00
   2   8   6  150.28    4.90
  -3  -8  -6    9.60    5.90
   3  -8   6   -0.70    6.70
  -3   8  -6    1.20    4.00
   4  -8   6  120.29   12.00
  -4  -8  -6   94.49   10.20
  -4   8  -6  132.89    8.60
   5  -8   6   -1.40    7.50
  -5   8  -6  -16.70    5.40
   6  -8   6   25.80    8.10
   6  -8   6    5.30    6.70
  -6   8  -6   14.80    5.50
   6  -9  -6  127.89   14.10
   6  -9  -6  104.89   12.40
  -6  -9   6  139.49   10.30
  -6  -9   6  138.49   11.90
  -6   9   6  158.78   12.70
  -6   9   6  143.39   11.40
  -5  -9   6   21.50    6.80
  -5  -9   6   33.50    5.90
   5  -9  -6   31.70    8.20
  -5   9   6   20.20    6.60
  -5   9   6   25.80    7.10
  -4  -9   6    4.30    5.10
  -4  -9   6    7.00    6.40
   4  -9  -6   -2.50    6.90
  -4   9   6    1.70    5.40
  -4   9   6   -5.00    4.80
  -3  -9   6   38.00    6.70
  -3  -9   6   25.90    5.70
   3  -9  -6   27.10    7.50
  -3   9   6   26.10    5.50
  -3   9   6   34.90    5.50
  -2  -9   6   42.50    6.40
  -2  -9   6   45.20    5.80
   2  -9  -6   48.20    7.90
   2   9  -6   48.20    7.10
  -2   9   6   39.10    6.60
  -2   9   6   34.10    4.80
  -1  -9   6   20.30    5.70
   1   9  -6   34.00    7.20
  -1   9   6   30.70    4.40
  -1   9   6   32.10    6.30
   0  -9   6  368.16   16.20
   0  -9   6  351.36   13.60
   0   9   6  375.66   10.90
   0   9  -6  360.96   15.70
   1  -9   6  249.28   14.30
   1   9   6  243.68    7.30
   1   9   6  259.87   11.40
   2  -9   6    0.10    7.20
  -2   9  -6    7.70    4.30
   3  -9   6   11.70    7.50
  -3  -9  -6   14.00    5.90
  -3   9  -6   10.80    6.10
   4  -9   6   33.80    7.60
  -4   9  -6   49.70    7.20
   5  -9   6   -4.00    8.20
  -5   9  -6    5.40    7.10
   5 -10  -6  302.97   17.40
  -5 -10   6  336.47   17.30
  -5  10   6  326.07   16.80
  -5  10   6  309.37   15.10
   4 -10  -6    4.80    8.40
  -4 -10   6    4.40    6.40
  -4  10   6   -3.00    5.90
  -4  10   6   12.80    6.20
  -3 -10   6  174.58   11.80
   3 -10  -6  170.08   12.40
  -3 -10   6  165.28   14.20
  -3  10   6  173.08    9.80
  -3  10   6  168.38   11.40
   2 -10  -6   -6.90    7.20
  -2 -10   6   -2.10    6.10
  -2  10   6    3.60    4.30
  -2  10   6    3.50    6.40
  -1 -10   6  197.18   14.30
   1 -10  -6  175.28   12.20
   1  10  -6  214.58   13.10
  -1  10   6  192.38   12.40
  -1  10   6  189.98    8.40
   0 -10   6    1.40    7.70
   0  10   6    1.60    3.10
   1 -10   6   25.10    8.40
   1  10   6   13.70    2.40
   2 -10   6   45.40    9.60
  -2  10  -6   35.80    6.10
   3 -10   6   92.99   11.40
  -3  10  -6   89.19    8.50
   4 -10   6   -5.90    9.20
  -4  10  -6   -1.20    5.80
   3 -11  -6   14.30    9.60
  -3 -11   6   43.60   10.00
  -3  11   6   29.00    6.70
   2 -11  -6  121.49   12.40
  -2 -11   6  118.89   12.20
  -2  11   6  110.69    8.50
  -1 -11   6   92.79   10.10
   1 -11  -6   72.09    9.60
  -1  11   6   85.99    7.60
   0 -11  -6  101.39   11.20
   0 -11   6   96.29   11.70
   0  11   6   96.19    6.00
   1 -11   6   94.39   10.30
   2 -11   6   -9.90   10.10
  -2  11  -6   -4.30    6.00
  -9   0   7  315.67   12.40
  -8   0   7   -2.70    3.60
  -7   0   7  669.23   18.30
  -6   0   7    1.50    3.30
   5   0  -7    3.80    3.30
  -5   0   7    4.00    3.30
  -4   0   7   -2.20    3.10
   4   0  -7    1.70    3.60
  -3   0   7  114.09    6.70
   2   0  -7    0.20    4.20
  -2   0   7    0.50    2.50
  -1   0   7 5493.05  120.09
   1   0  -7 5726.03  120.39
   0   0  -7   12.80    4.30
   0   0   7   16.10    3.10
   0   0   7    3.70    2.60
   1   0   7 2568.34   55.29
   1   0   7 2475.85   54.09
   1   0   7 2453.55   56.29
  -1   0  -7 2607.44   57.29
   2   0   7   -0.30    2.50
   2   0   7   -3.20    1.80
   2   0   7   -0.30    2.70
  -2   0  -7   -1.40    4.20
  -3   0  -7  111.09    7.90
   3   0   7  111.59    5.90
   3   0   7  110.09    6.50
   3   0   7  118.19    6.20
   4   0   7    2.40    3.70
   4   0   7   -0.20    3.30
   4   0   7   -3.20    2.50
  -4   0  -7    9.80    4.20
   5   0   7  167.58    8.70
  -5   0  -7  169.78    9.80
   5   0   7  169.08    8.00
   5   0   7  164.08    8.90
   6   0   7    2.80    4.70
  -6   0  -7   -2.40    5.80
   6   0   7    1.40    3.70
   6   0   7    1.20    4.80
  -7   0  -7    6.40    3.80
   7   0   7    6.20    2.70
   7   0   7    5.80    5.90
   7   0   7    8.20    5.30
  -8   0  -7    1.50    4.20
   8   0   7   -3.90    7.20
   8   0   7    2.10    6.80
  -9  -1   7   93.09    8.60
  -9   1   7  102.59    8.30
  -8  -1   7  166.28    9.20
  -8   1   7  168.58    9.60
  -7  -1   7  935.21   23.90
  -7   1   7  942.41   24.10
   6  -1  -7  376.86   10.30
   6  -1  -7  385.46    9.90
  -6  -1   7  396.26   12.50
  -6   1   7  374.76   12.50
   5  -1  -7  228.98    8.60
  -5  -1   7  225.88    9.20
   5   1  -7  216.88    7.90
  -5   1   7  211.38    9.10
  -4  -1   7 1137.79   27.80
   4  -1  -7 1140.09   27.40
  -4   1   7 1119.59   27.50
   4   1  -7 1139.69   26.90
   3  -1  -7  107.99    7.30
  -3  -1   7  103.39    6.70
  -3   1   7  113.69    6.80
   3   1  -7  115.99    7.00
   2  -1  -7  496.65   14.80
  -2  -1   7  479.75   14.20
  -2   1   7  482.95   14.40
   2   1  -7  501.05   14.70
   1  -1  -7  766.62   22.10
  -1  -1   7  764.82   20.50
  -1  -1   7  765.42   16.90
  -1  -1   7  815.82   19.60
   1   1  -7  817.62   21.20
  -1   1   7  780.92   20.30
   0  -1  -7   15.60    4.20
   0  -1   7   15.50    1.70
   0  -1   7   16.50    3.10
   0  -1   7   22.50    4.10
   0   1   7   16.10    3.30
   0   1   7   21.90    6.30
   0   1  -7   21.50    4.80
  -1  -1  -7  666.73   18.70
   1  -1   7  642.64   15.90
   1  -1   7  656.43   18.50
   1  -1   7  748.03   20.10
   1   1   7  647.84   18.00
  -1   1  -7  671.53   19.30
   1   1   7  674.63   16.60
  -2  -1  -7  538.35   16.10
   2  -1   7  540.75   14.30
   2  -1   7  524.95   14.00
   2  -1   7  532.65   15.60
   2   1   7  521.65   15.10
   2   1   7  537.25   14.00
  -2   1  -7  530.75   16.20
  -3  -1  -7  133.79    9.40
   3  -1   7  133.59    7.50
   3  -1   7  137.19    7.30
   3  -1   7  131.39    6.50
  -3   1  -7  144.89    9.70
   3   1   7  138.59    6.60
   3   1   7  121.39    7.00
  -4  -1  -7  210.68   10.90
   4  -1   7  199.78    9.10
   4  -1   7  184.28    8.90
   4  -1   7  187.78    8.60
  -4   1  -7  192.38   11.10
   4   1   7  183.58    7.70
   4   1   7  189.98    8.10
   4   1   7  187.48    8.50
   5  -1   7  317.07   11.70
   5  -1   7  309.87   11.80
  -5  -1  -7  321.77   13.60
   5  -1   7  318.57   11.20
   5   1   7  308.87   10.20
   5   1   7  308.57   11.40
   5   1   7  325.77   11.40
  -5   1  -7  298.67   13.60
   6  -1   7  149.09    8.70
   6  -1   7  144.29    7.60
   6  -1   7  152.68    9.70
  -6  -1  -7  147.39   10.90
   6   1   7  144.99    6.40
   6   1   7  140.39    8.50
  -6   1  -7  125.79    6.80
  -6   1  -7  123.79    9.20
   7  -1   7  361.66   13.90
   7  -1   7  361.56   10.60
   7  -1   7  356.46   15.30
  -7   1  -7  356.26   11.90
   7   1   7  348.57   13.70
   7   1   7  340.47    8.60
   8  -1   7   93.99   11.00
   8  -1   7   90.19    8.20
   8   1   7   79.89    8.70
  -9  -2   7   -0.80    5.00
  -9   2   7    6.50    4.60
  -9   2   7   -0.40    7.80
  -8  -2   7  153.28    9.10
  -8   2   7  165.38    9.10
  -7  -2   7   11.80    4.50
  -7   2   7   17.70    4.40
   6  -2  -7   56.29    4.70
  -6  -2   7   52.69    6.20
  -6  -2   7   56.69    4.60
   6  -2  -7   60.49    5.90
  -6   2   7   56.19    6.40
  -5  -2   7   38.20    4.50
   5  -2  -7   38.80    4.80
  -5  -2   7   35.40    3.60
  -5   2   7   38.50    4.30
   5   2  -7   36.00    4.20
  -4  -2   7  486.65   11.30
  -4  -2   7  497.55   14.90
  -4   2   7  479.25   14.40
   4   2  -7  506.15   13.90
   3  -2  -7   59.99    6.50
  -3  -2   7   58.99    2.50
  -3  -2   7   57.89    6.10
   3   2  -7   64.49    6.10
  -3   2   7   61.99    5.30
   2  -2  -7  182.98    9.30
  -2  -2   7  189.98    8.60
  -2   2   7  187.58    8.30
   2   2  -7  181.08    8.70
   1  -2  -7    0.20    3.30
  -1  -2   7   -2.20    1.10
  -1  -2   7    4.80    2.80
  -1  -2   7   -1.40    3.30
  -1   2   7   -0.60    2.50
   1   2  -7    2.10    4.10
   0  -2   7 2986.40   63.29
   0  -2   7 2842.92   61.89
   0  -2  -7 2980.90   64.89
   0  -2   7 2824.12   64.49
   0   2  -7 2932.01   64.79
   0   2   7 2868.71   64.19
   1  -2   7    9.10    3.90
   1  -2   7    6.60    2.90
  -1  -2  -7    8.60    3.60
   1  -2   7    3.50    1.90
  -1   2  -7    4.60    4.40
   1   2   7    5.90    3.30
   1   2   7    4.70    3.20
   2  -2   7  429.66   12.40
  -2  -2  -7  409.96   13.80
   2  -2   7  440.26   12.30
  -2  -2  -7  420.96   11.90
   2  -2   7  432.46   13.80
  -2   2  -7  422.46   14.80
   2   2   7  425.36   13.00
   3  -2   7  140.79    7.10
   3  -2   7  140.49    7.40
   3  -2   7  135.59    7.10
  -3  -2  -7  138.39    7.30
  -3  -2  -7  148.09    8.60
  -3   2  -7  147.39   10.20
   3   2   7  135.49    7.30
  -4  -2  -7  233.88   11.90
   4  -2   7  265.67   10.10
   4  -2   7  242.18    9.50
   4  -2   7  237.88    9.50
  -4  -2  -7  258.47   10.70
  -4   2  -7  244.18   12.30
   4   2   7  247.28    9.00
   4   2   7  218.18    9.50
   5  -2   7   77.39    6.60
  -5  -2  -7   63.99    7.10
   5  -2   7   66.39    6.30
   5  -2   7   69.29    6.60
   5   2   7   63.99    6.50
   5   2   7   78.69    6.10
  -5   2  -7   70.09    6.10
  -5   2  -7   77.99    7.60
   6  -2   7  278.37   12.60
   6  -2   7  281.07   11.30
  -6  -2  -7  278.07   13.50
   6  -2   7  274.37   10.20
  -6   2  -7  290.07   10.80
   6   2   7  284.27    9.00
   6   2   7  283.67   10.90
   7  -2   7  121.99    7.50
   7  -2   7  132.29   11.30
   7  -2   7  106.79    9.80
   7   2   7  129.49    9.00
   8  -2   7    4.20    8.10
  -8   2  -7   -2.60    5.30
  -9  -3   7   96.39    8.90
  -9   3   7   92.89    9.10
  -9   3   7   95.89    9.80
  -8  -3   7   52.19    5.90
  -8  -3   7   53.29    6.20
  -8   3   7   48.60    7.60
  -8   3   7   52.39    5.90
  -7  -3   7  153.78    8.60
   7  -3  -7  143.39    5.70
  -7  -3   7  152.98    8.20
   7  -3  -7  151.48    5.00
  -7   3   7  160.78    8.90
   6  -3  -7  144.79    8.30
  -6  -3   7  140.19    7.90
   6  -3  -7  125.19    6.80
  -6  -3   7  144.99    7.10
  -6   3   7  127.29    8.00
  -5  -3   7  120.19    8.20
  -5  -3   7  124.99    5.60
  -5   3   7  120.49    7.70
   5   3  -7  118.59    5.30
  -4  -3   7  218.38    9.40
  -4  -3   7  212.58    6.70
   4  -3  -7  204.48    9.60
   4   3  -7  215.58    8.40
  -4   3   7  200.88    8.60
  -3  -3   7  217.48    9.40
   3  -3  -7  223.48   10.00
  -3   3   7  207.08    8.70
   3   3  -7  212.68    9.00
  -2  -3   7   50.39    5.00
   2  -3  -7   52.59    5.80
  -2  -3   7   46.90    5.20
  -2   3   7   48.60    5.60
  -1  -3   7    4.90    3.10
   1  -3  -7   13.60    4.40
   1  -3  -7   10.50    1.50
  -1  -3   7   11.60    3.20
  -1   3   7    9.20    3.00
   1   3  -7    8.10    4.30
   0  -3   7  302.87   11.70
   0  -3  -7  307.67    8.50
   0  -3   7  304.67   10.40
   0  -3  -7  314.47   11.70
   0   3  -7  291.77   11.60
   0   3   7  337.17   11.20
  -1  -3  -7  323.37    9.70
   1  -3   7  325.27   11.00
  -1  -3  -7  341.87   12.90
   1  -3   7  332.27   10.00
   1  -3   7  331.97   11.70
   1   3   7  350.16   11.40
   1   3   7  340.57   10.10
  -1   3  -7  331.27   13.20
   2  -3   7  158.08    7.50
  -2  -3  -7  170.28    7.70
  -2  -3  -7  174.18   10.00
   2  -3   7  174.78    8.30
   2  -3   7  179.78    7.30
   2   3   7  168.28    8.00
   2   3   7  175.58    6.60
  -2   3  -7  174.38    9.60
  -3  -3  -7  936.41   23.10
   3  -3   7  928.01   23.00
  -3  -3  -7  885.71   24.30
   3  -3   7  881.61   22.80
   3  -3   7  900.61   23.90
   3   3   7  888.41   21.00
   3   3   7  895.11   22.60
  -3   3  -7  871.31   24.50
   4  -3   7  759.42   20.70
  -4  -3  -7  722.43   21.90
   4  -3   7  757.62   20.60
  -4  -3  -7  783.32   20.80
   4  -3   7  739.83   20.70
  -4   3  -7  766.52   19.80
   4   3   7  795.52   18.60
   4   3   7  741.83   19.30
  -4   3  -7  749.53   22.50
   5  -3   7  474.35   15.20
  -5  -3  -7  464.75   15.50
  -5  -3  -7  465.95   16.50
   5  -3   7  492.15   15.80
   5  -3   7  472.25   15.00
  -5   3  -7  469.45   14.40
   5   3   7  490.95   13.50
   5   3   7  487.85   13.10
  -5   3  -7  447.26   16.90
  -6  -3  -7   87.09    9.90
  -6  -3  -7   96.89    9.70
   6  -3   7   73.49    7.90
   6  -3   7   67.99    7.40
   6  -3   7   69.69    6.80
  -6   3  -7   73.39    7.30
   6   3   7   81.49    6.40
   6   3   7   80.99    4.80
   7  -3   7   -6.20    4.20
   7  -3   7   -5.20    5.50
  -7   3  -7    4.30    5.30
   8  -3   7   91.99   10.70
  -8   3  -7   91.79    8.50
   9  -4  -7    6.40    3.70
  -9  -4   7   15.20    5.50
  -9   4   7   13.40    8.60
   8  -4  -7   12.10    3.50
  -8  -4   7    3.60    5.20
  -8  -4   7   18.40    5.40
  -8   4   7   11.20    6.10
  -8   4   7   14.00    5.20
  -7  -4   7  363.06   13.30
   7  -4  -7  361.76   11.30
   7  -4  -7  355.06   10.00
   7  -4  -7  355.56   10.70
  -7   4   7  346.87   12.70
  -7   4   7  331.87   13.80
   6  -4  -7   27.90    4.70
  -6  -4   7   33.30    4.40
  -6  -4   7   37.30    5.50
   6  -4  -7   32.30    3.20
  -6   4   7   34.40    5.00
  -5  -4   7   81.69    5.80
   5  -4  -7   80.19    3.30
  -5  -4   7   75.39    7.20
   5  -4  -7   80.69    6.90
   5  -4  -7   94.09    7.90
   5   4  -7   84.59    4.30
  -5   4   7   88.59    7.30
   4  -4  -7  109.99    8.60
  -4  -4   7  109.89    7.90
  -4   4   7  154.68    8.10
   4   4  -7  125.49    6.90
  -3  -4   7   -4.70    3.70
  -3  -4   7    0.60    3.20
   3  -4  -7    0.50    4.60
  -3   4   7    2.20    3.60
   3   4  -7    8.00    4.40
   2  -4  -7   -0.40    1.60
  -2  -4   7    3.80    3.30
  -2  -4   7    1.00    3.10
   2  -4  -7   -6.40    4.40
  -2   4   7   -1.30    2.70
   2   4  -7   -3.90    4.00
   1  -4  -7  261.47   11.50
   1  -4  -7  264.17    7.40
  -1  -4   7  251.17    9.70
  -1  -4   7  270.27   10.50
   1   4  -7  261.57   11.30
  -1   4   7  254.27   10.00
   0  -4  -7   17.10    2.90
   0  -4  -7   18.90    5.00
   0  -4   7   17.90    3.80
   0  -4   7   19.90    3.70
   0   4   7   12.50    3.30
   0   4  -7   11.40    4.50
  -1  -4  -7  848.52   20.20
  -1  -4  -7  825.02   22.40
   1  -4   7  808.72   22.30
   1  -4   7  828.32   21.20
  -1   4  -7  850.01   23.30
   1   4   7  804.32   21.20
  -2  -4  -7  145.09    9.70
   2  -4   7  137.49    8.70
  -2  -4  -7  154.58    7.50
   2  -4   7  145.39    7.70
   2   4   7  157.18    7.10
  -2   4  -7  164.08   10.70
   2   4   7  150.08    6.00
   3  -4   7   18.30    4.70
   3  -4   7   13.90    4.10
   3  -4   7   13.00    4.10
  -3  -4  -7   21.30    4.40
  -3  -4  -7   22.60    5.50
  -3   4  -7    5.80    4.80
  -3   4  -7    9.50    3.20
   3   4   7    9.80    3.70
   3   4   7    6.40    2.90
   4  -4   7   14.40    5.00
  -4  -4  -7    9.80    5.10
   4  -4   7   14.40    4.00
  -4  -4  -7   12.10    4.70
   4  -4   7   13.70    5.00
   4   4   7   14.70    3.10
  -4   4  -7   18.00    5.30
   4   4   7   14.70    3.60
  -4   4  -7   17.10    4.10
   5  -4   7  103.99    8.20
  -5  -4  -7   81.99    7.70
   5  -4   7   73.09    7.50
  -5  -4  -7   94.19    8.10
   5  -4   7   83.39    8.50
   5   4   7   75.69    5.70
  -5   4  -7   77.79    6.20
   5   4   7   87.89    6.70
   6  -4   7  164.68    9.50
  -6  -4  -7  164.88   11.50
   6  -4   7  167.48   10.60
   6   4   7  171.78    7.20
   6   4   7  173.08    6.20
  -6   4  -7  160.88    8.90
   7  -4   7  328.97   14.80
   7  -4   7  327.07   12.20
  -7   4  -7  301.57   13.20
   7   4   7  308.07   11.00
   8  -5  -7  127.39    7.50
  -8  -5   7  111.99   10.20
  -8  -5   7  109.39   11.60
  -8   5   7   99.89   10.50
  -8   5   7  100.19   10.10
   7  -5  -7   13.40    4.70
  -7  -5   7   -0.40    5.20
  -7  -5   7    0.70    5.90
   7  -5  -7    6.00    4.80
   7  -5  -7    8.00    2.90
  -7   5   7   13.90    5.50
  -7   5   7   12.00    4.80
  -6  -5   7   23.80    5.50
   6  -5  -7   30.00    3.10
   6  -5  -7   16.10    6.20
   6  -5  -7   20.90    4.80
  -6  -5   7   21.40    6.10
  -6   5   7   24.40    5.00
  -6   5   7   24.40    5.30
  -5  -5   7  170.18    8.40
   5  -5  -7  142.69   10.90
   5  -5  -7  157.18    9.30
   5  -5  -7  155.58    5.60
  -5  -5   7  163.78    9.40
  -5   5   7  164.78    9.30
  -4  -5   7   47.10    5.00
   4  -5  -7   47.10    6.40
  -4  -5   7   46.50    5.20
  -4   5   7   47.00    4.90
   4   5  -7   42.80    4.90
  -3  -5   7 1006.50   25.20
   3  -5  -7 1003.00   26.90
  -3  -5   7 1057.09   27.10
  -3   5   7 1058.19   26.60
   2  -5  -7    9.00    5.30
  -2  -5   7    4.20    3.30
  -2  -5   7    7.20    3.80
  -2   5   7   34.80    4.70
   2   5  -7    9.40    4.60
  -1  -5   7  361.26   13.50
  -1  -5   7  357.26   11.90
   1  -5  -7  348.47    9.80
   1  -5  -7  366.76   13.80
   1   5  -7  342.27   13.50
  -1   5   7  338.37   11.70
   0  -5  -7    9.60    3.10
   0  -5   7   10.00    3.70
   0  -5  -7    4.50    5.30
   0  -5   7   10.80    4.00
   0   5  -7    1.80    5.40
   0   5   7    7.60    3.50
  -1  -5  -7   15.80    3.80
   1  -5   7   12.80    3.80
  -1  -5  -7   12.50    5.40
   1  -5   7   10.10    5.00
   1   5   7   16.00    4.30
  -1   5  -7   24.30    5.10
   2  -5   7  186.58    8.90
  -2  -5  -7  199.08   10.30
  -2  -5  -7  184.58   10.90
   2  -5   7  188.78   10.30
   2   5   7  187.08    6.80
   2   5   7  182.88    8.70
  -2   5  -7  187.98   11.60
   3  -5   7  284.97   11.80
  -3  -5  -7  293.57   11.70
   3  -5   7  279.47   11.80
  -3  -5  -7  284.67   12.90
   3   5   7  298.17   10.70
  -3   5  -7  297.07   10.40
  -3   5  -7  289.27   13.80
   3   5   7  301.07    8.50
  -4  -5  -7   99.19   10.10
   4  -5   7  110.29    8.90
   4  -5   7  109.79    8.60
  -4  -5  -7  114.09    9.70
   4  -5   7  103.99    9.30
   4   5   7  106.89    5.30
  -4   5  -7  108.89    7.80
   4   5   7  105.39    6.70
  -5  -5  -7  473.35   16.60
   5  -5   7  509.55   17.00
   5  -5   7  536.05   17.50
   5   5   7  507.05   12.40
  -5   5  -7  527.25   15.70
   5   5   7  523.05   14.50
   6  -5   7  273.07   13.00
   6  -5   7  259.07   12.80
  -6   5  -7  256.67   11.30
   7  -5   7   57.29    8.40
   7  -5   7   74.69    8.40
  -7   5  -7   62.79    6.80
  -8  -6   7   -2.20    7.50
   8  -6  -7    3.80    4.30
   8  -6  -7   -2.80    3.40
  -8  -6   7   14.80    6.50
  -8   6   7   -5.50    6.40
  -8   6   7    0.90    8.00
   7  -6  -7   22.30    4.30
  -7  -6   7   25.90    6.50
  -7  -6   7   25.60    6.50
   7  -6  -7   19.50    5.50
  -7   6   7   20.50    6.20
  -7   6   7   25.30    7.70
   6  -6  -7  403.46   11.90
   6  -6  -7  399.36   14.80
   6  -6  -7  392.26   14.10
  -6  -6   7  396.46   14.70
  -6  -6   7  382.06   13.00
  -6  -6   7  398.96   14.10
  -6   6   7  383.76   15.30
   5  -6  -7   95.29    8.60
   5  -6  -7   85.09   10.10
  -5  -6   7   91.59    8.30
  -5  -6   7   87.69    8.90
  -5   6   7   97.49    8.50
  -5   6   7   85.49    8.50
  -4  -6   7   73.69    8.10
  -4  -6   7   73.69    8.30
   4  -6  -7   84.59    9.90
  -4   6   7   98.39    8.30
   4   6  -7   95.09    6.90
  -4   6   7   94.09    7.30
  -3  -6   7   -1.00    4.60
  -3  -6   7   -8.50    4.60
   3  -6  -7   -0.60    5.60
  -3   6   7    7.30    3.70
   3   6  -7    3.20    5.10
   2  -6  -7   15.20    4.70
  -2  -6   7   17.80    4.00
  -2  -6   7   12.90    4.30
   2   6  -7   17.70    5.30
  -2   6   7   11.50    3.80
  -1  -6   7   -1.50    4.60
   1  -6  -7   11.80    5.50
  -1  -6   7    2.00    3.80
   1   6  -7    8.50    5.70
  -1   6   7   11.30    4.30
   0  -6   7 4061.19   86.99
   0  -6  -7 4093.59   88.69
   0  -6  -7 4004.40   85.69
   0  -6   7 3990.60   88.99
   0   6   7 3918.01   87.49
   0   6  -7 3961.30   88.59
   1  -6   7   42.80    6.40
  -1  -6  -7   37.50    6.10
  -1  -6  -7   47.10    4.70
   1  -6   7   59.59    6.50
  -1   6  -7   38.20    6.80
   1   6   7   43.60    5.00
   2  -6   7  334.57   12.80
   2  -6   7  343.27   14.00
  -2  -6  -7  336.07   12.30
  -2  -6  -7  344.77   14.00
  -2   6  -7  322.87   13.70
   2   6   7  355.06   12.10
   2   6   7  353.56    9.70
   3  -6   7   64.09    6.90
   3  -6   7   57.19    6.30
  -3  -6  -7   49.80    6.50
  -3  -6  -7   61.39    6.60
   3   6   7   54.49    5.30
   3   6   7   60.19    4.00
  -4  -6  -7  125.99   10.70
   4  -6   7   92.69    9.30
   4  -6   7  114.69    9.00
  -4   6  -7  113.09    7.70
   4   6   7  118.49    7.20
   4   6   7  113.09    4.30
   5  -6   7  135.79   15.40
   5  -6   7  149.39   10.50
  -5  -6  -7  138.29    9.80
   5   6   7  133.49    7.20
  -5   6  -7  138.09   10.00
   6  -6   7  234.68   14.90
  -6   6  -7  242.38   12.80
   7  -7  -7   10.30    4.80
   7  -7  -7   -5.60    6.10
  -7  -7   7    1.00    6.50
  -7  -7   7    5.60    6.90
  -7   7   7   10.60    7.70
  -7   7   7    7.10    6.90
  -6  -7   7   15.70    5.70
  -6  -7   7    1.50    6.20
   6  -7  -7   11.00    6.20
   6  -7  -7   14.70    5.90
   6  -7  -7   11.50    4.20
  -6   7   7   12.90    5.70
  -6   7   7   10.00    5.30
  -5  -7   7   50.89    6.10
   5  -7  -7   35.40    6.60
   5  -7  -7   46.70    7.30
  -5  -7   7   42.80    6.60
  -5   7   7   49.90    6.80
  -5   7   7   45.70    7.00
  -4  -7   7    6.00    5.40
   4  -7  -7    3.40    5.60
   4  -7  -7   14.00    6.10
  -4  -7   7    8.70    4.10
  -4   7   7   12.00    6.80
  -4   7   7    7.50    5.10
   4   7  -7    9.10    4.40
  -3  -7   7  518.15   17.60
   3  -7  -7  492.35   17.20
  -3  -7   7  472.15   14.60
  -3   7   7  499.85   15.40
   3   7  -7  499.55   15.70
  -3   7   7  480.75   17.80
  -2  -7   7  169.38    9.90
   2  -7  -7  167.38   11.10
  -2  -7   7  176.88    8.60
  -2   7   7  159.48    8.90
   2   7  -7  179.48   11.20
  -2   7   7  177.98    8.70
  -1  -7   7    9.60    4.60
  -1  -7   7    3.70    4.30
   1  -7  -7    0.90    5.30
   1   7  -7    5.20    6.00
  -1   7   7    7.70    4.30
  -1   7   7   -1.80    3.50
   0  -7   7   28.70    5.30
   0  -7   7   25.00    5.70
   0  -7  -7   34.90    6.10
   0   7   7   30.90    4.00
   0   7   7   31.90    5.60
   0   7  -7   32.80    6.60
   1  -7   7  -11.70    4.70
  -1  -7  -7    4.40    4.80
   1  -7   7    2.20    5.50
  -1   7  -7    6.20    4.90
   1   7   7   -0.60    4.30
   1   7   7   -1.40    2.80
  -2  -7  -7   29.70    5.70
   2   7   7   24.30    3.00
   2   7   7   26.90    2.70
   2   7   7   24.40    4.90
   3  -7   7  156.38   11.90
  -3  -7  -7  165.38   11.00
  -3   7  -7  169.58    9.90
   3   7   7  165.68    9.00
   3   7   7  176.28    5.20
  -4  -7  -7  187.68   11.60
   4  -7   7  173.98   12.80
   4   7   7  182.38    9.30
  -4   7  -7  171.28    9.60
   5  -7   7  347.37   15.10
   5  -7   7  320.67   16.00
  -5   7  -7  319.07   14.20
   6  -7   7   48.80    8.50
   6  -7   7   47.70    9.70
  -6   7  -7   53.29    7.00
   6  -8  -7   -0.80    6.70
   6  -8  -7    0.50    8.10
  -6  -8   7    5.90    6.80
  -6   8   7   14.00    7.50
  -6   8   7    8.70    6.10
  -5  -8   7    9.00    6.50
   5  -8  -7   -5.60    6.90
   5  -8  -7   13.40    6.40
  -5   8   7    3.30    5.30
  -5   8   7    7.90    5.30
   4  -8  -7   27.00    6.20
  -4  -8   7   33.50    5.70
  -4  -8   7   22.10    6.50
  -4   8   7   27.90    5.70
  -3  -8   7   -4.70    5.80
   3  -8  -7   15.60    5.70
  -3  -8   7   17.10    4.60
  -3   8   7   20.90    6.10
  -3   8   7   13.40    5.30
   3   8  -7   11.30    6.40
  -2  -8   7   10.80    6.00
  -2  -8   7    9.60    4.30
   2   8  -7   12.00    6.40
  -2   8   7   10.30    4.30
  -2   8   7    5.40    4.40
  -1  -8   7  231.68    9.90
  -1   8   7  244.58    9.40
   1   8  -7  223.88   13.60
  -1   8   7  228.88   12.10
   0  -8   7   -0.80    6.30
   0   8   7   -1.60    3.60
   0   8  -7    7.90    6.30
   1  -8   7  306.57   15.20
   1   8   7  311.37    9.30
   1   8   7  302.17   12.60
  -2  -8  -7  -10.00    5.50
   2  -8   7   -7.90    6.40
   2   8   7    4.60    2.00
   2   8   7    2.10    4.80
   2   8   7   -0.20    2.50
  -3  -8  -7    3.90    4.50
   3  -8   7   -6.70    7.30
   3   8   7    7.90    4.90
  -3   8  -7    5.70    4.90
   4  -8   7   33.50    8.70
  -4   8  -7   27.60    5.90
   5  -8   7   -0.40    8.50
  -5   8  -7    1.50    5.80
   5  -9  -7   20.50    8.70
  -5  -9   7   37.10    8.70
  -5   9   7   29.00    6.80
  -5   9   7   28.20    7.40
   4  -9  -7   35.40    8.80
  -4  -9   7   32.60    7.20
  -4   9   7   31.70    6.90
  -4   9   7   32.20    7.60
   3  -9  -7  148.29   13.20
  -3  -9   7  125.89   11.50
  -3   9   7  145.19   10.30
  -3   9   7  140.69    9.70
  -2  -9   7   -7.60    7.00
  -2   9   7   12.20    6.30
  -2   9   7    6.60    4.60
   2   9  -7   10.00    6.80
  -1  -9   7   46.00    7.40
   1   9  -7   38.80    7.50
  -1   9   7   50.49    5.50
  -1   9   7   43.60    7.50
   0  -9   7   80.79    9.80
   0   9   7   82.69    6.50
   0   9   7   67.79    6.80
   1  -9   7   69.29    8.30
   1   9   7   49.50    7.30
   1   9   7   62.59    4.40
  -2  -9  -7   45.80    6.80
   2  -9   7   34.50    8.80
   2   9   7   37.00    6.60
   2   9   7   24.10    2.20
   3  -9   7  175.48   15.60
  -3   9  -7  194.28   11.10
   4  -9   7   69.99   10.90
  -4   9  -7   54.29    8.70
  -3 -10   7   50.39   10.00
   3 -10  -7   46.00   10.00
  -3  10   7   35.20    8.50
   2 -10  -7   25.00    9.20
  -2 -10   7    8.10    8.80
  -2  10   7    4.10    7.50
   2  10  -7   14.40    8.00
  -2  10   7   18.00    6.10
  -1 -10   7    2.50    8.70
  -1  10   7    4.00    7.10
  -1  10   7    3.40    4.80
   0 -10   7  434.06   20.20
   0  10   7  433.46   12.40
   0  10   7  425.56   17.50
   1 -10   7    6.20    9.00
   1  10   7   -2.00    2.40
   1  10   7   10.30    5.90
   2 -10   7   71.99    9.50
  -9   0   8   -1.00    5.80
  -8   0   8  349.17   14.00
  -7   0   8   -4.30    4.40
  -6   0   8  109.49    8.20
   6   0  -8  102.39    4.90
   6   0  -8  101.29    6.10
  -5   0   8    0.80    3.90
   5   0  -8    4.00    4.40
   4   0  -8 2096.99   46.80
  -4   0   8 2006.30   47.20
  -3   0   8   -3.60    3.00
   3   0  -8    2.50    4.50
   2   0  -8  446.26   14.90
  -2   0   8  454.05   14.10
   1   0  -8    3.20    4.00
  -1   0   8    0.00    3.70
   0   0   8  453.25   13.50
   0   0  -8  448.06   15.80
   0   0   8  464.55   14.60
   1   0   8   -2.80    3.50
   1   0   8    6.20    3.00
  -1   0  -8   -4.50    5.00
   2   0   8  277.57   10.90
   2   0   8  291.57   10.20
   2   0   8  284.87    8.70
  -2   0  -8  257.57   11.90
   3   0   8   -6.40    3.80
   3   0   8   -2.20    3.40
   3   0   8   -4.00    3.70
  -3   0  -8   -1.50    5.10
   4   0   8   54.29    6.30
  -4   0  -8   43.60    7.00
   4   0   8   62.19    5.70
   4   0   8   52.89    5.50
   5   0   8   -0.90    4.20
   5   0   8   -1.50    4.00
   5   0   8   -8.00    4.90
   6   0   8  211.38    9.30
   6   0   8  194.98   11.30
   6   0   8  201.18   11.00
   7   0   8   -0.10    3.70
   7   0   8    0.90    6.90
   7   0   8    5.80    5.80
  -8  -1   8  166.58   10.50
  -8   1   8  163.38   10.10
  -7  -1   8 1594.64   38.20
  -7   1   8 1575.54   38.20
   6  -1  -8   61.49    6.10
  -6  -1   8   62.29    7.40
   6  -1  -8   67.19    5.60
  -6   1   8   74.89    6.40
  -5  -1   8  196.78    9.70
   5  -1  -8  202.58    9.70
   5   1  -8  210.78    9.00
  -5   1   8  200.68    9.00
   4  -1  -8   24.60    6.50
  -4  -1   8   20.70    4.20
  -4   1   8   23.50    4.40
   3  -1  -8   32.20    5.50
  -3  -1   8   22.70    4.20
   3   1  -8   36.10    5.70
  -3   1   8   35.50    4.90
  -2  -1   8   40.60    4.80
   2  -1  -8   50.99    6.00
   2   1  -8   46.20    5.80
  -2   1   8   37.10    4.30
  -1  -1   8  319.97   12.00
   1  -1  -8  315.27   12.10
  -1  -1   8  316.67   11.00
   1   1  -8  336.97   13.00
  -1   1   8  314.17   11.60
   0  -1   8   10.40    4.10
   0  -1   8    6.90    1.50
   0  -1   8    6.60    3.30
   0  -1  -8   14.80    5.30
   0   1   8    4.00    3.70
   0   1  -8    8.90    5.30
   0   1   8   12.60    3.20
  -1  -1  -8    6.50    5.30
   1  -1   8   -0.90    3.60
   1  -1   8    0.60    3.80
   1  -1   8    2.20    1.90
   1   1   8   -2.50    3.40
   1   1   8    2.10    3.40
  -1   1  -8   -5.90    4.20
   2  -1   8   71.49    5.90
   2  -1   8   70.79    6.90
  -2  -1  -8   62.89    7.20
   2  -1   8   71.89    5.20
   2   1   8   75.39    6.80
   2   1   8   62.59    6.20
  -2   1  -8   69.09    7.40
  -3  -1  -8    4.40    4.50
   3  -1   8   -5.70    4.00
   3  -1   8    1.50    3.50
   3  -1   8    4.90    3.20
   3   1   8   -0.70    3.80
   3   1   8    1.80    3.70
  -3   1  -8    1.80    4.60
   4  -1   8    6.50    4.10
  -4  -1  -8    8.20    5.80
   4  -1   8    0.50    3.70
   4  -1   8    4.80    4.80
   4   1   8    1.20    3.80
  -4   1  -8    3.10    4.60
   4   1   8    6.00    4.20
   5  -1   8  106.79    9.50
   5  -1   8  118.49    8.00
   5  -1   8  115.69    8.90
   5   1   8   96.69    9.30
   5   1   8  111.99    8.10
   6  -1   8   57.89    6.40
   6  -1   8   53.79    5.40
   6   1   8   49.99    6.20
   6   1   8   46.10    4.90
   7  -1   8    5.00    7.40
   7  -1   8    5.20    4.30
   7   1   8    5.50    2.90
   7   1   8   -2.40    5.10
  -8  -2   8    5.80    5.50
  -8   2   8    4.40    4.80
  -7  -2   8   29.60    5.50
  -7   2   8   37.50    5.50
   6  -2  -8   51.59    5.60
   6  -2  -8   54.69    6.10
  -6  -2   8   62.69    7.40
  -6   2   8   73.89    7.70
   5  -2  -8   41.50    5.70
  -5  -2   8   36.40    5.20
   5   2  -8   35.60    4.40
  -5   2   8   42.40    5.30
   4  -2  -8  111.69    8.80
  -4  -2   8  105.19    8.10
  -4   2   8  112.69    7.90
   4   2  -8   92.29    8.20
   3  -2  -8  727.33   20.80
  -3  -2   8  727.63   20.60
  -3   2   8  748.23   20.40
   3   2  -8  730.93   20.10
  -2  -2   8   13.90    4.30
   2  -2  -8   18.40    5.40
  -2  -2   8    8.60    4.40
  -2   2   8   14.90    4.10
   2   2  -8   18.50    5.10
  -1  -2   8   17.30    3.90
  -1  -2   8   20.50    4.40
  -1  -2   8   16.30    1.60
   1  -2  -8   23.10    5.50
   1   2  -8   18.60    4.70
  -1   2   8   20.20    4.30
   0  -2   8   44.70    3.30
   0  -2  -8   37.70    5.40
   0  -2   8   47.60    5.00
   0  -2   8   46.70    5.50
   0   2  -8   43.90    6.30
   0   2   8   39.50    4.50
  -1  -2  -8  152.58   10.40
   1  -2   8  154.68    8.70
   1  -2   8  151.38    6.20
   1  -2   8  160.58    8.40
   1   2   8  144.19    8.10
   1   2   8  161.48    7.50
  -1   2  -8  127.99   10.40
  -2  -2  -8  120.19    9.80
   2  -2   8  104.39    7.00
   2  -2   8   84.19    6.90
   2  -2   8  104.69    6.40
   2   2   8   94.39    6.40
  -2   2  -8  104.69   10.20
   2   2   8  102.29    7.30
  -3  -2  -8  239.98   12.10
   3  -2   8  223.88    9.60
   3  -2   8  218.58   10.10
   3  -2   8  228.78   10.40
   3   2   8  232.98    9.80
   3   2   8  228.38    8.80
  -3   2  -8  204.98   12.10
   4  -2   8    5.80    4.80
   4  -2   8    5.40    4.60
   4  -2   8    1.10    4.20
  -4  -2  -8   -6.00    5.60
   4   2   8   -0.10    3.80
   4   2   8   -5.70    3.70
  -4   2  -8    0.30    6.40
   5  -2   8  842.62   22.80
   5  -2   8  860.21   23.50
   5  -2   8  792.62   22.00
   5   2   8  829.82   21.20
   5   2   8  836.22   21.70
   6  -2   8  183.88   12.40
   6  -2   8  167.28    9.10
   6  -2   8  180.28   10.90
   6   2   8  170.98    8.50
   6   2   8  180.98   10.10
   7  -2   8  119.19    8.20
   7  -2   8  139.29   13.00
   7   2   8  115.29   10.40
  -7   2  -8  105.19    8.20
  -8  -3   8  119.49   10.30
  -8   3   8  117.79   11.20
   7  -3  -8  459.95   12.70
  -7  -3   8  459.55   16.20
   7  -3  -8  464.55   12.20
  -7   3   8  460.95   16.00
  -6  -3   8  119.79    6.20
   6  -3  -8  120.99   10.70
  -6  -3   8  119.89    9.10
   6  -3  -8  123.09    7.80
  -6   3   8  128.09    9.00
  -5  -3   8  187.48    6.20
   5  -3  -8  190.88   10.20
  -5  -3   8  184.88    9.90
  -5   3   8  184.08    9.00
   5   3  -8  191.38    8.00
  -4  -3   8   27.10    5.00
  -4  -3   8   24.70    2.30
   4  -3  -8   31.00    5.90
   4   3  -8   24.60    5.00
  -4   3   8   17.00    4.50
  -3  -3   8    0.40    3.80
   3  -3  -8    1.60    5.20
  -3  -3   8    4.90    4.40
  -3   3   8    9.50    4.30
   3   3  -8    6.40    4.60
   2  -3  -8    5.70    5.30
  -2  -3   8    3.30    3.50
  -2  -3   8    5.90    4.20
  -2   3   8   -1.40    3.60
   2   3  -8   -3.60    4.50
  -1  -3   8  813.02   21.20
   1  -3  -8  820.42   23.00
  -1  -3   8  801.22   22.20
   1   3  -8  823.92   22.90
  -1   3   8  805.32   21.70
   0  -3  -8  724.73   21.30
   0  -3   8  767.12   19.90
   0  -3   8  767.92   21.40
   0  -3   8  754.22   18.00
   0   3  -8  733.83   21.40
   0   3   8  735.63   20.30
  -1  -3  -8  355.26   14.20
   1  -3   8  360.46   13.20
   1  -3   8  347.87   10.60
  -1  -3  -8  337.47   10.10
   1  -3   8  327.47   11.40
  -1   3  -8  365.66   14.80
   1   3   8  335.77   11.80
   1   3   8  354.76   10.80
   2  -3   8  861.91   23.90
   2  -3   8  857.81   21.90
   2  -3   8  860.01   22.70
  -2  -3  -8  859.11   24.10
  -2  -3  -8  894.21   21.80
   2   3   8  894.51   23.10
   2   3   8  880.51   21.20
  -2   3  -8  877.71   25.10
  -3  -3  -8  296.67   11.10
  -3  -3  -8  284.77   13.40
   3  -3   8  274.67   11.50
   3  -3   8  304.87   10.90
   3  -3   8  293.77   12.20
   3   3   8  268.17   13.40
  -3   3  -8  276.27   12.70
   3   3   8  290.97   10.90
  -4  -3  -8   62.79    6.50
   4  -3   8   56.29    6.00
   4  -3   8   80.79    8.40
   4  -3   8   69.29    7.60
   4   3   8   68.29    6.70
   5  -3   8  273.07   12.20
   5  -3   8  274.17   11.80
  -5  -3  -8  274.67   12.40
   5  -3   8  314.77   13.40
   5   3   8  279.67   10.80
   6  -3   8  301.17   12.90
   6  -3   8  289.17   13.50
   6   3   8  294.47   10.80
  -6   3  -8  306.27   12.50
   6   3   8  303.07   10.50
   7  -3   8    5.20    5.30
   7  -3   8   -0.90    6.50
  -7   3  -8    8.20    5.10
  -8  -4   8  287.17   13.80
  -8   4   8  308.07   15.10
  -8   4   8  312.57   14.50
   7  -4  -8  132.69    8.20
  -7  -4   8  129.79   10.00
   7  -4  -8  138.69    8.70
  -6  -4   8   47.00    6.10
   6  -4  -8   42.80    5.50
  -6  -4   8   46.50    4.70
  -6   4   8   41.80    6.00
  -5  -4   8   -0.50    3.00
  -5  -4   8    0.20    4.70
   5  -4  -8   -1.80    5.50
   5   4  -8    2.20    3.50
  -5   4   8   -1.80    4.10
  -4  -4   8   21.90    5.30
  -4  -4   8   30.30    3.30
  -4  -4   8   27.10    5.10
   4  -4  -8   25.40    6.20
  -4   4   8   33.60    5.30
   4   4  -8   24.50    5.00
  -3  -4   8  155.78    9.50
   3  -4  -8  159.88   11.00
  -3  -4   8  159.18    8.10
   3   4  -8  158.78    9.60
  -3   4   8  163.88    9.30
  -2  -4   8 1193.28   29.70
  -2  -4   8 1237.28   31.10
   2  -4  -8 1219.28   31.60
   2   4  -8 1232.68   30.90
  -2   4   8 1233.88   30.80
  -1  -4   8   -0.80    3.60
  -1  -4   8   -4.30    4.40
   1  -4  -8   10.80    4.60
   1  -4  -8    0.50    2.00
  -1   4   8    0.00    4.00
   1   4  -8   -9.30    5.20
   0  -4   8  266.97   11.10
   0  -4  -8  263.07   12.10
   0  -4  -8  283.27    8.40
   0  -4   8  282.27   12.40
   0   4  -8  259.47   12.00
   0   4   8  272.17   10.60
  -1  -4  -8   47.70    6.60
  -1  -4  -8   52.19    4.70
   1  -4   8   46.00    5.60
   1  -4   8   43.90    4.20
   1  -4   8   43.00    6.30
  -1   4  -8   52.59    6.30
   1   4   8   48.00    4.40
   1   4   8   59.69    5.70
   2  -4   8  256.47    9.90
   2  -4   8  275.57   12.20
  -2  -4  -8  241.88   11.60
   2  -4   8  233.98   10.80
   2   4   8  249.28   10.70
   2   4   8  264.67    9.30
  -2   4  -8  258.37   12.20
   3  -4   8  181.98    9.00
  -3  -4  -8  190.78   10.00
   3  -4   8  189.58    9.50
  -3  -4  -8  183.18   11.10
   3  -4   8  190.58   10.80
   3   4   8  192.18    9.20
  -4  -4  -8  867.71   24.00
   4  -4   8  862.21   24.40
   4  -4   8  854.51   23.60
   4   4   8  859.41   22.40
   4   4   8  884.41   22.40
  -5  -4  -8  113.89   10.70
   5  -4   8  104.79    8.50
   5  -4   8   99.59    9.60
  -5   4  -8  104.29    9.30
   5   4   8  122.39    7.80
   5   4   8   95.49    7.10
   6  -4   8  117.19   12.10
   6  -4   8  125.19   10.60
   6   4   8  109.39    7.70
   6   4   8  109.99    6.60
  -6   4  -8  102.09   10.30
  -7  -5   8   -0.10    5.30
   7  -5  -8    2.00    4.80
  -7  -5   8   -5.00    4.90
   7  -5  -8    1.90    2.40
  -7   5   8   -2.40    6.20
  -7   5   8    0.40    6.10
  -6  -5   8  142.69   10.20
   6  -5  -8  112.29    9.80
   6  -5  -8  143.99   11.60
   6  -5  -8  127.19    5.10
  -6  -5   8  138.89   10.90
  -6   5   8  142.09   10.70
  -5  -5   8  231.68   11.90
   5  -5  -8  249.28   12.20
   5  -5  -8  238.08   14.00
  -5  -5   8  222.08    9.80
   5   5  -8  226.38    8.30
  -4  -5   8  568.74   17.70
   4  -5  -8  603.44   19.80
  -4  -5   8  629.34   19.40
   4   5  -8  627.54   17.90
  -4   5   8  627.94   18.90
  -3  -5   8   26.70    5.90
   3  -5  -8   20.90    2.00
   3  -5  -8   17.70    6.30
  -3  -5   8    9.70    4.70
  -3   5   8   11.60    4.20
   3   5  -8   14.20    6.00
  -2  -5   8    2.50    5.00
   2  -5  -8    2.70    2.20
  -2  -5   8    2.30    3.60
   2  -5  -8    8.80    4.70
   2   5  -8   -8.80    5.20
  -2   5   8   -3.10    3.40
  -1  -5   8   21.60    4.10
   1  -5  -8   13.50    5.60
  -1  -5   8   21.00    5.60
   1  -5  -8   11.90    2.70
  -1   5   8    9.30    4.70
   1   5  -8   15.60    6.20
   0  -5   8   -5.60    3.60
   0  -5   8   -1.30    3.80
   0  -5  -8   -0.30    3.00
   0  -5  -8   -0.60    5.40
   0   5   8   -2.30    4.10
   0   5  -8    3.90    5.50
   1  -5   8  364.76   12.70
   1  -5   8  379.96   14.30
  -1  -5  -8  416.96   12.40
  -1  -5  -8  366.96   14.10
   1   5   8  400.36   13.70
  -1   5  -8  393.46   15.70
   2  -5   8  355.86   13.20
  -2  -5  -8  382.56   13.00
   2  -5   8  362.26   14.70
  -2   5  -8  348.77   15.10
   2   5   8  388.76   13.30
   3  -5   8    3.90    5.00
  -3  -5  -8    5.20    5.10
   3  -5   8   -3.40    4.50
   3   5   8    7.10    4.20
   3   5   8   10.10    3.40
   4  -5   8   50.59    6.70
  -4  -5  -8   64.49    7.40
   4   5   8   61.19    6.90
   4   5   8   54.49    5.60
  -5  -5  -8  277.67   14.10
   5  -5   8  287.97   14.20
   5  -5   8  301.77   14.70
  -5   5  -8  298.07   13.00
   5   5   8  283.57   10.90
   5   5   8  276.77    8.80
   6  -5   8  233.38   14.30
   6  -5   8  248.28   15.10
   6   5   8  225.78    8.20
  -6   5  -8  215.08   12.90
  -7  -6   8   89.59    9.70
   7  -6  -8  101.79   10.60
  -7  -6   8   90.89   10.80
  -7   6   8   83.19    8.90
  -7   6   8   82.69    8.80
  -6  -6   8    5.50    5.60
  -6  -6   8   20.40    6.10
   6  -6  -8   14.10    6.10
   6  -6  -8    6.50    6.40
   6  -6  -8    5.00    2.80
  -6   6   8    3.60    6.30
  -6   6   8    0.80    5.80
  -5  -6   8  144.69   11.10
   5  -6  -8  128.39   11.60
   5  -6  -8  125.49    5.10
   5  -6  -8  128.59   11.70
  -5   6   8  124.69   10.80
  -5   6   8  121.69   10.90
  -4  -6   8  152.38   10.80
   4  -6  -8  118.99   11.60
  -4   6   8  151.28   10.70
  -3  -6   8  473.55   16.90
   3  -6  -8  466.55   17.00
   3   6  -8  463.25   16.50
  -2  -6   8   -5.70    5.30
   2  -6  -8    0.80    4.60
   2  -6  -8    2.90    2.80
  -2  -6   8   -2.30    4.60
   2   6  -8    0.70    6.80
  -1  -6   8  523.75   16.00
  -1  -6   8  562.14   18.90
   1  -6  -8  552.24   14.60
   1  -6  -8  531.55   18.40
  -1   6   8  557.74   17.00
   1   6  -8  569.74   19.00
   0  -6  -8   -4.40    3.60
   0  -6   8   -8.40    3.90
   0  -6   8    9.10    3.80
   0   6   8   -6.20    4.50
   0   6  -8    6.20    5.90
   1   6   8   31.00    5.40
  -1   6  -8   17.00    5.40
   1   6   8   25.60    4.60
   2  -6   8   27.50    6.00
  -2  -6  -8   19.00    5.70
   2   6   8   17.70    4.00
   2   6   8   18.40    5.10
   3  -6   8  373.66   15.40
  -3  -6  -8  394.36   14.80
   3  -6   8  372.16   14.50
   3   6   8  388.46   13.50
   3   6   8  385.06   10.80
  -4  -6  -8   35.50    6.60
   4  -6   8   38.10    7.90
   4   6   8   24.50    3.00
   4   6   8   41.70    5.10
  -4   6  -8   23.80    5.60
   5  -6   8  901.51   26.50
   5  -6   8  927.31   27.10
   5   6   8  918.11   23.20
  -5   6  -8  902.11   25.00
  -6  -7   8   21.10    6.10
   6  -7  -8   18.20    8.20
   6  -7  -8    3.80    3.40
  -6   7   8   34.80    8.70
  -6   7   8   19.30    6.50
   5  -7  -8  129.39   13.30
   5  -7  -8  131.29   12.40
   5  -7  -8  118.79    6.30
  -5   7   8  138.99   11.90
  -5   7   8  123.19   11.50
   4  -7  -8  156.48   12.80
   4  -7  -8  181.88   14.00
  -4   7   8  151.98    9.70
  -4   7   8  161.78   11.50
  -3   7   8   -4.20    4.40
  -3   7   8    0.30    4.90
   3   7  -8   -5.80    6.60
  -2   7   8   28.40    6.20
  -2   7   8   25.60    5.20
   2   7  -8   19.60    7.00
  -1  -7   8  126.69   11.70
   1   7  -8  118.09   10.00
  -1   7   8  116.69    8.70
   0  -7   8   26.80    6.20
   0   7  -8   50.89    7.10
   0   7   8   43.30    6.60
   1  -7   8  122.69   10.60
  -1  -7  -8  129.39    9.80
  -2  -7  -8  367.56   14.40
   2  -7   8  372.86   16.90
   2   7   8  385.46   11.00
   2   7   8  402.16   14.50
  -3  -7  -8    8.70    5.80
   3  -7   8    8.30    7.90
   3   7   8   13.50    2.50
   3   7   8    9.40    2.70
   3   7   8   12.10    5.20
  -4  -7  -8    4.70    6.40
   4  -7   8    0.90    8.00
   4  -7   8   -2.40    6.90
   4   7   8    1.40    5.30
  -4   7  -8   -9.90    5.00
   5  -7   8   75.09   10.40
   5  -7   8   87.29    9.10
  -5   7  -8   87.19    9.20
   5  -8  -8   11.40    8.40
  -5  -8   8    7.70    7.80
  -5   8   8   31.70    8.10
  -5   8   8    2.70    7.50
  -4  -8   8   47.70    8.70
   4  -8  -8   56.79    9.40
  -4   8   8   53.59    7.40
  -4   8   8   45.90    7.30
  -3  -8   8   57.79    8.80
  -3   8   8   57.99    8.10
   3   8  -8   67.99    8.00
  -3   8   8   58.89    6.70
  -2  -8   8  423.86   17.20
  -2   8   8  432.16   16.20
   2   8  -8  441.56   16.90
  -2   8   8  434.76   14.70
  -1  -8   8   -2.60    5.70
  -1   8   8   -6.70    5.90
  -1   8   8   13.30    5.20
   1   8  -8    7.00    6.70
   0  -8  -8   84.99    9.10
   0  -8   8   75.19    9.90
   0   8   8   77.39    8.00
   0   8   8   89.09    6.80
  -1  -8  -8    2.20    5.20
   1  -8   8    4.90    7.70
   1   8   8    7.80    6.00
   1   8   8    5.00    3.80
  -2  -8  -8  103.69   10.70
   2  -8   8   94.19    9.50
   2   8   8   89.79   10.10
   2   8   8   84.59    5.30
   2   8   8   90.39    5.10
  -3  -8  -8   40.60    7.20
   3  -8   8   43.70    9.80
   3   8   8   52.49    8.10
   4  -8   8  321.57   18.50
   4   8   8  324.37   12.70
  -4   8  -8  312.17   14.30
   3  -9  -8    4.10    8.90
  -3  -9   8  -12.30    8.20
  -3   9   8    3.40    6.20
  -3   9   8    8.40    6.50
  -2  -9   8   21.10    7.50
   2   9  -8    5.80    7.30
  -2   9   8   10.60    5.40
  -2   9   8   29.90    7.80
  -1  -9   8  217.78   14.40
  -1   9   8  212.58   10.00
  -1   9   8  241.48   14.40
   0  -9   8  276.47   17.20
   0   9   8  273.07   14.40
   0   9   8  269.27   10.60
   1  -9   8   40.00   10.00
  -1  -9  -8   39.60    7.30
   1   9   8   35.80    3.80
   1   9   8   44.80    7.90
   2  -9   8  218.68   14.50
  -2  -9  -8  179.38   12.60
   2   9   8  203.58   12.90
  -7   0   9   43.40    6.60
  -6   0   9   -1.90    4.60
   6   0  -9    4.70    4.40
   5   0  -9  646.84   20.80
  -5   0   9  711.23   20.00
   4   0  -9   18.80    5.70
  -4   0   9    3.70    4.70
  -3   0   9   73.49    8.20
   3   0  -9   89.89    7.70
   2   0  -9   -1.20    4.80
  -2   0   9   -0.90    4.30
   1   0  -9   58.19    7.10
  -1   0   9   52.19    5.70
  -1   0   9   46.40    5.40
   0   0   9    4.40    3.60
   0   0   9    3.20    3.80
   0   0  -9    5.60    4.80
  -1   0  -9  450.15   16.40
   1   0   9  470.95   15.30
   1   0   9  497.45   14.20
   2   0   9    4.20    4.60
   2   0   9    3.30    4.50
  -2   0  -9    0.00    5.30
   3   0   9 1244.98   30.90
   3   0   9 1179.58   29.70
   4   0   9    2.40    4.90
   4   0   9  -12.40    5.20
   4   0   9   -9.90    3.80
   5   0   9   85.79    8.50
   5   0   9   89.99    9.00
   5   0   9   85.99    9.00
   6   0   9    0.70    5.30
   6   0   9    2.10    6.40
  -8  -1   9    7.80    5.30
  -7  -1   9  152.38   10.60
  -7   1   9  138.79   10.30
   6  -1  -9    2.30    4.80
  -6  -1   9    4.30    5.50
  -6   1   9    1.20    4.90
   6   1  -9    2.30    3.40
   5  -1  -9    6.50    5.90
  -5  -1   9   -1.80    5.10
  -5   1   9   -1.30    4.30
   5   1  -9    3.90    6.00
  -4  -1   9   -8.80    4.40
   4  -1  -9    2.00    5.30
  -4   1   9    1.30    3.50
   4   1  -9    3.00    5.10
   3  -1  -9   30.70    6.50
  -3  -1   9   33.90    5.60
   3   1  -9   37.00    6.30
  -3   1   9   33.80    4.90
  -2  -1   9  274.57   11.90
   2  -1  -9  275.47   13.40
  -2  -1   9  275.47   11.00
  -2   1   9  268.47   11.00
   2   1  -9  265.27   12.00
  -1  -1   9   36.40    4.60
   1  -1  -9   42.10    6.70
  -1  -1   9   35.50    5.20
   1   1  -9   40.60    6.80
  -1   1   9   44.20    5.60
   0  -1   9  222.58   10.20
   0  -1   9  210.98    9.40
   0  -1  -9  226.68   12.30
   0   1  -9  222.78   12.50
   0   1   9  227.78   10.70
   0   1   9  238.58    9.30
  -1  -1  -9  220.58   11.30
   1  -1   9  210.18   10.20
   1  -1   9  226.18    9.40
   1  -1   9  230.08    7.50
   1   1   9  229.18    9.90
  -1   1  -9  227.68   11.60
   1   1   9  242.98   10.90
  -2  -1  -9   25.20    5.20
   2  -1   9   42.60    4.90
   2  -1   9   43.10    6.20
   2  -1   9   33.80    3.90
   2   1   9   43.20    5.40
   2   1   9   44.80    5.60
  -2   1  -9   25.70    6.40
   3  -1   9  117.39    9.30
   3  -1   9  107.59    8.70
   3  -1   9  111.89    7.10
   3   1   9  122.39    8.60
   3   1   9  116.69    8.90
   4  -1   9  412.46   13.80
   4  -1   9  438.76   15.00
   4  -1   9  382.56   14.10
   4   1   9  418.26   14.20
   4   1   9  384.56   13.90
   5  -1   9   51.39    6.30
   5  -1   9   37.50    6.00
   5  -1   9   45.30    6.20
   5   1   9   37.60    6.90
   5   1   9   34.00    5.60
   6  -1   9  186.38   10.80
   6  -1   9  183.58   12.70
   6   1   9  170.38    9.70
   6   1   9  182.18   11.40
  -7  -2   9  101.59    9.80
   7  -2  -9   50.99    4.80
  -6  -2   9  515.45   17.10
   6  -2  -9  496.25   15.00
  -6   2   9  491.15   17.30
  -5  -2   9    1.90    5.10
   5  -2  -9    9.60    6.50
  -5   2   9    0.30    4.70
   5   2  -9    1.80    4.60
  -4  -2   9  226.18   11.50
   4  -2  -9  242.88   12.40
   4   2  -9  220.38   12.00
  -4   2   9  244.38   11.40
   3  -2  -9  263.87   13.40
  -3  -2   9  260.17   12.10
  -3   2   9  268.47   11.70
   3   2  -9  259.97   12.60
  -2  -2   9   -0.10    4.60
  -2  -2   9   -1.30    4.60
   2  -2  -9   -2.20    5.70
   2   2  -9   -0.40    4.80
  -2   2   9    8.10    4.50
  -1  -2   9    7.30    4.10
  -1  -2   9    6.10    4.70
   1  -2  -9   -1.50    5.60
   1   2  -9    6.10    5.10
  -1   2   9    4.20    3.50
   0  -2   9   81.19    7.80
   0  -2   9   73.79    4.00
   0  -2   9   86.69    8.50
   0  -2  -9   70.69    6.90
   0   2   9   64.49    6.90
   0   2   9   74.89    6.10
   0   2  -9   68.69    7.70
  -1  -2  -9   14.20    6.20
   1  -2   9    7.70    2.80
   1  -2   9   10.60    4.70
   1  -2   9   13.30    5.40
   1   2   9   10.80    4.70
   1   2   9   20.10    4.70
  -1   2  -9   19.60    6.50
   2  -2   9  408.06   15.10
   2  -2   9  417.36   12.20
   2  -2   9  404.36   13.70
   2   2   9  415.46   14.40
   2   2   9  403.66   13.20
   3  -2   9  110.09    7.40
   3  -2   9   90.79    9.00
   3  -2   9  102.29    9.00
   3   2   9   87.79    7.80
   3   2   9  100.19    8.40
   4  -2   9   35.90    5.60
   4  -2   9   32.70    5.90
   4  -2   9   29.30    5.70
   4   2   9   40.80    5.70
   4   2   9   42.20    6.20
   5  -2   9    4.50    5.50
   5  -2   9    6.10    5.40
   5   2   9   13.60    4.70
   5   2   9   13.10    5.00
   6  -2   9  158.78   10.10
   6  -2   9  175.08   12.70
   6   2   9  149.49    9.40
   6   2   9  155.48    9.10
  -7  -3   9   30.90    7.20
   7  -3  -9    6.10    4.20
  -7   3   9   20.90    6.60
  -6  -3   9  162.88   10.90
   6  -3  -9  175.58   10.50
   6  -3  -9  162.18    9.80
  -6   3   9  147.59   10.20
  -5  -3   9   45.20    6.60
   5  -3  -9   52.59    8.00
   5   3  -9   47.00    5.60
  -4  -3   9  366.06   14.50
   4  -3  -9  339.37   16.00
  -4   3   9  364.66   13.90
   4   3  -9  352.66   13.70
  -3  -3   9  311.27   12.20
   3  -3  -9  326.87   14.70
  -3  -3   9  318.07   12.90
  -3   3   9  341.87   12.70
   3   3  -9  346.57   13.90
   2  -3  -9  442.26   16.50
  -2  -3   9  443.56   14.00
  -2  -3   9  440.16   15.40
  -2   3   9  474.85   15.70
   2   3  -9  445.16   16.50
   1  -3  -9  618.94   20.10
  -1  -3   9  624.84   19.20
  -1  -3   9  633.44   14.90
  -1  -3   9  633.14   17.80
  -1   3   9  645.34   19.40
   1   3  -9  629.24   20.30
   0  -3  -9 1006.30   28.70
   0  -3   9 1032.20   28.00
   0  -3   9 1037.30   24.30
   0  -3   9 1009.40   26.10
   0   3   9 1094.89   26.00
   0   3  -9 1084.79   29.00
   0   3   9 1077.59   27.70
   1  -3   9   40.00    5.80
   1  -3   9   46.90    5.40
   1  -3   9   46.90    5.90
  -1  -3  -9   54.09    7.90
  -1   3  -9   33.60    5.90
   1   3   9   53.59    6.20
   1   3   9   48.40    5.20
   2  -3   9   72.59    6.90
   2  -3   9   76.79    8.60
   2  -3   9   73.89    7.00
   2   3   9   68.09    7.00
   2   3   9   89.39    8.30
   3  -3   9    3.30    4.40
   3   3   9   10.00    4.90
   3   3   9    4.40    4.30
   4  -3   9   73.39    8.50
   4  -3   9   90.09    8.50
   4   3   9   73.19    7.90
   4   3   9   85.69    8.60
   5  -3   9   11.20    6.30
   5   3   9   17.40    4.90
   5   3   9   13.40    4.80
   6  -3   9   25.00    8.30
   6  -3   9   26.20    7.50
   6   3   9   41.50    5.80
   7  -4  -9  122.79    9.00
  -7  -4   9  133.89   11.00
  -7   4   9  145.59   12.60
  -6  -4   9  119.89   11.10
  -6  -4   9  126.19    6.10
   6  -4  -9  119.59   10.10
   6  -4  -9  118.69   10.80
  -6   4   9  106.19    9.60
   5  -4  -9 1492.25   38.00
  -5  -4   9 1470.55   32.70
  -5  -4   9 1538.55   38.10
  -5   4   9 1496.65   37.80
   4  -4  -9  186.68   12.90
  -4  -4   9  167.18    6.20
  -4  -4   9  175.78   11.30
  -4   4   9  171.58   10.30
   4   4  -9  164.28   12.80
   3  -4  -9  120.19    9.60
  -3  -4   9  102.99    9.90
   3   4  -9  110.89   11.70
  -2  -4   9   13.70    4.50
  -2  -4   9    5.90    5.60
   2  -4  -9   17.80    6.50
   2   4  -9   10.20    7.70
  -1  -4   9  197.28    8.90
   1  -4  -9  194.88   10.90
  -1  -4   9  201.08   10.70
  -1   4   9  198.08   10.60
   1   4  -9  194.88   12.60
   0  -4   9    9.10    4.00
   0  -4   9   16.70    3.70
   0  -4   9   12.00    6.60
   0   4  -9    8.10    5.30
   0   4   9    9.90    4.80
  -1  -4  -9  350.26   11.20
   1  -4   9  356.26   11.80
   1   4   9  343.67   13.40
   1   4   9  349.87   11.70
  -2  -4  -9   27.70    5.00
   2  -4   9   30.70    7.00
   2  -4   9   34.00    4.80
   2   4   9   24.50    5.70
   2   4   9   33.90    4.80
   3  -4   9  129.69   11.30
   3  -4   9  122.39    9.60
  -3  -4  -9  107.69   10.30
   3   4   9  125.09    9.10
   3   4   9  129.09    7.70
   4  -4   9   24.10    6.00
  -4  -4  -9   20.80    7.10
   4  -4   9   21.20    7.40
   4   4   9   24.40    4.80
   4   4   9   12.40    4.90
   5  -4   9  357.26   15.70
   5  -4   9  323.27   15.60
   5   4   9  355.96   12.50
   6  -5  -9   35.50    7.80
  -6  -5   9   50.99    5.10
   6  -5  -9   35.60    7.10
  -6   5   9   31.30    7.70
   5  -5  -9  -10.40    6.30
  -5  -5   9    6.40    4.00
   5   5  -9    2.50    4.30
  -5   5   9    3.40    5.10
   4  -5  -9  166.68   12.50
  -4   5   9  188.78   11.00
   4   5  -9  202.08   13.10
   3  -5  -9  125.29   11.40
   3   5  -9  114.29   12.30
  -3   5   9  110.49   10.10
   2   5  -9  534.25   18.70
  -1  -5   9   65.29    8.80
   1  -5  -9   70.59    4.70
  -1   5   9   74.59    8.00
   1   5  -9   81.69    7.40
   0  -5   9   17.70    6.60
   0  -5  -9    6.40    3.70
   0   5  -9   12.60    6.50
   0   5   9    5.60    4.50
   1  -5   9   14.60    5.70
   1  -5   9   14.90    4.20
  -1  -5  -9   16.00    4.20
   1   5   9   19.90    5.00
   1   5   9   11.00    5.80
  -2  -5  -9  401.66   14.20
   2  -5   9  408.16   16.90
   2  -5   9  398.56   13.80
   2   5   9  388.26   12.70
  -3  -5  -9  231.08   12.90
   3  -5   9  225.78   14.00
   3  -5   9  234.08   11.60
   3   5   9  218.88    9.20
   3   5   9  222.38   11.00
   4  -5   9  104.09   11.60
   4  -5   9  125.59   12.60
  -4  -5  -9   91.89   10.20
   4   5   9   88.39    7.60
   4   5   9  106.09    9.50
   5  -5   9   43.30    8.90
   5  -5   9   32.10    7.30
   5   5   9   26.10    5.90
  -6  -6   9  472.65   19.60
  -6   6   9  472.85   19.80
  -6   6   9  498.35   19.30
  -5  -6   9   25.70    7.80
   5  -6  -9   24.10    7.80
   5  -6  -9   21.20    8.10
  -5   6   9   21.30    7.40
  -4  -6   9  512.85   19.80
  -4   6   9  553.74   19.20
   4   6  -9  501.55   16.50
  -3  -6   9   16.20    7.70
   3   6  -9   12.10    7.40
  -3   6   9   20.70    5.40
   2  -6  -9  139.09    5.70
  -2  -6   9  144.89   12.60
   2   6  -9  133.99   12.00
  -2   6   9  144.89   11.10
   1  -6  -9   23.60    3.80
  -1  -6   9   26.40    7.60
   1   6  -9   38.40    7.60
  -1   6   9   19.00    5.30
   0  -6   9   30.60    7.70
   0  -6  -9   33.10    4.80
   0   6   9   39.10    6.70
   1  -6   9   -5.60    7.10
   1   6   9   -5.60    4.70
   1   6   9   -3.90    5.50
  -2  -6  -9  250.67   12.20
   2  -6   9  264.27   11.80
   2  -6   9  256.67   13.50
   2   6   9  251.67    9.60
   2   6   9  244.58   12.70
  -3  -6  -9   35.70    6.00
   3  -6   9   36.70    7.30
   3  -6   9   24.90    6.50
   3   6   9   33.00    6.60
  -4  -6  -9   -8.30    6.90
   4  -6   9   11.00    7.20
   4  -6   9   -0.60    8.30
   4   6   9   10.60    6.00
   5  -7  -9   15.50   10.10
  -5  -7   9   44.00    9.10
  -5   7   9   50.29    9.20
  -5   7   9   46.50    7.40
  -4  -7   9   52.29    9.40
  -4   7   9   44.70    7.40
  -4   7   9   50.89    8.20
   3  -7  -9  210.28    7.60
  -3  -7   9  234.88   13.70
  -3   7   9  227.48   13.70
  -3   7   9  243.88   12.90
   3   7  -9  230.78   12.40
   2  -7  -9  278.47    9.30
  -2  -7   9  303.17   16.50
   2   7  -9  270.67   13.90
  -2   7   9  297.97   13.50
  -1  -7   9   55.09    9.00
   1  -7  -9   33.00    4.30
  -1   7   9   33.60    7.40
   0  -7   9   52.99    9.00
   0   7   9   50.69    6.60
   1  -7   9   -7.00    7.60
  -1  -7  -9   11.40    5.00
   1   7   9   -9.60    5.00
   1   7   9    7.40    4.10
  -2  -7  -9   31.00    5.50
   2  -7   9   40.20    8.20
   2   7   9   41.60    7.20
   2   7   9   34.60    6.10
   3  -7   9  149.88   12.70
   3  -7   9  153.18   15.30
  -3  -7  -9  160.18   11.20
   3   7   9  167.08   11.20
  -3  -8   9   32.10    9.80
  -3   8   9   41.70    8.40
  -3   8   9   14.50    6.80
  -2  -8   9   13.10    9.30
  -2   8   9   10.40    7.70
  -2   8   9    3.00    5.60
   2   8  -9  -12.80    8.20
  -1  -8   9    2.80    8.90
  -1   8   9    5.20    7.60
  -1   8   9    0.80    5.30
   0  -8   9    2.70    7.10
   0   8   9    3.50    5.30
   0   8   9    3.40    7.30
   1  -8   9  162.98   13.80
   1   8   9  150.68    8.10
   1   8   9  150.48   13.00
   2  -8   9   57.19   10.90
  -6   0  10  144.29   12.30
  -5   0  10   -3.70    6.10
   5   0 -10   -4.50    6.20
   4   0 -10   36.30    7.50
  -4   0  10   39.00    6.20
  -3   0  10    1.10    6.10
   3   0 -10   -1.20    6.60
   2   0 -10  930.01   26.10
  -2   0  10  862.81   26.00
  -1   0  10   -6.30    4.70
  -1   0  10   -6.30    5.40
   1   0 -10   -5.60    5.40
   0   0  10 2768.42   61.49
   0   0  10 2485.25   58.99
   1   0  10    8.20    5.90
   1   0  10   -1.50    4.10
   2   0  10  -14.10    5.60
   2   0  10    4.80    4.30
   3   0  10   -8.90    6.10
   3   0  10   -5.80    5.10
   4   0  10  213.08   12.40
   5   0  10    2.40    6.10
  -6  -1  10  145.19   12.40
  -6   1  10  146.99   10.80
   5  -1 -10  237.48   12.40
  -5  -1  10  270.97   13.80
  -5   1  10  233.08   12.30
   5   1 -10  246.58   12.00
  -4  -1  10  128.29   11.40
   4  -1 -10  137.39   12.00
  -4   1  10  133.19   11.10
   4   1 -10  122.89   11.40
  -3  -1  10  367.56   18.10
   3  -1 -10  331.07   15.50
   3   1 -10  337.07   15.40
  -3   1  10  349.17   13.90
  -2  -1  10    4.90    7.50
   2  -1 -10   -3.40    6.30
   2   1 -10   -3.10    6.10
  -2   1  10    6.10    4.60
  -1  -1  10   30.60    6.80
   1  -1 -10   35.30    7.50
  -1   1  10   41.20    5.40
   1   1 -10   41.20    6.40
  -1   1  10   38.40    6.80
   0  -1  10  792.22   24.00
   0   1  10  759.62   20.70
   0   1  10  792.42   23.80
   1  -1  10  566.14   18.20
   1  -1  10  597.94   19.20
   1   1  10  583.54   16.80
   1   1  10  624.64   19.60
   2  -1  10  134.99   11.00
   2  -1  10  114.19    9.00
   2   1  10   98.29   10.20
   2   1  10  127.19    9.00
   3  -1  10  365.76   12.80
   3  -1  10  388.96   15.70
   3   1  10  361.76   13.40
   3   1  10  377.66   15.50
   4  -1  10   18.30    5.10
   4  -1  10   25.80    6.90
   4   1  10   21.60    6.20
   4   1  10   28.50    6.70
   5  -1  10   40.40    7.40
   5   1  10   29.70    6.90
   5   1  10   42.10    6.70
  -6  -2  10   78.29    8.70
  -6   2  10   73.09    8.50
   5  -2 -10  101.49   12.00
  -5  -2  10   78.69    8.70
  -5   2  10   96.19   10.90
   4  -2 -10   83.29    8.60
  -4  -2  10   89.29   10.70
   4   2 -10   70.59    7.90
  -4   2  10   87.39   10.30
   3  -2 -10  295.77   14.70
  -3  -2  10  314.87   14.50
   3   2 -10  308.67   16.10
  -3   2  10  297.77   13.10
  -2  -2  10   -2.70    6.00
   2  -2 -10   -1.50    5.00
  -2   2  10    0.20    5.50
   2   2 -10   13.10    6.60
  -1  -2  10  597.44   19.50
   1   2 -10  602.84   20.30
  -1   2  10  634.14   19.90
  -1   2  10  590.84   17.80
   0  -2  10   19.00    6.80
   0  -2  10   18.00    2.20
   0   2  10   25.30    5.40
   0   2  10   15.50    6.30
   1  -2  10   48.20    5.30
   1  -2  10   50.29    6.70
   1   2  10   62.99    6.60
   1   2  10   59.39    6.20
   2  -2  10   24.90    4.70
   2  -2  10   23.10    7.00
   2   2  10   21.50    5.60
   2   2  10   29.80    6.70
   3  -2  10  411.96   17.00
   3  -2  10  410.56   13.90
   3   2  10  416.66   16.10
   3   2  10  398.46   13.90
   4  -2  10    7.60    5.70
   4  -2  10  -13.60    6.50
   4   2  10    5.10    6.20
   4   2  10   -0.80    5.10
  -6  -3  10   97.49    9.40
   6  -3 -10   97.69   10.00
  -6   3  10  107.89   12.20
  -5  -3  10  266.47   14.70
   5  -3 -10  253.17   13.30
  -5   3  10  271.37   14.50
   4  -3 -10  168.48   12.60
  -4  -3  10  184.78   12.90
   4   3 -10  187.88   11.60
  -4   3  10  163.48   12.10
  -3  -3  10  188.58   12.80
   3  -3 -10  193.98   12.90
   3   3 -10  183.98   13.10
  -3   3  10  168.58   11.80
  -2  -3  10   13.80    6.80
  -2   3  10   11.80    5.90
   2   3 -10   19.90    6.70
  -1  -3  10    9.20    2.10
  -1  -3  10   -3.60    6.30
  -1   3  10   12.80    6.00
   1   3 -10    7.00    6.50
   0  -3  10  104.39   11.20
   0  -3  10   86.49    5.60
   0   3  10   97.69    8.90
   0   3  10  101.89   10.30
   1  -3  10  296.47   13.80
   1  -3  10  306.47   10.60
   1   3  10  296.77   12.00
   1   3  10  312.67   12.90
   2  -3  10   28.20    4.90
   2  -3  10   18.00    7.40
   2   3  10   24.60    5.60
   2   3  10   19.60    6.40
   3  -3  10   38.50    8.30
   3  -3  10   43.90    6.30
   3   3  10   42.30    7.00
   3   3  10   41.50    5.40
   4  -3  10   15.20    6.50
   4  -3  10   14.20    6.40
   4   3  10   12.80    4.80
   4   3  10    5.60    7.10
  -5  -4  10   40.20    8.10
   5  -4 -10   25.20    8.50
  -5   4  10   47.40    8.00
  -4  -4  10  267.07   14.60
   4  -4 -10  200.08   13.70
   4   4 -10  184.28   12.10
  -4   4  10  206.78   12.00
  -3  -4  10   91.19    9.90
  -3   4  10  100.39   11.10
   3   4 -10   78.69    8.40
  -2  -4  10  136.59    5.20
  -2  -4  10  165.88   12.50
   2   4 -10  148.49   12.20
  -2   4  10  170.68   11.90
  -1  -4  10   11.60    6.90
  -1  -4  10   11.70    2.90
  -1   4  10    4.60    5.10
   0  -4  10  631.44   16.60
   0  -4  10  616.34   20.90
   0   4  10  604.34   18.10
   0   4  10  661.03   20.60
   1  -4  10   11.00    4.50
   1  -4  10   24.30    7.90
   1   4  10   18.40    5.40
   1   4  10   12.50    5.30
   2  -4  10    1.40    4.40
   2  -4  10   -4.80    5.80
   2   4  10   10.80    5.50
   2   4  10    1.10    6.20
   3  -4  10   29.90    6.60
   3  -4  10   31.80    7.50
   3   4  10   31.90    5.50
   3   4  10   24.40    6.70
   4  -4  10   87.99   10.20
   4  -4  10   91.19    9.80
   4   4  10  102.39   11.40
   5  -5 -10   27.40   10.00
  -5  -5  10   22.70    8.40
  -5   5  10   30.40    8.10
  -4  -5  10   84.49    9.80
  -4  -5  10   73.89    5.10
   4   5 -10   64.79    8.30
  -4   5  10  103.39   12.20
  -3  -5  10   14.00    6.70
   3   5 -10   17.70    7.40
  -3   5  10   14.20    7.30
  -2  -5  10   -9.10    7.20
  -2   5  10    1.40    6.40
   2   5 -10    7.30    7.20
  -1  -5  10   71.39    6.70
  -1  -5  10   71.19    8.40
  -1   5  10   66.19    8.40
   0  -5  10  256.07   10.40
   0  -5  10  253.57   14.10
   0   5  10  278.47   11.40
   0   5  10  291.07   13.00
   1  -5  10   87.79    8.60
   1  -5  10   81.79    9.00
   1   5  10  103.79   10.90
   1   5  10   97.99    8.00
   2  -5  10  110.69    9.20
   2  -5  10  115.89   13.80
   2   5  10  114.99    7.60
   2   5  10  114.29   11.30
   3  -5  10   32.20    7.80
   3  -5  10   17.50    6.20
   3   5  10   28.50    7.20
  -4  -6  10   33.60    7.90
  -4   6  10   18.20    7.20
  -3  -6  10  202.98   15.60
  -3   6  10  164.18   13.30
   3   6 -10  176.68   12.10
  -2  -6  10   17.00    8.90
  -2   6  10   18.20    7.70
   2   6 -10    8.10    7.60
  -1  -6  10  441.06   20.00
  -1   6  10  450.15   18.10
   0  -6  10   25.20    8.90
   0   6  10   26.70    7.60
   0   6  10   31.00    5.20
   1  -6  10   80.09   10.60
   1  -6  10   77.89    7.40
   1   6  10   81.39    9.40
   1   6  10   70.79    7.10
   2  -6  10  -10.40    8.80
   2  -6  10    4.90    5.80
   2   6  10    6.70    7.30
  -2  -7  10   44.60   10.10
  -2   7  10   40.00    9.10
  -1  -7  10   31.80   10.10
  -1   7  10   27.40    7.30
   0  -7  10   65.19    9.50
   0   7  10   94.69    9.90
  -5   0  11   91.69   10.00
   4   0 -11  -14.00    6.70
  -4   0  11    6.10    7.20
   3   0 -11  266.37   14.30
  -3   0  11  289.47   13.90
  -2   0  11   -2.80    5.50
  -1   0  11   -1.30    6.80
   0   0  11   12.10    7.20
   1   0  11  244.38   14.40
   2   0  11    5.20    7.60
   3   0  11   43.00    8.70
  -5  -1  11  -15.70    7.20
  -5   1  11   -2.70    6.20
   4  -1 -11   -5.90    8.10
  -4  -1  11    7.00    7.50
  -4   1  11   -6.90    7.20
   4   1 -11    7.00    6.90
  -3  -1  11  223.78   13.10
  -3   1  11  255.17   14.60
   3   1 -11  229.48   16.10
  -2  -1  11   90.99   10.10
  -2   1  11   84.19    9.70
  -1  -1  11  269.97   15.00
  -1   1  11  292.27   14.90
   0  -1  11   10.70    7.40
   0   1  11    0.60    7.00
   1  -1  11   32.40    8.00
   1   1  11   17.30    7.50
   2  -1  11   49.30    8.80
   2   1  11   29.80    8.20
   3  -1  11   49.00    9.10
   3   1  11   51.19    8.70
   4  -2 -11  140.89   14.20
  -4  -2  11  144.09   13.70
   4   2 -11  164.28   13.20
  -4   2  11  146.39   11.90
  -3  -2  11   12.00    7.60
   3   2 -11   21.70    7.90
  -3   2  11   11.40    7.50
  -2  -2  11   69.19    9.20
  -2   2  11   79.39    9.00
  -1  -2  11   13.10    7.60
  -1   2  11   21.50    6.20
   0  -2  11  870.31   26.70
   0   2  11  821.02   24.90
   1  -2  11  -10.00    7.70
   1   2  11   -8.30    6.90
   2  -2  11  495.45   14.70
   2  -2  11  501.85   20.10
   2   2  11  477.85   18.00
  -4  -3  11   27.50    8.90
  -4   3  11   34.10    8.40
  -3  -3  11   49.40    9.50
   3   3 -11   46.40    9.00
  -3   3  11   55.69    7.80
  -2  -3  11   66.99    9.60
  -2   3  11   77.69    8.30
  -1  -3  11   82.49   10.00
  -1   3  11  104.79   12.00
   0  -3  11   32.20    9.10
   0  -3  11   21.10    2.90
   0   3  11   22.70    7.80
   1  -3  11   10.90    6.80
   1  -3  11    8.30    4.20
   1   3  11   14.80    7.90
   2  -3  11   85.29    8.10
   2  -3  11  104.89   11.20
   2   3  11   99.29    9.90
   2   3  11   81.69    7.60
  -3  -4  11  143.39   14.30
  -3   4  11  129.29   13.20
   3   4 -11  117.29   13.50
  -2  -4  11   -4.20    8.10
  -2   4  11   13.90    7.70
  -1  -4  11   20.70    8.70
  -1  -4  11   12.80    2.50
  -1   4  11    8.20    7.50
   0  -4  11   -4.10    3.40
   0  -4  11    2.20    8.30
   0   4  11   11.60    6.30
   1  -4  11  255.17   14.90
   1  -4  11  262.07   10.90
   1   4  11  269.57   15.20
  -1  -5  11  129.09   12.40
  -1  -5  11  132.69    7.10
  -1   5  11  143.49   13.50
   0   0   0    0.00    0.00

_computing_structure_solution     'SHELXT 2014/5 (Sheldrick, 2014)'
;
_shelx_hkl_checksum              33328
loop_
_space_group_symop_operation_xyz
'x, y, z'
'-x+1/2, y+1/2, -z+1/2'
'-x, -y, -z'
'x-1/2, -y-1/2, z-1/2'
loop_
_atom_site_label
_atom_site_type_symbol
_atom_site_fract_x
_atom_site_fract_y
_atom_site_fract_z
_atom_site_U_iso_or_equiv
_atom_site_adp_type
_atom_site_occupancy
_atom_site_site_symmetry_order
_atom_site_calc_flag
_atom_site_refinement_flags_posn
_atom_site_refinement_flags_adp
_atom_site_refinement_flags_occupancy
_atom_site_disorder_assembly
_atom_site_disorder_group
Cl1 Cl 0.67473(4) 0.37133(4) 0.53770(4) 0.03185(14) Uani 1 1 d . . . . .
O1 O 0.97177(12) 0.46551(13) 0.15926(15) 0.0379(3) Uani 1 1 d . . . . .
H1 H 1.071903 0.460155 0.160244 0.046 Uiso 1 1 d R U . . .
O2 O 0.99791(11) 0.29924(12) 0.31866(14) 0.0324(3) Uani 1 1 d . . . . .
O3 O 0.30471(11) 0.29556(12) 0.33655(12) 0.0296(3) Uani 1 1 d . . . . .
H3 H 0.204154 0.297237 0.329124 0.052(6) Uiso 1 1 d R . . . .
O4 O 0.27773(11) 0.44900(11) 0.15960(12) 0.0270(3) Uani 1 1 d . . . . .
C1 C 0.74579(14) 0.37763(13) 0.24196(15) 0.0173(3) Uani 1 1 d . . . . .
C2 C 0.65185(18) 0.31054(17) 0.35689(19) 0.0178(4) Uani 0.793(3) 1 d . . P A 1
H2 H 0.651990 0.212205 0.351054 0.021 Uiso 0.793(3) 1 calc R U P A 1
C3 C 0.52997(14) 0.37678(13) 0.24409(15) 0.0164(3) Uani 1 1 d . . . . .
C4 C 0.62633(18) 0.3170(2) 0.1251(2) 0.0231(4) Uani 0.793(3) 1 d . . P A 1
H4A H 0.626387 0.219687 0.117852 0.028 Uiso 0.793(3) 1 calc R U P A 1
H4B H 0.615713 0.361125 0.028534 0.028 Uiso 0.793(3) 1 calc R U P A 1
C5 C 0.63701(17) 0.49944(18) 0.2433(2) 0.0208(4) Uani 0.793(3) 1 d . . P A 1
H5A H 0.646696 0.552996 0.333872 0.025 Uiso 0.793(3) 1 calc R U P A 1
H5B H 0.626636 0.553343 0.153039 0.025 Uiso 0.793(3) 1 calc R U P A 1
C6 C 0.91825(14) 0.37731(14) 0.24277(16) 0.0197(3) Uani 1 1 d . . . . .
C7 C 0.35774(14) 0.37697(13) 0.24344(16) 0.0186(3) Uani 1 1 d . . . . .
C2D C 0.6498(6) 0.4404(7) 0.3536(7) 0.0175(15) Uani 0.207(3) 1 d . . P A 2
H2D H 0.649017 0.538875 0.350981 0.021 Uiso 0.207(3) 1 calc R U P A 2
C4D C 0.6332(7) 0.2548(6) 0.2335(8) 0.0184(15) Uani 0.207(3) 1 d . . P A 2
H4DA H 0.621850 0.206906 0.139092 0.022 Uiso 0.207(3) 1 calc R U P A 2
H4DB H 0.641925 0.195483 0.319513 0.022 Uiso 0.207(3) 1 calc R U P A 2
C5D C 0.6212(7) 0.4430(7) 0.1202(8) 0.0221(16) Uani 0.207(3) 1 d . . P A 2
H5DA H 0.619452 0.540394 0.115461 0.027 Uiso 0.207(3) 1 calc R U P A 2
H5DB H 0.609930 0.400298 0.022758 0.027 Uiso 0.207(3) 1 calc R U P A 2
loop_
_atom_site_aniso_label
_atom_site_aniso_U_11
_atom_site_aniso_U_22
_atom_site_aniso_U_33
_atom_site_aniso_U_23
_atom_site_aniso_U_13
_atom_site_aniso_U_12
Cl1 0.0276(2) 0.0452(3) 0.0229(2) -0.00145(16) 0.00294(14) 0.00874(16)
O1 0.0091(5) 0.0470(7) 0.0591(8) 0.0286(6) 0.0100(5) 0.0041(4)
O2 0.0103(5) 0.0407(7) 0.0465(7) 0.0200(5) 0.0043(4) 0.0039(4)
O3 0.0100(5) 0.0416(6) 0.0375(6) 0.0130(5) 0.0036(4) -0.0036(4)
O4 0.0091(4) 0.0336(6) 0.0383(6) 0.0096(5) 0.0024(4) 0.0025(4)
C1 0.0066(5) 0.0214(6) 0.0242(7) 0.0018(5) 0.0030(5) 0.0005(4)
C2 0.0105(7) 0.0202(8) 0.0230(8) -0.0001(7) 0.0037(6) 0.0013(6)
C3 0.0062(5) 0.0186(6) 0.0245(7) 0.0001(5) 0.0024(4) -0.0001(4)
C4 0.0106(7) 0.0331(10) 0.0258(9) -0.0053(8) 0.0020(6) 0.0023(7)
C5 0.0078(7) 0.0207(9) 0.0340(10) 0.0039(7) 0.0026(6) -0.0001(6)
C6 0.0087(6) 0.0244(7) 0.0263(7) 0.0010(6) 0.0035(5) 0.0001(5)
C7 0.0095(6) 0.0201(7) 0.0266(7) -0.0015(5) 0.0031(5) -0.0013(5)
C2D 0.006(3) 0.020(3) 0.025(3) 0.000(3) 0.000(2) 0.001(2)
C4D 0.008(3) 0.015(3) 0.033(4) -0.005(3) 0.006(2) 0.001(2)
C5D 0.008(3) 0.034(4) 0.024(3) 0.012(3) 0.003(2) 0.002(2)
loop_
_atom_type_symbol
_atom_type_description
_atom_type_scat_dispersion_real
_atom_type_scat_dispersion_imag
_atom_type_scat_source
C C 0.0033 0.0016 'International Tables Vol C Tables 4.2.6.8 and 6.1.1.4'
H H 0.0000 0.0000 'International Tables Vol C Tables 4.2.6.8 and 6.1.1.4'
Cl Cl 0.1484 0.1585 'International Tables Vol C Tables 4.2.6.8 and 6.1.1.4'
O O 0.0106 0.0060 'International Tables Vol C Tables 4.2.6.8 and 6.1.1.4'
loop_
_geom_angle_atom_site_label_1
_geom_angle_atom_site_label_2
_geom_angle_atom_site_label_3
_geom_angle
C6 O1 H1 111.3
C7 O3 H3 110.5
C6 C1 C2D 127.5(2)
C6 C1 C4 127.32(12)
C6 C1 C2 125.80(12)
C4 C1 C2 86.38(11)
C6 C1 C5 127.44(12)
C4 C1 C5 87.50(12)
C2 C1 C5 89.26(11)
C6 C1 C4D 127.6(2)
C2D C1 C4D 89.5(3)
C6 C1 C5D 127.2(2)
C2D C1 C5D 85.5(4)
C4D C1 C5D 85.5(4)
C6 C1 C3 179.04(12)
C2D C1 C3 52.0(2)
C4 C1 C3 53.25(8)
C2 C1 C3 53.25(8)
C5 C1 C3 52.94(8)
C4D C1 C3 52.0(2)
C5D C1 C3 53.7(2)
C1 C2 C3 74.00(10)
C1 C2 Cl1 117.83(11)
C3 C2 Cl1 118.84(11)
C1 C2 H2 113.5
C3 C2 H2 113.5
Cl1 C2 H2 113.5
C7 C3 C2D 128.5(3)
C7 C3 C4D 126.1(2)
C2D C3 C4D 91.1(3)
C7 C3 C5 126.59(12)
C7 C3 C4 126.81(12)
C5 C3 C4 87.15(12)
C7 C3 C2 128.12(12)
C5 C3 C2 88.98(11)
C4 C3 C2 85.60(11)
C7 C3 C5D 124.0(2)
C2D C3 C5D 86.5(4)
C4D C3 C5D 88.0(4)
C7 C3 C1 179.11(12)
C2D C3 C1 52.0(2)
C4D C3 C1 54.2(2)
C5 C3 C1 53.06(8)
C4 C3 C1 52.64(8)
C2 C3 C1 52.75(8)
C5D C3 C1 55.1(2)
C1 C4 C3 74.12(11)
C1 C4 H4A 116.1
C3 C4 H4A 116.1
C1 C4 H4B 116.1
C3 C4 H4B 116.1
H4A C4 H4B 113.1
C3 C5 C1 74.00(10)
C3 C5 H5A 116.1
C1 C5 H5A 116.1
C3 C5 H5B 116.1
C1 C5 H5B 116.1
H5A C5 H5B 113.1
O2 C6 O1 124.86(12)
O2 C6 C1 120.93(12)
O1 C6 C1 114.20(12)
O4 C7 O3 125.17(12)
O4 C7 C3 120.58(12)
O3 C7 C3 114.25(12)
C1 C2D C3 76.0(3)
C1 C2D Cl1 116.0(4)
C3 C2D Cl1 117.6(4)
C1 C2D H2D 114.0
C3 C2D H2D 114.0
Cl1 C2D H2D 114.0
C3 C4D C1 73.7(3)
C3 C4D H4DA 116.1
C1 C4D H4DA 116.1
C3 C4D H4DB 116.1
C1 C4D H4DB 116.1
H4DA C4D H4DB 113.1
C3 C5D C1 71.2(3)
C3 C5D H5DA 116.5
C1 C5D H5DA 116.5
C3 C5D H5DB 116.5
C1 C5D H5DB 116.5
H5DA C5D H5DB 113.5
loop_
_geom_bond_atom_site_label_1
_geom_bond_atom_site_label_2
_geom_bond_distance
Cl1 C2 1.7639(18)
Cl1 C2D 1.823(7)
O1 C6 1.2928(17)
O1 H1 0.8679
O2 C6 1.2241(17)
O3 C7 1.3033(17)
O3 H3 0.8671
O4 C7 1.2273(17)
C1 C6 1.4927(17)
C1 C2D 1.519(6)
C1 C4 1.546(2)
C1 C2 1.549(2)
C1 C5 1.556(2)
C1 C4D 1.581(6)
C1 C5D 1.620(6)
C1 C3 1.8707(17)
C2 C3 1.559(2)
C2 H2 1.0000
C3 C7 1.4907(16)
C3 C2D 1.519(6)
C3 C4D 1.536(6)
C3 C5 1.553(2)
C3 C4 1.558(2)
C3 C5D 1.594(6)
C4 H4A 0.9900
C4 H4B 0.9900
C5 H5A 0.9900
C5 H5B 0.9900
C2D H2D 1.0000
C4D H4DA 0.9900
C4D H4DB 0.9900
C5D H5DA 0.9900
C5D H5DB 0.9900
loop_
_geom_hbond_atom_site_label_D
_geom_hbond_atom_site_label_H
_geom_hbond_atom_site_label_A
_geom_hbond_distance_DH
_geom_hbond_distance_HA
_geom_hbond_distance_DA
_geom_hbond_angle_DHA
_geom_hbond_site_symmetry_A
_geom_hbond_publ_flag
O1 H1 O4 0.87 1.79 2.6542(13) 179.2 1_655 yes
O3 H3 O2 0.87 1.78 2.6463(14) 178.5 1_455 yes
