#------------------------------------------------------------------------------
#$Date: 2017-11-07 02:59:46 +0200 (Tue, 07 Nov 2017) $
#$Revision: 202755 $
#$URL: file:///home/coder/svn-repositories/cod/cif/4/03/30/4033000.cif $
#------------------------------------------------------------------------------
#
# This file is available in the Crystallography Open Database (COD),
# http://www.crystallography.net/
#
# All data on this site have been placed in the public domain by the
# contributors.
#
data_4033000
loop_
_publ_author_name
'Takahashi, Yuka'
'Ikeda, Hirotaka'
'Kanase, Yuki'
'Makino, Kosho'
'Tabata, Hidetsugu'
'Oshitari, Tetsuta'
'Inagaki, Satoshi'
'Otani, Yuko'
'Natsugari, Hideaki'
'Takahashi, Hideyo'
'Ohwada, Tomohiko'
_publ_section_title
;
 Elucidation of the E-Amide Preference of N-Acyl Azoles.
;
_journal_issue                   21
_journal_name_full               'The Journal of organic chemistry'
_journal_page_first              11370
_journal_page_last               11382
_journal_paper_doi               10.1021/acs.joc.7b01759
_journal_volume                  82
_journal_year                    2017
_chemical_formula_moiety         'C12 H9 Cl3 N2 O'
_chemical_formula_sum            'C12 H9 Cl3 N2 O'
_chemical_formula_weight         303.57
_space_group_crystal_system      triclinic
_space_group_IT_number           2
_space_group_name_Hall           '-P 1'
_space_group_name_H-M_alt        'P -1'
_symmetry_space_group_name_Hall  '-P 1'
_symmetry_space_group_name_H-M   'P -1'
_atom_sites_solution_hydrogens   geom
_atom_sites_solution_primary     direct
_atom_sites_solution_secondary   difmap
_cell_angle_alpha                83.3108(15)
_cell_angle_beta                 77.0843(15)
_cell_angle_gamma                85.4068(14)
_cell_formula_units_Z            2
_cell_length_a                   6.79356(16)
_cell_length_b                   8.7199(2)
_cell_length_c                   11.4031(3)
_cell_measurement_reflns_used    4220
_cell_measurement_temperature    173
_cell_measurement_theta_max      68.05
_cell_measurement_theta_min      4.00
_cell_volume                     652.92(3)
_computing_cell_refinement       'RAPID AUTO'
_computing_data_collection       'RAPID AUTO (Rigaku, ????)'
_computing_data_reduction        'RAPID AUTO'
_computing_molecular_graphics    'CrystalStructure 4.2.2'
_computing_publication_material  'CrystalStructure 4.2.2 (Rigaku, 2016)'
_computing_structure_refinement  'SHELXL97 (Sheldrick, 2008)'
_computing_structure_solution    'SIR92 (Altomare, et al., 1994)'
_diffrn_ambient_temperature      173
_diffrn_detector_area_resol_mean 10.000
_diffrn_measured_fraction_theta_full 0.976
_diffrn_measured_fraction_theta_max 0.974
_diffrn_measurement_device_type  'Rigaku R-AXIS RAPID'
_diffrn_measurement_method       \w
_diffrn_radiation_type           'Cu K\a'
_diffrn_radiation_wavelength     1.54187
_diffrn_reflns_av_R_equivalents  0.0628
_diffrn_reflns_Laue_measured_fraction_full 0.976
_diffrn_reflns_Laue_measured_fraction_max 0.974
_diffrn_reflns_limit_h_max       8
_diffrn_reflns_limit_h_min       -8
_diffrn_reflns_limit_k_max       10
_diffrn_reflns_limit_k_min       -10
_diffrn_reflns_limit_l_max       13
_diffrn_reflns_limit_l_min       -13
_diffrn_reflns_number            6952
_diffrn_reflns_point_group_measured_fraction_full 0.976
_diffrn_reflns_point_group_measured_fraction_max 0.974
_diffrn_reflns_theta_full        67.687
_diffrn_reflns_theta_max         68.214
_diffrn_reflns_theta_min         3.998
_diffrn_standards_number         0
_exptl_absorpt_coefficient_mu    6.266
_exptl_absorpt_correction_T_max  0.731
_exptl_absorpt_correction_T_min  0.603
_exptl_absorpt_correction_type   multi-scan
_exptl_absorpt_process_details   'ABSCOR (Rigaku, 1995)'
_exptl_crystal_colour            colorless
_exptl_crystal_density_diffrn    1.544
_exptl_crystal_density_method    'not measured'
_exptl_crystal_description       block
_exptl_crystal_F_000             308.00
_exptl_crystal_size_max          0.150
_exptl_crystal_size_mid          0.100
_exptl_crystal_size_min          0.050
_refine_diff_density_max         0.64
_refine_diff_density_min         -0.81
_refine_ls_extinction_method     none
_refine_ls_goodness_of_fit_ref   1.352
_refine_ls_hydrogen_treatment    constr
_refine_ls_number_parameters     163
_refine_ls_number_reflns         2331
_refine_ls_number_restraints     0
_refine_ls_R_factor_all          0.1638
_refine_ls_R_factor_gt           0.0836
_refine_ls_shift/su_max          0.000
_refine_ls_structure_factor_coef Fsqd
_refine_ls_weighting_details
'w = 1/[\s^2^(Fo^2^)+3.0000P] where P=(Fo^2^+2Fc^2^)/3'
_refine_ls_weighting_scheme      calc
_refine_ls_wR_factor_gt          0.1459
_refine_ls_wR_factor_ref         0.2090
_reflns_Friedel_coverage         0.000
_reflns_number_gt                1076
_reflns_number_total             2331
_reflns_threshold_expression     F^2^>2.0\s(F^2^)
_cod_data_source_file            jo7b01759_si_002.cif
_cod_data_source_block           150311_YT3-36-40_compound_13b
_cod_depositor_comments
'Adding full bibliography for 4032995--4033001.cif.'
_cod_database_code               4033000
_shelxl_version_number           2013-4
_shelx_res_file
;
TITL 150311(YT3-36-40)
CELL  1.54187 6.79356 8.71992 11.40311 83.31080 77.08430 85.40680
ZERR  2 0.00016 0.00020 0.00028 0.00150 0.00150 0.00140
LATT 1
SFAC C H O N CL
UNIT 24 18 2 4 6
L.S. 15
FMAP 2
PLAN 20
WPDB -2
HTAB
BOND $H
CONF
LIST 4
TEMP -100.0
ACTA
SIZE 0.150 0.100 0.050
WGHT    0.000000    3.000000
FVAR       1.21796
CL1   5    0.223410    0.469374    0.301556    11.00000    0.05399    0.05303 =
         0.05808    0.00053   -0.00054   -0.01953
CL2   5    0.025650   -0.119755    0.303070    11.00000    0.04807    0.04998 =
         0.06209   -0.01070   -0.00109   -0.00617
CL3   5   -0.502012    0.281950    0.548094    11.00000    0.04349    0.06124 =
         0.06289   -0.00283    0.00662   -0.00435
O1    3    0.440842    0.063922    0.290379    11.00000    0.03837    0.06877 =
         0.05302    0.00952   -0.00642    0.00209
N1    4    0.363633    0.194540    0.119587    11.00000    0.03003    0.04459 =
         0.04864    0.00612   -0.00527   -0.00005
N2    4    0.212772    0.273597    0.066593    11.00000    0.03518    0.04602 =
         0.04261   -0.00249   -0.00394    0.00600
C1    1    0.307741    0.314308   -0.045365    11.00000    0.04187    0.04149 =
         0.03940   -0.00039   -0.00281    0.00546
C2    1    0.513148    0.259300   -0.068242    11.00000    0.05266    0.05345 =
         0.04760    0.00350    0.00312   -0.00116
AFIX  43
H1    2    0.607882    0.271627   -0.143350    11.00000   -1.20000
AFIX   0
C3    1    0.549669    0.185616    0.037130    11.00000    0.02465    0.05080 =
         0.05948    0.00061   -0.00210   -0.00178
C4    1    0.193551    0.403906   -0.132533    11.00000    0.08296    0.06153 =
         0.04170    0.00356   -0.01498    0.00326
AFIX  33
H2    2    0.137662    0.502103   -0.101576    11.00000   -1.20000
H3    2    0.083144    0.343426   -0.141371    11.00000   -1.20000
H4    2    0.285522    0.424508   -0.211388    11.00000   -1.20000
AFIX   0
C5    1    0.738651    0.109447    0.065770    11.00000    0.02918    0.06399 =
         0.06967    0.00392    0.00023    0.00120
AFIX  33
H5    2    0.783554    0.167091    0.122933    11.00000   -1.20000
H6    2    0.843715    0.107560   -0.008645    11.00000   -1.20000
H7    2    0.713648    0.003321    0.101960    11.00000   -1.20000
AFIX   0
C6    1    0.318029    0.137725    0.241230    11.00000    0.04552    0.04698 =
         0.04379    0.00836   -0.00955   -0.01104
C7    1    0.106865    0.178439    0.308530    11.00000    0.02311    0.04502 =
         0.04428    0.00184   -0.00349   -0.00410
C8    1    0.053487    0.324990    0.344735    11.00000    0.02995    0.04654 =
         0.04200    0.00546   -0.00471   -0.00886
C9    1   -0.135902    0.361328    0.416284    11.00000    0.03515    0.03625 =
         0.04887    0.00718   -0.00400   -0.00626
AFIX  43
H8    2   -0.172280    0.463220    0.438289    11.00000   -1.20000
AFIX   0
C10   1   -0.269409    0.244202    0.454297    11.00000    0.03202    0.06911 =
         0.03685   -0.00106   -0.00356   -0.00813
C11   1   -0.221949    0.093825    0.420424    11.00000    0.03835    0.05384 =
         0.04351    0.00237   -0.00820   -0.01086
AFIX  43
H9    2   -0.316016    0.015319    0.446114    11.00000   -1.20000
AFIX   0
C12   1   -0.030624    0.063535    0.347262    11.00000    0.04623    0.03914 =
         0.04075   -0.00102   -0.00635   -0.00850
HKLF 4

REM  150311(YT3-36-40)
REM R1 =  0.0836 for    1076 Fo > 4sig(Fo)  and  0.1638 for all    2331 data
REM    163 parameters refined using      0 restraints

END

WGHT      0.1062      3.5378

REM Instructions for potential hydrogen bonds
EQIV $1 -x+1, -y+1, -z
HTAB C2 Cl1_$1
EQIV $2 -x-1, -y, -z+1
HTAB C11 Cl3_$2

REM Highest difference peak  0.638,  deepest hole -0.809,  1-sigma level  0.156
Q1    1   0.1710 -0.1922  0.3752  11.00000  0.05    0.64
Q2    1   0.1157  0.3831  0.2430  11.00000  0.05    0.63
Q3    1  -0.3898  0.3468  0.5951  11.00000  0.05    0.60
Q4    1  -0.0954 -0.1963  0.2450  11.00000  0.05    0.59
Q5    1   0.3667  0.5533  0.3480  11.00000  0.05    0.57
Q6    1  -0.2150  0.0917  0.5779  11.00000  0.05    0.56
Q7    1   0.5000  0.3753 -0.3146  11.00000  0.05    0.55
Q8    1  -0.6155  0.1993  0.4997  11.00000  0.05    0.55
Q9    1  -0.4867  0.4572  0.6029  11.00000  0.05    0.55
Q10   1   0.3568  0.3835  0.3814  11.00000  0.05    0.54
Q11   1   0.0380 -0.1199  0.3380  11.00000  0.05    0.54
Q12   1  -0.3139 -0.1167  0.5321  11.00000  0.05    0.53
Q13   1   0.2382  0.6485  0.3596  11.00000  0.05    0.53
Q14   1  -0.1915  0.2778  0.3312  11.00000  0.05    0.52
Q15   1   0.1412 -0.0342  0.3581  11.00000  0.05    0.51
Q16   1   0.1749  0.6361  0.2731  11.00000  0.05    0.49
Q17   1  -0.0666  0.4689  0.5049  11.00000  0.05    0.49
Q18   1   0.1850  0.3020 -0.2477  11.00000  0.05    0.48
Q19   1  -0.5597  0.1785  0.4674  11.00000  0.05    0.48
Q20   1   0.2106  0.1680 -0.2053  11.00000  0.05    0.48
;
_shelx_res_checksum              67534
_shelx_hkl_file
;
   0   0   1  861.63   35.13
   0   0   1  930.87   29.21
   0   0   1  939.17   27.70
   0   0   1  959.30   28.86
   0   0  -1  874.31   27.06
   0   0  -1  875.78   29.13
   0   0  -1  851.65   26.79
   0   0   2   -0.36    4.95
   0   0   2    3.39    4.56
   0   0  -2    6.80    4.15
   0   0  -2    0.94    5.05
   0   0  -2    2.21    4.26
   0   0   3 4294.94  210.68
   0   0   3 4186.36  190.09
   0   0   3 4198.76  198.49
   0   0  -3 4114.26  194.21
   0   0  -3 4085.27  191.81
   0   0  -3 4048.93  203.33
   0   0   4   26.88    9.19
   0   0   4    2.43   13.05
   0   0   4   32.64   10.63
   0   0  -4   32.49    9.88
   0   0  -4   23.84   13.12
   0   0  -4   34.69   10.61
   0   0   5 5154.04  287.12
   0   0   5 4874.82  260.41
   0   0   5 4834.99  250.53
   0   0  -5 4778.96  257.71
   0   0  -5 4808.27  279.80
   0   0  -5 4732.44  252.73
   0   0   6   11.46   19.84
   0   0   6   93.16   14.71
   0   0   6    0.18   20.14
   0   0   6   73.56   17.10
   0   0  -6   83.18   16.73
   0   0  -6   43.22   24.45
   0   0   7 1030.85   90.80
   0   0   7 1180.93   85.53
   0   0  -7 1005.69   75.84
   0   0  -7 1127.16   79.77
   0   0  -7 1073.34  102.29
   0   0   8 2059.52  165.42
   0   0   8 2008.75  133.76
   0   0  -8 1953.55  144.67
   0   0  -8 2059.08  135.97
   0   0   9   -0.75   15.16
   0   0   9   33.04   24.68
   0   0  -9   49.26   17.73
   0   0  -9   29.88   17.28
   0   0  10  -12.75   17.60
   0   0 -10   -3.23   11.63
   0   0 -10   -1.89   12.47
   0   0  11   46.14   37.85
   0   0 -11   60.04   24.80
   0   0  12   94.49   41.46
   0   0 -12  229.46   50.91
   0   0  13    1.38    8.58
   0   1 -12   -0.76    5.85
   0  -1  12    1.16    6.93
   0   1 -11    0.02   10.02
   0   1 -11    3.39   16.20
   0  -1  11    8.24   20.33
   0   1 -10   21.26   17.81
   0   1 -10   19.15   26.35
   0  -1  10    5.25   22.05
   0   1  -9   10.72   14.40
   0   1  -9   10.38   15.20
   0  -1   9    9.89   17.74
   0   1  -8   21.89   11.48
   0   1  -8   -0.78   11.79
   0  -1   8    9.43   13.26
   0  -1   8   -0.32    8.47
   0   1  -7  309.59   37.59
   0   1  -7  319.81   39.83
   0  -1   7  341.45   40.26
   0  -1   7  288.31   29.42
   0  -1   7  267.78   42.46
   0   1  -6   90.21   19.50
   0   1  -6   98.05   20.61
   0  -1   6   84.61   20.14
   0  -1   6   68.34   21.47
   0  -1   6   87.53   14.58
   0   1  -5  168.36   25.05
   0   1  -5  162.91   23.54
   0  -1   5  179.54   17.76
   0  -1   5  167.94   25.10
   0  -1   5  156.72   24.57
   0   1  -4  852.79   53.80
   0   1  -4  798.26   54.77
   0   1  -4  832.09   49.70
   0  -1   4  803.13   41.19
   0  -1   4  866.16   53.41
   0   1  -3  701.92   35.07
   0   1  -3  694.26   41.71
   0   1  -3  699.96   44.67
   0   1  -3  719.53   42.74
   0  -1   3  722.30   45.47
   0  -1   3  704.20   43.05
   0   1  -2  253.21   21.86
   0   1  -2  237.21   24.48
   0   1  -2  244.50    8.19
   0   1  -2  263.11   17.53
   0   1  -2  241.14   19.81
   0  -1   2  254.06   24.79
   0  -1   2  266.95   22.93
   0   1  -1  884.02   30.14
   0   1  -1  938.37   38.26
   0   1  -1  967.48   41.25
   0   1  -1  956.17   34.42
   0  -1   1  971.09   39.90
   0  -1   1 1014.43   56.03
   0   1   0  490.55   20.62
   0   1   0  501.94   19.47
   0   1   0  484.94   25.91
   0   1   0  508.20   20.49
   0  -1   0  499.49   20.72
   0  -1   0  526.42   20.68
   0  -1   0  480.65   19.07
   0  -1   0  515.44   27.05
   0   1   1  731.60   30.35
   0   1   1  720.02   31.71
   0   1   1  747.61   26.49
   0   1   1  727.29   30.04
   0  -1  -1  708.78   31.09
   0  -1  -1  707.41   25.69
   0  -1  -1  701.68   30.02
   0  -1  -1  748.64   31.81
   0   1   2  152.84   16.77
   0   1   2  147.23   17.02
   0   1   2  154.38   17.10
   0  -1  -2  153.16   13.05
   0  -1  -2  135.70   12.69
   0  -1  -2  110.31   24.61
   0  -1  -2  146.99   16.94
   0  -1  -2  151.47   16.01
   0  -1  -2  148.17   14.50
   0   1   3  261.33   26.48
   0   1   3  230.93   23.99
   0  -1  -3  253.29   19.76
   0  -1  -3  243.35   18.82
   0  -1  -3  239.68   25.80
   0  -1  -3  243.60   16.46
   0  -1  -3  238.96   23.82
   0  -1  -3  227.23   22.47
   0   1   4  139.44   19.35
   0   1   4  122.87   22.14
   0  -1  -4  107.95   17.90
   0  -1  -4  135.89   14.91
   0  -1  -4  153.34   15.79
   0  -1  -4  141.66   22.09
   0  -1  -4  129.99   19.36
   0   1   5   15.98   10.19
   0   1   5   29.16   11.29
   0   1   5   38.57   13.05
   0  -1  -5   14.12    8.35
   0  -1  -5    9.51   10.45
   0  -1  -5   19.38    9.01
   0  -1  -5   11.66   12.95
   0   1   6  403.03   44.31
   0   1   6  380.06   37.95
   0   1   6  326.56   33.51
   0  -1  -6  370.02   31.25
   0  -1  -6  365.63   29.99
   0  -1  -6  360.14   35.02
   0  -1  -6  337.66   44.19
   0   1   7  162.50   35.74
   0   1   7  179.60   28.65
   0   1   7  181.46   25.31
   0   1   7   97.69   34.84
   0  -1  -7  146.02   23.17
   0  -1  -7  173.58   24.09
   0  -1  -7  146.36   27.06
   0   1   8    2.29   13.62
   0   1   8   -4.92    9.22
   0  -1  -8    0.68    9.96
   0  -1  -8   -8.38    8.53
   0   1   9    0.49   10.09
   0   1   9   -6.00   16.89
   0  -1  -9   -5.38   10.09
   0  -1  -9   -7.50   11.00
   0   1  10    2.23   11.32
   0   1  10   -8.82   21.24
   0  -1 -10   16.41   13.12
   0   1  11   20.55   28.47
   0  -1 -11   11.35   15.20
   0   1  12   10.21   30.80
   0  -1 -12    6.30   11.41
   0   1  13   -1.70    9.99
   0   2 -12    0.02    8.14
   0   2 -12    9.22   10.11
   0   2 -11  163.72   26.26
   0   2 -11   -0.02   25.77
   0  -2  11    8.24   25.67
   0   2 -10  403.38   62.30
   0   2 -10  581.13   61.71
   0  -2  10   24.96   90.10
   0   2  -9    1.67   39.60
   0   2  -9   61.33   25.06
   0  -2   9   58.32   26.16
   0   2  -8    1.44   11.48
   0   2  -8   -2.74   11.19
   0  -2   8   -8.72   11.25
   0   2  -7   47.35   20.13
   0   2  -7   41.38   21.08
   0  -2   7   42.99   19.30
   0  -2   7   54.99   13.14
   0   2  -6  503.27   47.85
   0   2  -6  514.83   51.40
   0  -2   6  457.27   48.96
   0  -2   6  517.03   47.56
   0  -2   6  538.41   49.25
   0   2  -5   77.52   18.71
   0   2  -5   70.64   20.68
   0  -2   5  110.08   31.10
   0  -2   5   80.99   16.23
   0   2  -4  286.82   33.43
   0   2  -4  313.18   22.42
   0   2  -4  304.34   29.69
   0  -2   4  283.37   25.45
   0  -2   4  311.28   31.95
   0  -2   4  330.95   34.55
   0  -2   4  286.07   31.56
   0   2  -3 4364.50  175.91
   0   2  -3 4519.18  236.09
   0   2  -3 4736.29  218.37
   0   2  -3 4211.22  170.68
   0   2  -3 4240.79  216.87
   0  -2   3 4691.26  245.01
   0  -2   3 4511.14  208.72
   0  -2   3 4673.45  237.55
   0   2  -2 1277.76   69.97
   0   2  -2 1251.66   49.86
   0   2  -2 1250.51   55.53
   0   2  -2 1215.77   62.76
   0  -2   2 1280.50   86.77
   0  -2   2 1309.19   70.55
   0   2  -1    8.57    9.01
   0   2  -1   -0.45    5.74
   0   2  -1    3.50   12.06
   0   2  -1    9.31    7.40
   0  -2   1   12.60    7.06
   0  -2   1    6.80    6.91
   0   2   0 1602.69   73.25
   0   2   0 1603.19   77.77
   0   2   0 1685.82   77.58
   0   2   0 1606.20   79.78
   0  -2   0 1616.53   80.67
   0  -2   0 1654.00   80.99
   0  -2   0 1634.76   75.56
   0  -2   0 1635.44   76.38
   0   2   1  672.50   44.19
   0   2   1  638.15   41.28
   0   2   1  640.53   23.06
   0  -2  -1  635.68   40.54
   0  -2  -1  603.39   37.94
   0  -2  -1  632.93   33.54
   0  -2  -1  653.89   45.62
   0  -2  -1  631.01   42.10
   0   2   214942.82  857.00
   0   2   214405.79  875.35
   0   2   214943.71  896.82
   0   2   214969.19  902.63
   0  -2  -214970.23  899.84
   0  -2  -215410.72  933.46
   0  -2  -215214.29  870.57
   0  -2  -214459.41  883.51
   0   2   3    9.23    6.70
   0   2   3    5.14    6.86
   0   2   3    0.33    8.77
   0   2   3   10.44    8.27
   0  -2  -3    8.41    7.64
   0  -2  -3    9.55    7.21
   0  -2  -3   10.35    5.37
   0  -2  -3   11.72    7.74
   0  -2  -3    9.72    5.50
   0  -2  -3    9.69    8.32
   0   2   4  274.31   21.39
   0   2   4  305.07   28.56
   0   2   4  334.92   44.63
   0  -2  -4  230.88   24.76
   0  -2  -4  285.43   20.92
   0  -2  -4  263.46   25.93
   0  -2  -4  280.45   29.87
   0  -2  -4  286.24   21.05
   0  -2  -4  289.59   28.89
   0   2   5 1171.60   74.86
   0   2   5 1182.62   74.57
   0  -2  -5 1126.32   74.05
   0  -2  -5 1108.69   74.48
   0  -2  -5 1139.15   73.42
   0  -2  -5 1066.83   68.94
   0  -2  -5 1048.65   65.60
   0   2   6   55.10   18.27
   0   2   6   75.38   19.66
   0   2   6   53.75   21.73
   0  -2  -6   29.08   20.56
   0  -2  -6   69.61   26.49
   0  -2  -6   85.77   12.92
   0  -2  -6   73.65   20.96
   0   2   7  534.97   50.11
   0   2   7  462.08   60.00
   0   2   7  435.03   47.56
   0   2   7  545.66   81.57
   0  -2  -7  479.74   53.32
   0  -2  -7  416.38   36.71
   0  -2  -7  436.40   45.77
   0   2   8  117.28   44.58
   0   2   8  154.38   31.57
   0  -2  -8  170.35   30.80
   0   2   9  854.26  122.31
   0   2   9  707.44   78.92
   0  -2  -9  916.97   80.42
   0   2  10   -0.73   38.52
   0   2  10  209.95   66.66
   0  -2 -10  341.26   38.84
   0   2  11   -2.86   23.28
   0   2  11    0.20   10.89
   0  -2 -11   12.06   11.60
   0   2  12   -1.31   27.55
   0  -2 -12    3.48    9.06
   0   2  13    0.34    7.51
   0   3 -12    1.55    8.32
   0   3 -12   11.66    9.96
   0   3 -11   -1.82    9.26
   0   3 -11   -0.05    8.98
   0   3 -10  474.03   61.67
   0   3 -10  318.67   64.34
   0   3  -9   -3.20   12.05
   0   3  -9    5.52   11.08
   0   3  -8   13.39   14.58
   0   3  -8   -0.71   15.88
   0  -3   8    8.12   19.67
   0   3  -7  110.86   30.67
   0   3  -7   -0.47   33.08
   0  -3   7   14.09   16.73
   0   3  -6   98.63   28.06
   0   3  -6  106.59   40.30
   0  -3   6   40.76   19.38
   0  -3   6  122.50   15.81
   0   3  -5 2682.34  135.89
   0   3  -5 2706.74  198.72
   0   3  -5 2771.25  178.72
   0  -3   5 2808.13  212.39
   0  -3   5 2642.25  139.48
   0  -3   5 2896.27  173.78
   0   3  -4  458.29   44.44
   0   3  -4  486.14   31.25
   0   3  -4  500.48   47.81
   0  -3   4  507.57   47.37
   0  -3   4  484.46   45.20
   0   3  -3  209.68   26.09
   0   3  -3  221.65   28.36
   0   3  -3  165.69   15.04
   0   3  -3  195.87   27.26
   0   3  -3  154.43   14.14
   0  -3   3  204.26   17.81
   0  -3   3  234.42   26.48
   0  -3   3  220.88   28.96
   0   3  -2  236.89   19.36
   0   3  -2  236.41   26.96
   0   3  -2  200.13   27.13
   0   3  -2  220.40   19.04
   0  -3   2  226.78   26.12
   0  -3   2  241.18   31.00
   0  -3   2  232.75   28.47
   0   3  -1   10.11    8.44
   0   3  -1   11.94    8.57
   0   3  -1    9.01    7.39
   0   3  -1    6.44    6.66
   0  -3   1   10.03    8.37
   0  -3   1   11.30    8.34
   0  -3   1    7.80    7.13
   0   3   0  637.66   45.08
   0   3   0  660.10   40.59
   0   3   0  682.71   41.19
   0  -3   0  664.63   45.18
   0  -3   0  671.72   44.61
   0  -3   0  660.77   41.83
   0  -3   0  651.34   39.77
   0   3   1  998.95   57.69
   0   3   1  975.15   50.35
   0   3   1  972.42   60.78
   0   3   1  899.17   27.30
   0  -3  -1  983.37   60.80
   0  -3  -1  987.01   58.52
   0  -3  -1  922.00   62.90
   0  -3  -1  963.60   56.40
   0   3   2 6742.05  360.64
   0   3   2 6470.14  354.37
   0   3   2 6458.30  302.79
   0   3   2 6494.98  356.12
   0  -3  -2 6508.15  357.97
   0  -3  -2 6676.13  367.57
   0  -3  -2 6485.13  350.85
   0  -3  -2 6455.99  324.24
   0   3   3 1671.64   93.38
   0   3   3 1624.69   90.85
   0   3   3 1624.57   78.27
   0   3   3 1633.21   95.69
   0  -3  -3 1742.41  101.92
   0  -3  -3 1658.50   98.05
   0  -3  -3 1610.84   90.32
   0  -3  -3 1584.07   73.70
   0   3   4   -0.48    7.20
   0   3   4   -1.61    7.91
   0   3   4    0.42    6.42
   0   3   4    3.15    5.64
   0  -3  -4    3.17    4.47
   0  -3  -4    7.82   10.47
   0  -3  -4    4.65    4.56
   0  -3  -4    6.55    8.12
   0  -3  -4    2.68    6.15
   0  -3  -4    2.92    8.11
   0   3   5   66.23   17.13
   0   3   5   43.62   21.70
   0   3   5   45.50   16.39
   0  -3  -5   78.90   16.05
   0  -3  -5   69.62   11.75
   0  -3  -5   68.94   11.29
   0  -3  -5   44.70   16.90
   0  -3  -5   65.37   20.38
   0   3   6  140.97   21.52
   0   3   6   64.02   20.20
   0   3   6  -15.82   23.26
   0   3   6   43.31   13.73
   0  -3  -6   87.00   20.28
   0  -3  -6   78.64   22.82
   0  -3  -6   86.14   13.56
   0  -3  -6   98.21   14.08
   0   3   7  438.54   51.96
   0   3   7  368.53   63.33
   0  -3  -7  545.22   68.38
   0   3   8   35.87   30.63
   0  -3  -8   55.47   20.82
   0   3   9   -1.05   17.71
   0   3   9   25.98   27.71
   0  -3  -9   31.44   16.94
   0   3  10  203.44   48.14
   0   3  10  122.36   79.92
   0  -3 -10  352.57   46.27
   0   3  11   37.17   35.24
   0   3  11  156.21   67.52
   0  -3 -11  282.96   35.76
   0   3  12   22.48   41.06
   0   3  13    6.89   11.33
   0   4 -11    1.59    9.84
   0   4 -11    2.87    9.99
   0   4 -10   -0.20   26.29
   0   4 -10  103.36   27.82
   0   4  -9   -1.39   16.04
   0   4  -9   13.39   16.29
   0   4  -8  142.75   33.71
   0   4  -8   -2.18   36.66
   0   4  -7  358.83   63.51
   0   4  -7  396.67   58.41
   0   4  -6  275.62   45.48
   0   4  -6  269.29   50.72
   0   4  -5  641.62   69.01
   0   4  -5  576.06   40.74
   0   4  -5  620.06   62.02
   0  -4   5  567.58   42.28
   0   4  -4    9.13   11.34
   0   4  -4    4.71   10.37
   0   4  -4    3.86    6.14
   0  -4   4    3.68   10.49
   0  -4   4    8.63    6.98
   0  -4   4   -0.13   10.87
   0   4  -3  318.44   36.32
   0   4  -3  203.29   25.06
   0   4  -3  361.14   40.60
   0   4  -3  351.49   38.47
   0  -4   3  337.66   27.96
   0  -4   3  355.05   37.97
   0  -4   3  363.40   39.43
   0   4  -2  548.44   35.69
   0   4  -2  568.83   48.30
   0   4  -2  449.55   50.77
   0   4  -2  546.85   48.74
   0  -4   2  517.69   45.78
   0  -4   2  554.74   38.79
   0  -4   2  554.07   49.07
   0   4  -1  280.13   30.49
   0   4  -1  318.35   38.71
   0   4  -1  286.57   31.36
   0  -4   1  296.23   28.31
   0  -4   1  309.43   32.58
   0  -4   1  283.29   32.09
   0   4   0    1.94    7.57
   0   4   0    0.31    9.94
   0   4   0    2.10    6.47
   0  -4   0    6.69    6.38
   0  -4   0    3.77   10.46
   0  -4   0   -1.20    7.45
   0   4   1  103.76   18.22
   0   4   1   88.17   15.29
   0   4   1   63.33   21.66
   0  -4  -1   58.90   21.93
   0  -4  -1   83.27   19.28
   0  -4  -1   54.51   19.31
   0  -4  -1   88.22   14.57
   0   4   2 1280.58   82.27
   0   4   2 1282.56   69.00
   0   4   2 1233.63   85.89
   0  -4  -2 1252.67   82.73
   0  -4  -2 1291.21   91.87
   0  -4  -2 1220.30   80.02
   0  -4  -2 1264.44   80.55
   0   4   3  284.89   35.87
   0   4   3  273.02   23.49
   0   4   3  295.87   36.89
   0  -4  -3  314.86   36.03
   0  -4  -3  280.19   32.34
   0  -4  -3  278.49   23.29
   0  -4  -3  273.36   41.35
   0   4   4   13.03   13.81
   0   4   4   16.14   18.02
   0   4   4   72.33   12.67
   0   4   4   74.95   19.88
   0   4   4  126.22   21.94
   0  -4  -4   18.71   24.65
   0  -4  -4  123.71   19.29
   0  -4  -4   98.99   22.63
   0  -4  -4  112.70   12.09
   0  -4  -4   58.58   12.28
   0   4   5  134.25   28.59
   0   4   5  309.09   36.42
   0   4   5  153.37   27.18
   0   4   5  205.23   43.20
   0   4   5  268.34   31.59
   0  -4  -5  223.23   20.94
   0  -4  -5  254.70   30.73
   0  -4  -5  210.05   21.56
   0  -4  -5  281.17   37.18
   0   4   6  525.40   48.93
   0   4   6  371.26   45.06
   0   4   6  266.62   48.41
   0   4   6  385.27   48.09
   0  -4  -6  494.68   46.50
   0  -4  -6  565.77   55.80
   0   4   7    1.31   31.61
   0  -4  -7  112.60   31.47
   0  -4  -7  155.72   26.30
   0   4   8   -5.21    9.38
   0   4   8  -10.33   10.94
   0  -4  -8    8.28    8.26
   0   4   9   -1.67   11.14
   0   4   9   24.60   14.84
   0  -4  -9   -5.90    9.79
   0   4  10    0.29   20.58
   0   4  10   11.33   30.60
   0  -4 -10   48.27   18.43
   0   4  11   95.72   44.62
   0   4  11   32.19   41.02
   0   4  12    4.14   11.37
   0   5 -11   -5.71   10.65
   0  -5  11   18.07   10.12
   0   5 -10    9.25   10.04
   0  -5  10   -6.83   10.17
   0   5  -9   57.83   24.81
   0   5  -9   -0.28   24.12
   0   5  -8  895.29  114.68
   0   5  -8 1078.33  108.75
   0   5  -7   48.02   24.79
   0   5  -7    1.67   25.21
   0   5  -6  135.90   43.98
   0   5  -6  181.07   43.05
   0   5  -5   47.05   26.13
   0   5  -5   48.21   26.57
   0   5  -4  197.46   38.23
   0   5  -4  228.46   38.27
   0   5  -4  163.51   23.82
   0  -5   4  149.39   23.70
   0   5  -3 1607.85  117.19
   0   5  -3 1781.19  126.98
   0   5  -3 1729.90  125.73
   0  -5   3 1655.01  104.14
   0   5  -2   75.26   21.72
   0   5  -2   76.87   17.05
   0   5  -2   97.56   15.85
   0   5  -2   43.49   16.79
   0  -5   2   35.76   23.47
   0  -5   2  111.19   18.02
   0  -5   2    0.08   21.37
   0  -5   2   69.47   22.67
   0   5  -1 1598.02  138.52
   0   5  -1 1731.47  102.35
   0   5  -1 1774.20  113.89
   0  -5   1 1849.31  115.54
   0  -5   1 1839.23  118.10
   0  -5   1 1841.23  121.01
   0  -5   1 1796.75  135.84
   0   5   0 2415.46  161.45
   0   5   0 2448.44  147.52
   0   5   0 2376.77  141.92
   0  -5   0 2450.31  152.10
   0  -5   0 2463.66  146.54
   0  -5   0 2484.63  153.08
   0   5   1   37.21   14.31
   0   5   1   28.01   15.73
   0   5   1   46.53   19.56
   0  -5  -1   38.79   12.92
   0  -5  -1   47.62   17.96
   0  -5  -1   37.90   16.71
   0   5   2  404.85   48.59
   0   5   2  374.11   49.87
   0   5   2  398.16   42.23
   0  -5  -2  387.79   45.31
   0  -5  -2  412.93   55.77
   0  -5  -2  363.37   33.09
   0  -5  -2  374.20   43.03
   0   5   3    6.90   12.09
   0   5   3   11.54    7.99
   0   5   3    0.48   13.41
   0  -5  -3  -15.50   16.49
   0  -5  -3   14.27   12.37
   0  -5  -3    6.76    7.07
   0  -5  -3   18.22   11.41
   0   5   4 1989.13  175.99
   0  -5  -4 1963.13  139.48
   0  -5  -4 1995.06  128.16
   0  -5  -4 1581.89   99.01
   0   5   5  444.18   58.20
   0  -5  -5  568.69   54.38
   0  -5  -5  630.51   66.89
   0   5   6  177.22   37.30
   0  -5  -6  266.46   38.09
   0  -5  -6  278.89   47.04
   0   5   7   64.19   32.90
   0  -5  -7  320.69   38.78
   0  -5  -7  289.73   48.06
   0   5   8  276.87   55.82
   0  -5  -8  310.24   46.32
   0   5   9  130.97   39.06
   0   5   9   33.14   39.53
   0  -5  -9  176.78   34.40
   0   5  10    5.36   17.10
   0   5  10    9.94   19.26
   0  -5 -10   15.93   14.20
   0   5  11    5.62   11.59
   0   5  11    8.44   13.49
   0   6 -10   14.38   15.02
   0  -6  10   15.84   14.09
   0   6  -9   17.16   25.13
   0  -6   9    4.85   14.86
   0   6  -8    8.76   15.97
   0  -6   8    1.83   15.83
   0  -6   7   20.03   23.67
   0   6  -6   15.76   17.05
   0  -6   6   -4.91   17.43
   0   6  -5   72.27   27.56
   0  -6   5    5.81   28.70
   0   6  -4   19.83   20.50
   0   6  -3  516.92   63.65
   0  -6   3  524.28   65.21
   0  -6   3  416.16   73.79
   0   6  -2  166.50   43.74
   0   6  -2  525.31   78.71
   0  -6   2  386.10   46.97
   0  -6   2  515.50   53.82
   0   6  -1  229.37   37.85
   0   6  -1  145.00   34.28
   0  -6   1  204.19   35.56
   0  -6   1  254.88   38.79
   0   6   0   26.22   16.51
   0   6   0    3.90   17.80
   0  -6   0   39.78   17.08
   0  -6   0   35.87   18.77
   0   6   1   -4.55   12.68
   0   6   1    9.63   10.53
   0  -6  -1   20.45   12.58
   0  -6  -1    8.33    9.79
   0  -6  -1   -2.68   12.05
   0   6   2   -4.01    7.42
   0   6   2   -4.32   17.50
   0  -6  -2    3.69   10.26
   0  -6  -2   -4.05    7.45
   0   6   3    9.20   12.15
   0  -6  -3    3.12   11.32
   0  -6  -3    0.28   13.00
   0   6   4   33.07   22.78
   0  -6  -4   31.24   24.81
   0  -6  -4   57.94   21.48
   0   6   5   18.44   20.48
   0  -6  -5   31.55   18.49
   0  -6  -5   29.58   23.02
   0   6   6  387.09   63.79
   0  -6  -6  452.91   71.00
   0  -6  -6  475.19   55.80
   0   6   7   45.82   30.29
   0  -6  -7  179.95   32.40
   0  -6  -7  114.26   39.66
   0   6   8   24.91   17.31
   0  -6  -8  -18.66   22.67
   0   6   9  -20.89   11.04
   0  -6  -9   15.64    8.93
   0   6  10  -10.13   10.64
   0  -6 -10    2.86    8.07
   0   6  11   -2.94    9.93
   0   7  -8   -2.45   11.45
   0  -7   8    5.72   10.58
   0   7  -7    1.91   27.11
   0  -7   7   65.89   25.42
   0   7  -6  462.93   74.73
   0  -7   6  479.04   71.88
   0   7  -5   -4.90   41.78
   0  -7   5  237.72   42.01
   0   7  -4 1091.93  124.62
   0  -7   4 1201.75  118.68
   0   7  -3  369.32   65.71
   0  -7   3  410.41   65.28
   0   7  -2   17.91   16.14
   0   7  -2   21.72   20.09
   0  -7   2   44.42   21.10
   0  -7   2    1.22   16.19
   0   7  -1  728.47   82.68
   0   7  -1  491.11   73.07
   0  -7   1  812.04   83.05
   0  -7   1  504.79   68.58
   0   7   0   44.91   26.63
   0   7   0   56.97   27.44
   0  -7   0    1.05   26.82
   0  -7   0  163.00   30.30
   0   7   1  862.60   98.85
   0   7   1  589.50  105.99
   0  -7  -1 1018.20   94.15
   0  -7  -1  776.74   90.19
   0   7   2  361.45   66.21
   0  -7  -2  483.34   61.80
   0   7   3   21.85   28.70
   0  -7  -3   78.09   25.74
   0  -7  -3   42.75   27.76
   0   7   4  158.26   51.90
   0  -7  -4  296.78   48.67
   0  -7  -4  288.07   56.66
   0   7   5    9.94   18.60
   0  -7  -5   24.36   16.70
   0  -7  -5   -1.36   20.74
   0   7   6  204.52   53.97
   0  -7  -6  320.02   49.75
   0  -7  -6  338.56   62.19
   0   7   7    8.56   26.52
   0  -7  -7  137.44   27.03
   0  -7  -7   55.73   33.70
   0   7   8   86.08   38.30
   0  -7  -8  141.56   30.84
   0   7   9   91.24   26.02
   0  -7  -9   21.92   19.57
   0   8  -7   -6.23   16.44
   0  -8   7   37.50   16.06
   0   8  -6    0.13   21.57
   0  -8   6   49.01   21.43
   0   8  -5    2.18    9.71
   0  -8   5   -1.46    9.82
   0   8  -4    5.14   13.18
   0  -8   4   -1.08   13.46
   0   8  -3   -0.45    9.92
   0  -8   3   -0.20   10.83
   0   8  -2   -2.50   10.84
   0  -8   2    1.31   12.27
   0   8  -1  107.11   40.21
   0   8  -1  211.80   46.44
   0  -8   1  341.03   76.30
   0   8   0    5.57   19.92
   0   8   0   -2.55   14.89
   0  -8   0   -0.56   13.54
   0  -8   0   20.78   16.13
   0   8   1   17.22   25.31
   0  -8  -1    4.10   36.55
   0  -8  -1   61.18   24.82
   0   8   2  301.05   55.51
   0  -8  -2  343.05   48.92
   0  -8  -2   -3.03   50.09
   0   8   3   51.78   35.42
   0  -8  -3   53.28   33.89
   0  -8  -3  110.23   32.00
   0   8   4   12.79   12.05
   0  -8  -4  -10.41   12.00
   0   8   5   -5.61   16.35
   0  -8  -5  -13.75   17.31
   0  -8  -5   -3.79   14.42
   0   8   6   19.44   45.43
   0  -8  -6  261.66   51.42
   0  -8  -6  294.83   41.07
   0   8   7    9.04   29.27
   0  -8  -7  173.97   27.66
   0   8   8   43.45   23.62
   0   8   9   -0.70    7.59
   0   9  -5   -4.22    7.85
   0  -9   5    9.85    9.79
   0   9  -4    6.41   13.86
   0  -9   4   17.52   16.71
   0   9  -3    9.05   12.58
   0  -9   3    2.12   15.80
   0   9  -2    2.64   44.14
   0  -9   2  191.40   38.44
   0   9  -1    0.52    7.52
   0   9  -1   -4.12   12.50
   0  -9   1   -0.72   10.46
   0   9   0    2.38    9.93
   0  -9   0    0.44    9.03
   0  -9   0    1.42   11.37
   0   9   1   -0.35   12.21
   0  -9  -1   -1.68   12.34
   0  -9  -1    7.93   11.08
   0   9   2    0.86   14.16
   0  -9  -2   -0.29   13.21
   0  -9  -2    8.85   12.63
   0   9   3    1.02   25.82
   0  -9  -3  165.09   36.88
   0  -9  -3    3.82   25.01
   0   9   4    7.48   17.64
   0  -9  -4   12.89   15.32
   0  -9  -4   13.03   17.19
   0   9   5    2.01   30.43
   0  -9  -5  131.17   24.77
   0  -9  -5   54.40   30.07
   0   9   6  -19.25    9.09
   0   9   6   15.42   13.30
   0  -9  -6    7.68    6.66
   0   9   7    2.67    9.48
   0   9   7    1.92    7.95
   0 -10   2   37.25   18.43
   0 -10   1   63.61   22.81
   0  10   0   -0.08    6.93
   0 -10   0   -3.28    8.51
   0  10   1   12.19   29.39
   0 -10  -1  276.57   31.88
   0  10   2   -1.78   10.69
   0 -10  -2   -5.38    9.46
   0  10   3   -3.99   10.96
   0 -10  -3    8.19    9.07
   0  10   4   89.96   24.47
   0  10   4  173.66   31.14
   0  10   5    2.56    6.75
   0  10   5    0.50    7.95
  -1  10   4    5.14    9.78
  -1  10   3    0.64    7.31
  -1  10   2    1.60    8.86
  -1  10   1    6.16   10.70
  -1  10   0    0.02    4.55
  -1   9   7    6.77   10.29
  -1   9   6    2.82    9.27
  -1   9   5  176.83   33.46
  -1   9   5   72.10   29.32
  -1   9   4   18.60   15.81
  -1   9   4   16.66   19.63
   1  -9  -3    0.90    8.66
   1  -9  -3    6.64   10.13
  -1   9   3   -0.49   12.40
   1  -9  -2  245.97   36.76
   1  -9  -2   13.49   22.06
  -1   9   2   -1.07   29.60
   1  -9  -1   70.66   21.59
  -1   9   1    0.93   25.02
  -1   9   0    1.88    9.82
  -1   9   0    0.74   10.94
   1  -9   1  204.67   27.95
  -1   9  -1   -2.11   25.47
  -1   9  -1   24.19   25.10
   1  -9   2    1.80    9.18
  -1   9  -2   -0.14    8.26
   1  -9   3  290.75   38.30
  -1   9  -3   19.32   36.14
   1  -9   4   49.41   21.38
  -1   9  -4    6.61   30.75
   1  -9   5   -1.20    6.86
  -1   9  -5    3.47   10.18
  -1   8   8   -3.38   10.82
  -1   8   7   -3.77   15.21
  -1   8   7   20.21   12.82
  -1   8   6   53.66   21.18
  -1   8   6    1.37   20.07
  -1   8   5    6.71   24.65
   1  -8  -4   70.04   20.14
   1  -8  -4    9.29   25.11
  -1   8   4    6.18   27.82
   1  -8  -3   17.07   25.19
   1  -8  -3  123.64   34.85
  -1   8   3    4.51   28.22
   1  -8  -2  106.97   21.28
   1  -8  -2    6.44   22.05
  -1   8   2    0.46   19.30
  -1   8   2   -1.13   25.69
   1  -8  -1   -2.97   12.69
   1  -8  -1   -0.86   11.63
  -1   8   1    0.52   11.66
  -1   8   1   21.73   14.23
   1  -8   0  134.30   28.92
  -1   8   0   -0.20   26.71
  -1   8   0   47.36   30.13
  -1   8  -1   11.92   22.49
  -1   8  -1    0.41   24.49
   1  -8   2   -1.02   14.25
  -1   8  -2   -1.06   14.38
  -1   8  -2   -7.19   11.17
   1  -8   3   -0.91    8.66
  -1   8  -3    0.81    8.92
   1  -8   4    0.34   11.91
  -1   8  -4   -3.53   12.59
   1  -8   5   -0.46   10.94
  -1   8  -5   -1.67   11.64
   1  -8   6  510.73   63.57
  -1   8  -6  422.11   67.38
   1  -8   7  168.96   28.52
  -1   8  -7   13.15   30.82
  -1   7  10   -4.96   11.33
  -1   7   9    1.02    9.25
  -1   7   7    1.95   11.03
  -1   7   7    5.92   13.60
  -1   7   6  191.70   41.80
  -1   7   6   26.98   58.67
   1  -7  -5   16.31   22.68
   1  -7  -5   31.11   16.03
  -1   7   5    8.07   21.05
   1  -7  -4   85.55   39.65
   1  -7  -4  150.66   29.89
  -1   7   4   85.61   38.80
   1  -7  -3 1298.06  102.81
   1  -7  -3 1015.44  104.84
  -1   7   3 1313.99  123.88
  -1   7   3  569.04   92.19
   1  -7  -2   -0.09   29.07
   1  -7  -2  125.19   27.10
  -1   7   2   91.33   33.53
  -1   7   2   73.12   26.41
   1  -7  -1   41.50   17.22
   1  -7  -1   -0.11   16.55
  -1   7   1    8.54   16.70
  -1   7   1   14.71   20.14
   1  -7   0  263.10   51.72
   1  -7   0   -0.43   28.98
  -1   7   0  114.18   36.79
  -1   7   0  184.70   35.71
   1  -7   1  286.85   46.98
  -1   7  -1  130.84   45.23
  -1   7  -1  276.83   50.04
   1  -7   2  944.68   90.65
  -1   7  -2  907.25   99.82
  -1   7  -2  388.72  104.92
   1  -7   3   31.95   24.59
  -1   7  -3   37.56   27.74
   1  -7   4  342.05   59.08
  -1   7  -4  324.35   66.18
   1  -7   5 1210.93  116.19
  -1   7  -5 1037.87  123.68
   1  -7   6   -0.57   12.48
  -1   7  -6   -2.41   13.12
   1  -7   7  348.43   58.30
  -1   7  -7  304.86   62.46
   1  -7   8   33.50   19.24
  -1   7  -8    4.73   20.28
   1  -7   9   50.43   18.48
  -1   7  -9   14.30   18.79
  -1   6  11   -1.70    7.36
  -1   6  10    0.85    8.80
  -1   6   9  183.09   43.61
  -1   6   8   32.00   25.20
  -1   6   7   -6.31   16.18
  -1   6   7   -6.14   12.16
   1  -6  -6   80.66   36.48
  -1   6   6   76.05   28.59
   1  -6  -5   99.30   23.24
   1  -6  -5   68.50   34.03
  -1   6   5   51.76   29.73
   1  -6  -4  543.12   77.85
   1  -6  -4  638.17   77.59
  -1   6   4  567.55   73.48
   1  -6  -3   37.09   16.93
   1  -6  -3   23.61   20.07
  -1   6   3   39.33   21.24
  -1   6   3   15.06   16.51
   1  -6  -2   51.05   18.79
   1  -6  -2   46.05   21.24
  -1   6   2   25.66   23.26
  -1   6   2   35.61   18.65
   1  -6  -1    1.56    9.31
   1  -6  -1   -5.11   15.44
  -1   6   1   -5.94   11.05
  -1   6   1   -7.09   15.75
   1  -6   0   19.76   16.05
   1  -6   0   30.85   18.01
  -1   6   0   33.73   19.27
  -1   6   0   33.22   19.66
   1  -6   1   36.64   19.88
   1  -6   1  157.73   24.38
  -1   6  -1   35.76   17.53
  -1   6  -1   95.65   27.61
  -1   6  -1   50.23   24.32
   1  -6   2   70.18   19.80
  -1   6  -2    9.58   17.38
  -1   6  -2   16.97   22.69
   1  -6   3  792.25   74.06
  -1   6  -3  839.85   89.02
  -1   6  -3  221.24   74.34
   1  -6   4  104.83   35.86
  -1   6  -4   94.76   36.97
   1  -6   5  -10.78   22.95
  -1   6  -5  110.10   38.31
  -1   6  -6    0.50   71.21
  -1   6  -6  191.12   43.29
   1  -6   7    0.62   20.43
  -1   6  -7   21.37   20.48
   1  -6   8   -1.31   21.31
  -1   6  -8   27.31   20.87
   1  -6   9    0.19   13.07
  -1   6  -9    5.65   12.86
   1  -6  10    5.23    9.43
  -1   6 -10   -0.96    9.22
  -1   5  11    0.69    4.54
  -1   5  11    0.15    7.38
  -1   5  10   -7.28   14.98
  -1   5   9    7.76   16.43
  -1   5   8   30.15   24.72
  -1   5   7   13.04   18.26
   1  -5  -6   35.21   14.06
   1  -5  -6   22.73   20.85
  -1   5   6    4.19   16.11
   1  -5  -5   47.03   24.46
   1  -5  -5   45.58   16.51
   1  -5  -5   50.65   17.14
  -1   5   5   34.90   20.03
   1  -5  -4   60.74   23.96
   1  -5  -4   20.85   22.75
   1  -5  -4   62.00   17.12
  -1   5   4   37.85   20.42
  -1   5   4   38.13   16.37
   1  -5  -3   13.43   10.35
   1  -5  -3    9.18    9.92
   1  -5  -3    9.99   18.97
   1  -5  -3   10.09   13.03
  -1   5   3    8.42   12.52
  -1   5   3    4.41   10.64
  -1   5   3   11.03   12.81
   1  -5  -2  352.51   52.78
   1  -5  -2  338.39   57.28
   1  -5  -2  359.38   36.13
   1  -5  -2  303.31   41.26
  -1   5   2  329.55   38.94
  -1   5   2  351.12   58.49
  -1   5   2  341.91   43.78
   1  -5  -1  860.06   64.41
   1  -5  -1  841.57   63.33
   1  -5  -1  797.89   67.65
   1  -5  -1  907.71   85.91
  -1   5   1  901.67   70.19
  -1   5   1  863.01   72.85
  -1   5   1  847.74   64.27
   1  -5   0   36.76   14.09
   1  -5   0   27.57   12.90
   1  -5   0   24.43   15.17
  -1   5   0   16.85   11.48
  -1   5   0   27.04   16.09
  -1   5   0   34.21   15.80
   1  -5   1  152.24   25.51
   1  -5   1  126.65   21.28
   1  -5   1  165.67   28.84
  -1   5  -1   64.47   27.85
  -1   5  -1  154.04   30.16
  -1   5  -1  130.74   25.85
   1  -5   2    2.22    7.26
   1  -5   2    4.98   11.86
   1  -5   2    1.22   11.08
  -1   5  -2    9.44    9.00
  -1   5  -2    9.98    5.97
  -1   5  -2    0.62   11.69
  -1   5  -3  115.07   28.17
  -1   5  -3  139.97   25.79
  -1   5  -3   53.21   18.64
  -1   5  -4  268.25   47.54
  -1   5  -4  279.65   44.49
  -1   5  -5    0.07    9.83
  -1   5  -5    1.90   10.08
  -1   5  -6  424.26   61.95
  -1   5  -6  355.21   64.28
  -1   5  -7  383.65   67.81
  -1   5  -7  424.39   67.34
  -1   5  -8  250.79   52.86
  -1   5  -8  171.56   52.38
  -1   5  -9   -0.17    9.29
  -1   5 -10   -0.70    9.07
  -1   5 -10   -0.35    9.30
   1  -5  11   16.65    9.26
  -1   5 -11   -8.12    7.46
  -1   4  12    0.81    6.01
  -1   4  11    4.34   19.78
  -1   4  11   57.66   20.33
  -1   4  10  121.93   33.17
  -1   4  10   37.32   30.96
  -1   4   9 1095.14  109.06
  -1   4   9  580.16  155.78
  -1   4   8 1391.30  121.23
  -1   4   8  894.90  136.13
   1  -4  -7  813.78   67.44
   1  -4  -7  864.45   70.28
  -1   4   7  362.36   89.31
  -1   4   7  955.52   86.87
   1  -4  -6   60.19   15.87
   1  -4  -6   80.67   17.28
  -1   4   6    5.27   21.38
  -1   4   6   31.45   15.57
  -1   4   6   -2.11   21.42
   1  -4  -5  353.53   32.10
   1  -4  -5  383.39   36.63
   1  -4  -5  416.16   35.73
   1  -4  -5  358.54   47.26
   1  -4  -5  297.03   56.08
  -1   4   5  327.41   39.51
  -1   4   5  186.26   39.00
  -1   4   5  139.34   45.71
   1  -4  -4 1253.45   91.27
   1  -4  -4 1091.22   67.24
   1  -4  -4 1246.62   75.86
   1  -4  -4 1205.09  108.52
  -1   4   4  930.16   79.52
  -1   4   4 1153.49   83.05
  -1   4   4 1248.69   91.51
   1  -4  -3  942.31   58.18
   1  -4  -3  994.12   86.96
   1  -4  -3  973.67   62.69
   1  -4  -3  969.51   71.90
  -1   4   3  965.58   70.09
  -1   4   3  738.70   59.03
  -1   4   3  934.35   68.79
  -1   4   3 1004.93   66.50
   1  -4  -2  308.49   34.55
   1  -4  -2  328.25   45.96
   1  -4  -2  326.30   33.21
   1  -4  -2  317.01   29.41
  -1   4   2  313.55   31.68
  -1   4   2  292.34   34.17
  -1   4   2  307.42   36.51
   1  -4  -1 1714.53   98.91
   1  -4  -1 1754.51  120.91
   1  -4  -1 1639.82   99.95
   1  -4  -1 1615.36   92.44
  -1   4   1 1642.47   94.30
  -1   4   1 1711.19  103.99
  -1   4   1 1608.46  101.35
   1  -4   0 4580.34  249.39
   1  -4   0 4536.07  258.79
   1  -4   0 4497.53  244.86
  -1   4   0 4727.33  270.30
  -1   4   0 4501.08  259.13
  -1   4   0 4392.86  235.04
   1  -4   1  520.65   35.80
   1  -4   1  533.75   47.99
  -1   4  -1  520.96   49.89
  -1   4  -1  519.58   33.52
  -1   4  -1  530.24   44.02
   1  -4   2  126.18   26.54
   1  -4   2  119.16   14.96
  -1   4  -2  158.49   23.09
  -1   4  -2  139.80   26.28
  -1   4  -2  134.92   20.35
  -1   4  -2  123.43   13.43
   1  -4   3  226.48   45.44
  -1   4  -3  122.79   12.11
  -1   4  -3  121.34   18.80
  -1   4  -3  128.14   25.47
  -1   4  -3  160.57   28.01
   1  -4   4  430.95   50.90
  -1   4  -4  430.37   50.54
  -1   4  -4  382.53   44.28
  -1   4  -5 1047.00   91.70
  -1   4  -5 1037.87   85.32
  -1   4  -6   -3.04   20.40
  -1   4  -6   49.92   18.87
  -1   4  -7  447.27   62.03
  -1   4  -7  404.71   64.05
  -1   4  -8   28.61   19.65
  -1   4  -8   -0.84   19.09
  -1   4  -9  218.77   46.49
  -1   4  -9  128.73   45.15
  -1   4 -10   -0.12    8.82
  -1   4 -10   -0.42    9.61
  -1   4 -11   -6.74   11.80
  -1   4 -11    0.19   10.48
  -1   3  12   -1.68    9.30
  -1   3  11    4.73   15.23
  -1   3  11    7.69   12.90
  -1   3  10  103.90   57.24
  -1   3  10  161.53   77.57
  -1   3   9   21.32   19.52
  -1   3   9   -5.07   13.10
   1  -3  -8  217.74   32.80
   1  -3  -8  220.27   34.35
  -1   3   8  116.30   62.16
  -1   3   8  279.23   46.11
   1  -3  -7   24.54   15.18
   1  -3  -7   44.29   16.18
  -1   3   7   24.77   26.58
  -1   3   7   49.57   21.38
   1  -3  -6   -3.67    4.34
   1  -3  -6    0.31    3.82
   1  -3  -6   12.29    4.43
  -1   3   6    0.69    4.92
  -1   3   6   -4.31    6.25
  -1   3   6   -7.46    5.45
  -1   3   6   -1.73    3.77
   1  -3  -5 1089.56   69.13
   1  -3  -5 1006.70   59.44
   1  -3  -5 1057.57   68.57
   1  -3  -5 1014.68   78.39
   1  -3  -5  918.15   83.91
  -1   3   5  953.88   66.82
  -1   3   5  985.51   59.48
  -1   3   5 1027.91   75.93
  -1   3   5  878.42   77.29
  -1   3   5 1123.17   84.08
   1  -3  -4   79.66   13.40
   1  -3  -4   71.71   22.69
   1  -3  -4   61.87   22.69
   1  -3  -4   98.00   17.81
   1  -3  -4  109.17   17.43
  -1   3   4   70.87   23.02
  -1   3   4   90.51   15.41
  -1   3   4   47.37   15.79
  -1   3   4   69.74   18.22
  -1   3   4   93.08   13.92
   1  -3  -3    3.74    6.05
   1  -3  -3    8.15    8.06
   1  -3  -3   15.13   10.80
   1  -3  -3    9.70    9.43
  -1   3   3    0.40    8.23
  -1   3   3    5.68    7.90
  -1   3   3    9.50    6.55
  -1   3   3   12.37   15.35
  -1   3   3    9.32    5.63
  -1   3   3   -0.27    6.07
   1  -3  -2  218.42   45.07
   1  -3  -2  172.59   24.04
   1  -3  -2  181.71   22.76
   1  -3  -2  187.02   18.54
  -1   3   2  169.82   23.08
  -1   3   2  213.13   24.53
  -1   3   2  165.96   14.37
  -1   3   2  176.48   13.10
  -1   3   2  193.83   24.07
   1  -3  -1   67.98   16.14
   1  -3  -1   77.93   12.37
   1  -3  -1   58.45   23.34
   1  -3  -1   76.83   18.98
  -1   3   1   58.51   14.09
  -1   3   1   63.57   16.93
  -1   3   1   75.02    5.05
  -1   3   1   75.87   16.76
  -1   3   1   67.53    4.76
   1  -3   0  447.69   36.84
   1  -3   0  435.10   38.40
   1  -3   0  435.66   29.00
   1  -3   0  424.15   29.55
  -1   3   0  419.41   36.97
  -1   3   0  407.80   27.77
  -1   3   0  415.55   35.30
   1  -3   1  142.02   21.04
  -1   3  -1  113.92   17.81
  -1   3  -1   95.08   31.50
  -1   3  -1  101.52   11.73
  -1   3  -1  106.85   16.72
   1  -3   2  300.74   33.17
  -1   3  -2  305.36   25.00
  -1   3  -2  307.64   28.56
  -1   3  -2  301.96   33.31
  -1   3  -2  282.62   16.55
   1  -3   3  594.02   49.09
  -1   3  -3  523.56   43.13
  -1   3  -3  548.01   42.97
  -1   3  -3  528.60   48.58
  -1   3  -3  529.55   30.38
  -1   3  -4    3.73    3.04
  -1   3  -4    6.20    9.36
  -1   3  -4    2.84    3.59
  -1   3  -4   15.79   12.09
   1  -3   5   58.21   14.48
   1  -3   5  156.16   25.49
  -1   3  -5  134.53   23.62
  -1   3  -5  166.94   26.43
  -1   3  -6  279.64   39.06
  -1   3  -6  283.22   43.03
  -1   3  -7  209.96   39.19
  -1   3  -7  181.36   37.45
  -1   3  -8  731.57  102.95
  -1   3  -8  594.22   75.69
  -1   3  -9   36.04   20.30
  -1   3  -9   -0.04   19.21
  -1   3 -10    0.08    9.43
  -1   3 -10    1.02   10.21
  -1   3 -11    0.22    6.08
  -1   3 -11   -0.25    7.39
  -1   3 -12   -0.64    4.73
  -1   3 -12   -1.79    8.45
  -1   2  12   11.86   16.29
  -1   2  11  316.46   60.95
  -1   2  11  262.59   47.72
  -1   2  10   16.00   19.02
  -1   2  10   34.35   45.57
   1  -2  -9  -13.50   20.57
  -1   2   9  -16.48   25.12
  -1   2   9    4.52   24.36
   1  -2  -8  287.73   36.08
   1  -2  -8  253.45   40.65
  -1   2   8  314.26   47.46
  -1   2   8  306.19   67.91
   1  -2  -7 1011.25   77.38
   1  -2  -7  906.60   66.94
  -1   2   7 1055.52  112.40
  -1   2   7 1040.31   74.42
  -1   2   7 1013.31   85.43
   1  -2  -6 1677.88   97.94
   1  -2  -6 1884.08  115.03
   1  -2  -6 1740.00  109.25
  -1   2   6 1741.40  136.06
  -1   2   6 1775.96  119.03
  -1   2   6 1821.48  107.98
  -1   2   6 1939.54  133.50
   1  -2  -5  952.52   63.97
   1  -2  -5 1039.65   65.81
   1  -2  -5  893.25   51.92
  -1   2   5 1057.95   73.94
  -1   2   5  990.94   58.81
  -1   2   5 1009.33   74.35
  -1   2   5  910.86   68.73
  -1   2   5  964.74   75.70
   1  -2  -4 1368.26   81.39
   1  -2  -4 1324.30   85.98
   1  -2  -4 1296.34   75.59
   1  -2  -4 1348.44   78.00
   1  -2  -4 1190.08   60.22
  -1   2   4 1399.65   86.56
  -1   2   4 1278.32   80.80
  -1   2   4 1225.70   64.22
  -1   2   4 1402.60   82.21
  -1   2   4 1349.23   69.28
   1  -2  -3 3295.44  189.53
   1  -2  -3 2989.68  154.56
   1  -2  -3 2928.62  159.81
   1  -2  -3 2691.47  143.45
  -1   2   3 3012.66  138.31
  -1   2   3 3016.80  171.28
  -1   2   3 2975.16  151.79
  -1   2   3 3104.85  164.62
  -1   2   3 2852.09  138.78
   1  -2  -2  991.18   56.69
   1  -2  -2  894.53   54.07
   1  -2  -2  902.24   54.21
  -1   2   2  860.04   53.23
  -1   2   2  923.09   45.29
  -1   2   2  911.71   45.91
  -1   2   2  899.68   50.55
  -1   2   2  877.64   40.54
  -1   2   2  913.71   55.88
   1  -2  -1 1240.93   69.10
   1  -2  -1 1347.38   71.67
   1  -2  -1 1265.47   63.30
  -1   2   1 1285.27   49.07
  -1   2   1 1279.08   68.24
  -1   2   1 1253.15   63.73
  -1   2   1 1257.63   92.40
  -1   2   1 1352.99   51.70
   1  -2   0  198.74   23.46
   1  -2   0  227.14   23.23
  -1   2   0  201.71    8.41
  -1   2   0  181.37   16.17
  -1   2   0  182.56   24.04
  -1   2   0  210.05   22.87
   1  -2   1 6372.89  362.39
  -1   2  -1 6054.05  267.28
  -1   2  -1 5901.48  239.34
  -1   2  -1 6370.37  305.15
  -1   2  -1 6426.11  317.95
  -1   2  -1 6217.51  321.07
   1  -2   2 6047.89  315.67
  -1   2  -2 5846.50  308.04
  -1   2  -2 5991.37  287.74
  -1   2  -2 5822.84  267.14
  -1   2  -2 5658.49  281.19
  -1   2  -2 5952.56  248.93
  -1   2  -3   15.43    9.52
  -1   2  -3   14.68    6.60
  -1   2  -3   24.20    3.45
  -1   2  -3   17.81    5.71
  -1   2  -3   15.53   11.45
   1  -2   4  580.65   43.01
  -1   2  -4  524.30   40.78
  -1   2  -4  566.82   44.25
  -1   2  -4  518.79   36.82
  -1   2  -4  498.07   21.68
   1  -2   5  369.38   38.36
  -1   2  -5  341.24   35.06
  -1   2  -5  340.87   35.76
  -1   2  -5  306.39   34.55
   1  -2   6  552.80   49.13
  -1   2  -6  490.76   46.79
  -1   2  -6  327.88   45.02
  -1   2  -6  491.04   47.17
   1  -2   7  561.11   63.82
  -1   2  -7  731.01   63.24
  -1   2  -7  638.66   62.58
   1  -2   8   79.79   28.54
  -1   2  -8  173.19   31.81
  -1   2  -8  114.56   30.59
   1  -2   9  295.75   59.20
  -1   2  -9  411.47   63.32
  -1   2  -9  614.36   63.75
   1  -2  10   55.80   28.48
  -1   2 -10   45.90   26.74
  -1   2 -10  104.62   29.58
   1  -2  11    0.18    9.30
  -1   2 -11    1.73   10.38
  -1   2 -12    0.63    8.59
  -1   2 -13   15.89   12.44
  -1   1  12    3.72   12.87
  -1   1  11   31.49   20.84
  -1   1  11    3.69   14.92
   1  -1 -10   -0.07   14.17
  -1   1  10   13.96   14.34
  -1   1  10   11.74   33.30
   1  -1  -9   46.98   17.87
   1  -1  -9   59.04   21.76
  -1   1   9   43.56   35.91
  -1   1   9   -1.23   21.96
   1  -1  -8  101.35   23.37
   1  -1  -8   44.33   19.32
  -1   1   8   51.47   35.41
   1  -1  -7  808.52   77.01
   1  -1  -7  768.21   67.56
  -1   1   7  813.74   91.90
  -1   1   7  820.47   73.68
  -1   1   7  902.26   66.11
   1  -1  -6  246.61   25.49
   1  -1  -6  256.32   32.40
   1  -1  -6  282.90   33.25
  -1   1   6  235.18   34.69
  -1   1   6  233.95   41.18
  -1   1   6  285.62   40.08
  -1   1   6  281.06   28.62
   1  -1  -5 1918.44   97.06
   1  -1  -5 2045.01  117.39
   1  -1  -5 1879.81  110.51
  -1   1   5 2084.15  128.23
  -1   1   5 2139.39  110.15
  -1   1   5 1889.73  114.54
  -1   1   5 1907.19  125.68
   1  -1  -4   30.85   11.52
   1  -1  -4   26.11    7.09
   1  -1  -4   23.01    7.58
   1  -1  -4   24.34   11.02
  -1   1   4   21.47   12.87
  -1   1   4   30.07   13.27
  -1   1   4   20.80   11.75
  -1   1   4   -0.62   19.84
  -1   1   4   15.05    8.51
   1  -1  -3  432.26   35.52
   1  -1  -3  489.77   26.26
   1  -1  -3  471.75   36.06
  -1   1   3  475.11   38.42
  -1   1   3  441.92   35.31
  -1   1   3  508.09   26.93
  -1   1   3  484.53   37.27
  -1   1   3  485.11   37.52
   1  -1  -2  504.68   29.93
   1  -1  -2  465.87   34.76
   1  -1  -2  334.27   33.29
   1  -1  -2  503.65   37.19
  -1   1   2  474.60   35.38
  -1   1   2  512.71   35.71
  -1   1   2  522.75   32.23
  -1   1   2  500.95   35.47
   1  -1  -1   91.92   15.79
   1  -1  -1   86.32   13.32
   1  -1  -1   88.02   13.76
  -1   1   1   79.32    6.24
  -1   1   1   80.10   21.39
  -1   1   1   94.51   20.46
  -1   1   1   79.49   13.92
  -1   1   1   87.06   15.58
   1  -1   0  702.64   37.78
   1  -1   0  683.01   39.56
  -1   1   0  668.31   38.22
  -1   1   0  696.54   38.02
  -1   1   0  697.36   38.00
  -1   1   0  690.39   28.61
  -1   1   0  675.22   22.89
   1  -1   1  954.74   47.39
  -1   1  -1  940.66   37.87
  -1   1  -1  909.27   35.66
  -1   1  -1  955.03   44.53
  -1   1  -1  932.57   65.51
  -1   1  -1  926.07   25.20
  -1   1  -2 5883.00  276.98
  -1   1  -2 6170.01  299.40
  -1   1  -2 6319.32  298.56
  -1   1  -2 6168.73  278.96
   1  -1   3 5018.12  272.18
  -1   1  -3 4956.23  269.85
  -1   1  -3 4751.30  209.43
  -1   1  -3 4762.31  256.22
  -1   1  -3 4563.10  222.97
   1  -1   4    0.04   14.18
  -1   1  -4   45.30   13.69
  -1   1  -4   51.10    4.01
  -1   1  -4   48.69   22.37
  -1   1  -4   48.32   11.74
   1  -1   5    0.21    8.08
  -1   1  -5    3.07    6.42
  -1   1  -5    4.94    8.23
  -1   1  -5    9.20   12.11
   1  -1   6  100.21   22.47
  -1   1  -6   83.09   25.10
  -1   1  -6   86.11   17.79
  -1   1  -6  113.46   21.57
   1  -1   7  274.53   37.91
  -1   1  -7  207.38   30.90
  -1   1  -7  265.70   46.56
  -1   1  -7  245.99   34.71
   1  -1   8  282.20   49.22
  -1   1  -8  341.35   44.79
  -1   1  -8  272.73   56.39
   1  -1   9   46.80   24.96
  -1   1  -9   81.08   23.96
  -1   1  -9   19.57   20.35
   1  -1  10   19.06   23.75
  -1   1 -10   33.37   21.81
   1  -1  11   14.65   44.14
  -1   1 -11  267.28   40.26
   1  -1  12    8.83   20.57
  -1   1 -12    0.59   20.01
  -1   1 -13    3.38    9.00
   1   0 -12    0.65    4.62
  -1   0  12   -2.83    7.94
   1   0 -11    0.02    8.77
  -1   0  11  -11.07   11.77
  -1   0  11    7.67   12.34
   1   0 -10   -0.01   27.43
   1   0 -10  104.21   23.53
  -1   0  10   28.99   24.82
  -1   0  10  121.00   56.58
   1   0  -9  182.65   34.74
   1   0  -9  229.24   41.96
  -1   0   9  203.38   38.28
  -1   0   9  159.95   57.05
   1   0  -8   11.90    9.64
   1   0  -8   -0.28   12.66
  -1   0   8   -0.76   11.27
  -1   0   8    8.31   15.78
   1   0  -7   15.75   10.38
   1   0  -7   16.12   13.47
  -1   0   7   17.69   16.23
  -1   0   7   12.69   12.33
  -1   0   7    0.82   11.77
   1   0  -6   27.16   10.55
   1   0  -6   17.91   14.78
   1   0  -6   34.03   15.50
  -1   0   6   35.42   17.41
  -1   0   6    0.08   17.51
  -1   0   6   36.24   12.41
  -1   0   6   17.52   20.91
   1   0  -5  734.71   57.87
   1   0  -5  825.67   61.45
   1   0  -5  702.46   55.36
  -1   0   5  855.33   63.56
  -1   0   5  752.36   55.98
  -1   0   5  782.85   46.36
  -1   0   5  767.41   63.92
   1   0  -4  751.37   25.73
   1   0  -4  716.85   49.51
   1   0  -4  822.15   54.99
   1   0  -4  744.45   39.08
  -1   0   4  733.22   51.64
  -1   0   4  707.26   39.52
  -1   0   4  753.18   54.73
  -1   0   4  743.24   56.37
   1   0  -3   80.66    6.03
   1   0  -3   88.72   16.06
   1   0  -3   83.86   24.68
  -1   0   3   77.22   15.29
  -1   0   3   -0.63   16.10
  -1   0   3    0.33   15.49
  -1   0   3   66.80    9.46
  -1   0   3   63.06   16.66
   1   0  -2 6766.90  345.42
   1   0  -2 6712.81  298.54
   1   0  -2 6305.35  324.57
  -1   0   2 6567.48  333.34
  -1   0   2 6594.44  294.64
  -1   0   2 6613.51  341.73
  -1   0   2 6535.61  336.33
  -1   0   2 6613.14  335.12
   1   0  -1  230.22   21.05
   1   0  -1  236.68   15.69
   1   0  -1  238.57   21.01
   1   0  -1  255.43   19.52
   1   0  -1  246.72   21.63
  -1   0   1  261.80   21.55
  -1   0   1  243.94    8.42
  -1   0   1  242.20   20.20
   1   0   0    1.00    5.30
   1   0   0    8.71    4.33
   1   0   0   15.53    4.94
  -1   0   0    8.65    3.87
  -1   0   0    0.00    5.26
  -1   0   0   10.71    0.67
  -1   0   0   14.01    4.77
  -1   0   0   14.80    5.48
   1   0   1 4511.78  183.17
   1   0   1 4729.55  196.75
  -1   0  -1 4025.08  159.62
  -1   0  -1 4522.46  174.00
  -1   0  -1 4578.58  190.22
  -1   0  -1 4286.50  182.85
  -1   0  -1 4481.89  155.52
   1   0   2 2836.68  120.93
   1   0   2 2876.31  125.92
  -1   0  -2 2728.33  138.32
  -1   0  -2 2769.84  150.16
  -1   0  -2 2681.84   87.31
  -1   0  -2 2774.88  104.59
  -1   0  -2 2790.40  111.31
   1   0   314508.36  878.96
   1   0   315558.67  926.76
  -1   0  -315834.36  869.55
  -1   0  -315421.48  871.89
  -1   0  -315072.47  917.64
  -1   0  -315479.02  921.79
   1   0   4 7077.72  379.89
  -1   0  -4 7075.78  317.29
  -1   0  -4 7115.62  384.33
  -1   0  -4 7235.85  396.77
  -1   0  -4 7074.17  353.32
   1   0   5    3.20    5.07
  -1   0  -5   -2.25    5.68
  -1   0  -5   -0.63    5.16
  -1   0  -5    0.18    3.30
   1   0   6 2507.60  175.59
  -1   0  -6 2408.02  142.05
  -1   0  -6 2440.30  159.26
  -1   0  -6 2315.17  125.32
   1   0   7   13.58   12.67
   1   0   7   -0.04    9.49
  -1   0  -7    8.80   11.49
  -1   0  -7    3.00   14.45
  -1   0  -7   12.08    7.68
  -1   0  -8   10.23   10.30
  -1   0  -8    5.32   21.83
  -1   0  -8   11.09    9.68
  -1   0  -8   12.12   18.16
   1   0   9   94.38   40.11
  -1   0  -9  165.71   33.94
   1   0  10  335.90   72.80
  -1   0 -10  420.91   57.44
   1   0  11  243.89   71.15
  -1   0 -11  435.60   57.51
   1   0  12   61.64   53.83
  -1   0 -12  242.58   39.38
   1   0  13    0.96   11.96
  -1   0 -13    9.46   10.87
   1   1 -12    1.42    7.01
  -1  -1  12    1.84    9.32
   1   1 -11    0.24   31.37
   1   1 -11   33.08   16.98
  -1  -1  11   35.11   23.19
   1   1 -10    1.99    7.28
   1   1 -10   -0.23    8.52
  -1  -1  10   -7.10    6.97
  -1  -1  10    8.71    9.49
   1   1  -9  390.59   51.73
   1   1  -9  379.36   59.27
  -1  -1   9  379.31  103.10
  -1  -1   9  386.35   50.43
   1   1  -8  892.01   75.96
   1   1  -8  900.53   87.24
  -1  -1   8  817.40  102.16
  -1  -1   8  869.58   75.32
   1   1  -7   19.78   16.62
   1   1  -7   27.77   12.63
  -1  -1   7   14.52   13.15
  -1  -1   7    5.46   17.73
   1   1  -6  232.84   49.67
   1   1  -6  204.05   24.52
  -1  -1   6  175.71   26.98
  -1  -1   6  167.82   25.06
  -1  -1   6  182.76   33.30
   1   1  -5  702.68   57.78
   1   1  -5  676.97   44.64
  -1  -1   5  692.38   50.98
  -1  -1   5  697.45   58.17
  -1  -1   5  767.41   47.07
   1   1  -4 1944.11  113.73
   1   1  -4 1875.14   93.90
  -1  -1   4 2041.16  117.67
  -1  -1   4 1947.42  104.86
  -1  -1   4 2065.26  101.22
  -1  -1   4 2020.74  115.18
   1   1  -3 1837.05  100.14
   1   1  -3 1744.98   79.93
   1   1  -3 1836.64   59.12
   1   1  -3 1943.76   99.07
  -1  -1   3 1865.54   98.22
  -1  -1   3 1856.38   85.06
  -1  -1   3 1837.67   93.01
  -1  -1   3 1847.89   99.23
   1   1  -2  341.83   27.89
   1   1  -2  324.59   14.50
   1   1  -2  304.58   28.49
  -1  -1   2  308.92   28.75
  -1  -1   2  313.67   29.35
  -1  -1   2  328.47   20.96
  -1  -1   2  320.10   26.63
   1   1  -1 4465.63  235.85
   1   1  -1 4527.18  192.68
   1   1  -1 4519.73  212.59
   1   1  -1 4370.88  205.16
  -1  -1   1 4558.09  212.16
  -1  -1   1 4473.77  207.58
  -1  -1   1 4402.89  204.75
  -1  -1   1 4439.61  188.56
   1   1   0  421.14   24.61
   1   1   0  410.54   24.15
   1   1   0  386.23   23.67
  -1  -1   0  397.05   24.03
  -1  -1   0  397.16   20.21
  -1  -1   0  405.49   23.91
  -1  -1   0  398.77   19.60
  -1  -1   0  391.44   19.93
  -1  -1   0  403.18   24.36
   1   1   1 2033.50   85.45
   1   1   1 2041.87   86.55
  -1  -1  -1 2015.71   80.87
  -1  -1  -1 2001.85   86.33
  -1  -1  -1 1856.69   77.91
  -1  -1  -1 1941.49   82.15
   1   1   2  543.03   36.14
   1   1   2  557.14   37.79
  -1  -1  -2  560.76   33.60
  -1  -1  -2  545.55   42.69
  -1  -1  -2  568.37   55.12
  -1  -1  -2  567.84   36.61
   1   1   3 1755.95   89.76
   1   1   3 1749.52   90.97
  -1  -1  -3 1697.24   86.92
  -1  -1  -3 1774.65   56.56
  -1  -1  -3 1766.38   91.30
  -1  -1  -3 1733.55   76.08
   1   1   4 2844.12  146.52
   1   1   4 2728.96  144.52
  -1  -1  -4 2655.85  137.21
  -1  -1  -4 2645.53  122.84
  -1  -1  -4 2701.82  104.75
  -1  -1  -4 2764.73  146.03
   1   1   5    4.20    9.72
   1   1   5    2.50    9.73
  -1  -1  -5    8.12    4.22
  -1  -1  -5   10.86    5.95
  -1  -1  -5    2.71   14.30
  -1  -1  -5    1.66   10.15
   1   1   6   10.02    6.33
   1   1   6   14.14   10.27
   1   1   6    0.32   10.79
  -1  -1  -6    0.59    5.23
  -1  -1  -6    5.56    4.96
  -1  -1  -6   10.59    9.84
  -1  -1  -6   20.22   11.25
   1   1   7   21.94   10.43
   1   1   7   -0.02   17.53
   1   1   7   48.46   16.26
  -1  -1  -7   29.70    9.03
  -1  -1  -7   34.34   16.07
  -1  -1  -7   14.00    8.98
  -1  -1  -7   48.35   19.28
   1   1   8   16.43   11.38
  -1  -1  -8   46.45   21.99
  -1  -1  -8   20.92   17.47
   1   1   9   82.39   42.88
  -1  -1  -9  153.82   34.04
   1   1  10    4.08   11.42
  -1  -1 -10   -1.78    8.34
   1   1  11  315.74   84.93
  -1  -1 -11  407.37   57.94
   1   1  12   20.01   22.26
  -1  -1 -12    0.93   13.24
   1   1  13   -2.11   20.43
  -1  -1 -13    2.46    8.31
   1   2 -12   -0.42    5.83
   1   2 -11   -0.97    7.33
   1   2 -11    0.03    8.91
  -1  -2  11   -1.03    8.74
   1   2 -10  114.81   27.67
   1   2 -10  110.84   48.02
  -1  -2  10    5.33   31.24
   1   2  -9    0.73   17.17
   1   2  -9   36.79   15.13
  -1  -2   9    0.50   16.58
  -1  -2   9   -0.04   13.11
   1   2  -8  259.83   49.36
   1   2  -8  281.24   42.34
  -1  -2   8  263.64   38.35
  -1  -2   8  190.69   48.82
   1   2  -7   -2.21   17.28
   1   2  -7   20.20   21.24
  -1  -2   7   31.66   20.26
  -1  -2   7   20.49   25.01
   1   2  -6   10.85   14.51
   1   2  -6   -5.33   11.08
  -1  -2   6    9.18   11.09
  -1  -2   6   21.20   10.63
  -1  -2   6   26.60   12.85
   1   2  -5  358.16   43.63
   1   2  -5  371.10   35.33
  -1  -2   5  360.01   35.39
  -1  -2   5  362.03   34.21
  -1  -2   5  341.91   38.71
  -1  -2   5  403.82   44.02
   1   2  -4  146.15   20.83
   1   2  -4  159.55   26.75
  -1  -2   4  132.74   22.35
  -1  -2   4  142.72   26.50
  -1  -2   4  162.65   20.95
  -1  -2   4  155.69   20.77
   1   2  -3  613.80   41.47
   1   2  -3  595.38   54.61
   1   2  -3  489.93   28.68
   1   2  -3  599.34   45.65
   1   2  -3  525.45   25.76
  -1  -2   3  539.28   38.01
  -1  -2   3  577.54   38.11
  -1  -2   3  544.19   44.23
  -1  -2   3  646.73   55.21
   1   2  -2 1772.96   71.76
   1   2  -2 1890.32   92.27
   1   2  -2 1792.41   78.80
   1   2  -2 1894.31   97.68
   1   2  -2 1878.40  116.95
  -1  -2   2 1914.80  125.98
  -1  -2   2 1974.36   90.53
  -1  -2   2 1837.16   87.97
  -1  -2   2 1800.74   90.87
   1   2  -1  667.58   35.45
   1   2  -1  652.71   37.51
   1   2  -1  669.04   39.60
   1   2  -1  660.54   40.84
   1   2  -1  718.07   40.76
   1   2  -1  644.66   33.48
  -1  -2   1  688.63   40.04
  -1  -2   1  637.89   39.85
  -1  -2   1  640.51   37.09
   1   2   0 6710.11  341.20
   1   2   0 7127.22  336.11
   1   2   0 6847.91  352.12
   1   2   0 7010.17  392.33
  -1  -2   0 6863.49  348.32
  -1  -2   0 6628.34  340.07
  -1  -2   0 6778.17  342.19
  -1  -2   0 7048.83  333.39
   1   2   1 2435.50  126.01
   1   2   1 2518.29  124.43
   1   2   1 2446.84  105.72
   1   2   1 2479.89  118.86
  -1  -2  -1 2465.51   88.74
  -1  -2  -1 2369.33  118.65
  -1  -2  -1 2479.35  122.35
   1   2   2 4538.29  223.31
   1   2   2 4512.37  218.34
   1   2   2 4342.71  203.31
   1   2   2 4357.47  217.53
  -1  -2  -2 4430.32  215.80
  -1  -2  -2 4270.33  151.88
  -1  -2  -2 4422.75  220.35
  -1  -2  -2 4691.74  239.09
   1   2   3  570.96   36.18
   1   2   3  530.29   42.11
   1   2   3  597.44   38.26
  -1  -2  -3  565.06   37.70
  -1  -2  -3  541.09   13.47
  -1  -2  -3  551.95   36.41
  -1  -2  -3  525.74   13.26
  -1  -2  -3  536.76   41.11
   1   2   4   49.13   15.92
   1   2   4   49.71   12.61
   1   2   4   78.20   17.83
  -1  -2  -4   44.40   22.17
  -1  -2  -4   64.34   16.07
  -1  -2  -4   65.17    4.55
  -1  -2  -4   48.83   16.33
  -1  -2  -4   63.28    4.28
   1   2   5   10.33    5.02
   1   2   5   -5.54    4.72
   1   2   5    7.00    5.23
  -1  -2  -5    6.74    4.63
  -1  -2  -5   -3.67    1.59
  -1  -2  -5    4.83    5.05
  -1  -2  -5    1.62    2.37
  -1  -2  -5    2.74    4.02
   1   2   6   73.37   21.23
   1   2   6   52.54   21.00
  -1  -2  -6   75.50   19.55
  -1  -2  -6   60.47   20.80
  -1  -2  -6   55.04   16.11
   1   2   7    1.31   10.65
   1   2   7   -8.03   10.53
  -1  -2  -7   12.41   10.57
  -1  -2  -7    6.44    9.31
   1   2   8  274.56   42.72
  -1  -2  -8  419.03   50.17
  -1  -2  -8  397.28   59.74
   1   2   9   10.36   19.74
   1   2   9   -1.13   10.98
  -1  -2  -9   19.53   14.41
   1   2  10   30.60   38.50
  -1  -2 -10   58.94   26.43
   1   2  11  -10.75   19.32
  -1  -2 -11    0.36   12.27
   1   2  12   77.04   31.82
  -1  -2 -12    0.18   17.58
   1   2  13   -5.61   11.88
  -1  -2 -13    1.07    5.77
   1   3 -11   39.05   22.29
   1   3 -10   74.53   21.84
  -1  -3  10    3.25   20.87
   1   3  -9  127.63   26.85
   1   3  -9  -11.99   48.73
  -1  -3   9    7.59   25.53
   1   3  -8   29.09   14.84
   1   3  -8    1.65   17.53
  -1  -3   8    6.09   14.16
  -1  -3   8   -0.42   12.05
   1   3  -7 1702.69  138.46
   1   3  -7 1805.70  129.23
  -1  -3   7 1179.69  123.14
  -1  -3   7 1774.74  116.37
   1   3  -6  687.02   70.73
   1   3  -6  718.82   63.32
  -1  -3   6  536.47   64.21
   1   3  -5   54.47   20.57
   1   3  -5   82.94   24.42
   1   3  -5   92.83   17.44
  -1  -3   5  121.44   18.49
  -1  -3   5   64.47   25.26
  -1  -3   5   65.09   20.24
  -1  -3   5   38.79   18.55
   1   3  -4 2649.47  162.33
   1   3  -4 2613.40  152.13
   1   3  -4 2630.98  146.37
  -1  -3   4 2704.84  155.63
  -1  -3   4 2627.96  161.91
  -1  -3   4 2569.00  143.73
  -1  -3   4 2649.17  150.50
   1   3  -3   77.39    9.85
   1   3  -3   87.60   11.34
   1   3  -3  133.14   20.84
   1   3  -3  125.55   22.24
  -1  -3   3  131.76   34.94
  -1  -3   3  141.34   18.97
  -1  -3   3  128.24   14.87
  -1  -3   3  139.47   19.98
   1   3  -2 3179.82  163.47
   1   3  -2 3205.24  169.71
   1   3  -2 3025.57  145.32
   1   3  -2 2792.98  161.42
   1   3  -2 3223.78  170.45
  -1  -3   2 3112.04  161.73
  -1  -3   2 3112.57  163.29
  -1  -3   2 3278.78  174.18
   1   3  -1  948.93   58.08
   1   3  -1  975.26   52.87
   1   3  -1 1053.45   57.65
   1   3  -1 1031.39   46.19
   1   3  -1 1017.44   60.07
   1   3  -1 1004.88   59.59
  -1  -3   1  992.24   58.81
  -1  -3   1 1050.64   58.96
  -1  -3   1  988.90   58.89
   1   3   0  280.10   30.62
   1   3   0  286.69   27.55
   1   3   0  313.81   22.48
   1   3   0  263.19   45.53
   1   3   0  294.32   25.31
  -1  -3   0  291.46   28.93
  -1  -3   0  307.87   22.14
  -1  -3   0  298.73   28.86
  -1  -3   0  269.47   29.25
   1   3   111050.54  666.64
   1   3   111922.48  701.33
   1   3   111336.01  607.48
   1   3   111347.23  671.50
  -1  -3  -111355.70  669.07
  -1  -3  -111476.05  682.38
  -1  -3  -111429.99  678.05
  -1  -3  -111536.05  618.84
   1   3   2  223.29   27.70
   1   3   2  218.67   25.48
   1   3   2  196.66   16.43
   1   3   2  227.16   25.62
  -1  -3  -2  221.03   25.75
  -1  -3  -2  210.62   26.67
  -1  -3  -2  199.75   10.90
   1   3   3  301.65   31.70
   1   3   3  317.66   34.59
   1   3   3  318.40   32.85
  -1  -3  -3  299.10   24.42
  -1  -3  -3  290.40   11.62
  -1  -3  -3  286.37   32.67
  -1  -3  -3  334.73   34.25
   1   3   4   13.78    8.83
   1   3   4    2.16    6.58
   1   3   4    3.45    5.05
  -1  -3  -4    4.38    5.38
  -1  -3  -4    0.14    2.18
  -1  -3  -4    0.56    6.07
  -1  -3  -4   -0.06    2.12
  -1  -3  -4   -2.33   10.59
   1   3   5 3267.03  186.41
   1   3   5 3487.19  205.39
   1   3   5 3462.48  199.94
  -1  -3  -5 3106.96  185.21
  -1  -3  -5 3392.85  200.69
  -1  -3  -5 3273.36  192.21
   1   3   6 3383.40  206.13
   1   3   6 3997.27  247.37
   1   3   6 4094.19  249.27
  -1  -3  -6 3681.31  227.24
  -1  -3  -6 3639.26  222.35
  -1  -3  -6 3782.48  243.12
  -1  -3  -7   57.54   19.84
  -1  -3  -7   25.30   20.59
  -1  -3  -7   37.49   18.01
   1   3   8  468.74   59.34
  -1  -3  -8  583.76   61.53
  -1  -3  -8  511.09   70.42
   1   3   9    1.08   32.94
   1   3   9  182.50   53.58
  -1  -3  -9  309.82   39.02
   1   3  10   20.35   29.20
   1   3  10   -0.10   15.86
  -1  -3 -10   42.05   19.57
   1   3  11   63.53   36.74
  -1  -3 -11    0.07   34.90
   1   3  12   14.44   20.44
  -1  -3 -12    0.32   10.79
   1   3  13   20.25   95.15
  -1  -3 -13  409.97   39.49
   1   4 -11   18.04   14.48
  -1  -4  11   10.74    8.91
   1   4 -10  130.17   31.86
   1   4 -10  118.34   38.56
   1   4  -9  -11.15   12.23
   1   4  -9    8.24   14.54
   1   4  -8   92.42   27.73
   1   4  -8   -1.07   31.29
   1   4  -7   -2.28   36.70
   1   4  -7   69.10   20.57
  -1  -4   7   -0.07   15.64
   1   4  -6   12.42   14.93
   1   4  -6   25.99   16.95
  -1  -4   6    0.39   12.34
   1   4  -5   38.93   21.61
   1   4  -5   56.78   23.79
   1   4  -4   17.93   11.89
   1   4  -4    9.42    9.57
   1   4  -4   13.52   12.89
  -1  -4   4    1.88   10.17
  -1  -4   4    4.00   13.07
  -1  -4   4    9.35   11.78
   1   4  -3 1796.97  114.96
   1   4  -3 1806.38  117.84
   1   4  -3 1769.10  104.40
  -1  -4   3 1718.50  142.48
  -1  -4   3 1721.84  103.23
  -1  -4   3 1759.18  112.30
   1   4  -2  345.74   36.57
   1   4  -2  334.50   32.63
   1   4  -2  312.34   27.89
   1   4  -2  265.68   29.16
   1   4  -2  326.68   51.80
  -1  -4   2  339.93   35.12
  -1  -4   2  339.58   34.61
  -1  -4   2  356.97   50.54
   1   4  -1  805.45   57.96
   1   4  -1  875.92   59.75
   1   4  -1  830.74   56.97
   1   4  -1  945.94   60.39
  -1  -4   1  898.43   62.12
  -1  -4   1  895.46   64.42
  -1  -4   1  919.73   62.26
  -1  -4   1  967.36   60.56
   1   4   0  620.09   26.60
   1   4   0  625.97   40.09
   1   4   0  640.27   48.19
   1   4   0  642.74   67.86
   1   4   0  620.32   49.21
  -1  -4   0  611.09   48.47
  -1  -4   0  673.97   50.54
  -1  -4   0  655.19   40.97
  -1  -4   0  618.31   51.26
   1   4   1  132.25   24.01
   1   4   1  163.47   24.45
   1   4   1  156.35   24.97
   1   4   1  122.50    9.68
  -1  -4  -1  162.02   15.16
  -1  -4  -1  137.59   25.07
  -1  -4  -1  155.05   24.67
  -1  -4  -1  143.41   24.55
   1   4   2  699.48   54.83
   1   4   2  674.41   56.92
   1   4   2  697.42   43.25
   1   4   2  727.74   56.46
  -1  -4  -2  700.89   44.12
  -1  -4  -2  679.30   54.87
  -1  -4  -2  735.38   58.17
  -1  -4  -2  689.54   57.43
   1   4   3 3275.52  187.51
   1   4   3 3078.56  156.29
   1   4   3 3267.47  187.93
   1   4   3 3234.50  191.78
  -1  -4  -3 3345.31  189.12
  -1  -4  -3 3357.76  195.00
  -1  -4  -3 2940.67  130.14
  -1  -4  -3 3331.81  194.65
   1   4   4  129.26   18.03
   1   4   4  178.88   26.94
   1   4   4  172.90   28.23
  -1  -4  -4  155.05   28.38
  -1  -4  -4  103.54   19.47
  -1  -4  -4  165.99   28.02
   1   4   5    9.63   12.20
   1   4   5   10.26    9.67
  -1  -4  -5    1.57    8.54
  -1  -4  -5    4.76   17.12
   1   4   6   31.57   11.96
   1   4   6    7.67   11.96
  -1  -4  -6   28.42   14.22
  -1  -4  -6   11.61   14.87
  -1  -4  -6   -1.66   12.64
   1   4   7   16.36   12.31
  -1  -4  -7   23.68   16.34
  -1  -4  -7    9.18   16.14
  -1  -4  -7   19.42   15.06
  -1  -4  -8  413.93   75.47
  -1  -4  -8  249.55   48.97
  -1  -4  -8  274.26   49.65
   1   4   9    0.98    9.86
   1   4   9   -3.88   14.53
  -1  -4  -9    4.95   10.79
   1   4  10    2.91   10.49
   1   4  10    3.99   16.51
  -1  -4 -10    0.33   11.68
   1   4  11  -21.11   14.29
   1   4  11    4.99    7.60
  -1  -4 -11   -0.45    9.03
   1   4  12   -7.77   16.91
  -1  -4 -12   -1.34    9.58
   1   4  13   -6.45    9.82
   1   5 -10  216.16   39.48
  -1  -5  10  167.62   31.09
   1   5  -9  108.01   41.59
  -1  -5   9  169.28   35.84
   1   5  -8   -1.71   14.74
  -1  -5   8   -3.66   12.74
   1   5  -7   12.11   10.61
   1   5  -7  -13.79   12.09
   1   5  -6   56.99   22.34
   1   5  -6   58.24   25.64
  -1  -5   6   -0.19   16.57
   1   5  -5  903.35   89.43
   1   5  -5  864.11   97.04
  -1  -5   5  878.88   75.67
   1   5  -4   17.06   15.59
   1   5  -4   15.92   16.32
  -1  -5   4    6.05   12.91
   1   5  -3  292.33   45.20
  -1  -5   3  328.32   39.91
   1   5  -2  917.66   66.29
   1   5  -2  707.61   68.58
   1   5  -2  924.96   74.30
  -1  -5   2  917.33   76.11
  -1  -5   2  953.99   74.05
  -1  -5   2  944.63   71.67
  -1  -5   2  883.49   72.11
   1   5  -1  106.97   23.73
   1   5  -1  109.42   21.89
   1   5  -1  122.13   23.37
   1   5  -1  111.80   22.16
  -1  -5   1  141.32   27.10
  -1  -5   1  136.71   26.15
  -1  -5   1   83.30   22.37
  -1  -5   1  132.82   25.52
   1   5   0  323.17   40.43
   1   5   0  366.36   37.21
   1   5   0  324.82   37.48
   1   5   0  325.98   32.10
  -1  -5   0  333.51   40.13
  -1  -5   0  324.33   40.52
  -1  -5   0  328.04   42.66
  -1  -5   0  305.09   32.87
   1   5   1  169.09   29.84
   1   5   1  148.99   28.14
   1   5   1  177.88   27.80
   1   5   1  133.17   18.92
  -1  -5  -1  169.67   30.18
  -1  -5  -1  145.92   44.66
  -1  -5  -1  178.75   29.50
  -1  -5  -1  114.51   18.16
   1   5   2  560.84   58.17
   1   5   2  588.90   56.05
   1   5   2  587.15   55.40
  -1  -5  -2  569.13   58.02
  -1  -5  -2  539.06   57.21
  -1  -5  -2  548.44   53.93
   1   5   3 3280.54  218.39
   1   5   3 3362.51  217.22
   1   5   3 3374.59  215.54
  -1  -5  -3 3250.35  206.34
  -1  -5  -3 3472.99  218.97
  -1  -5  -3 3402.56  221.79
   1   5   4    0.68   22.97
   1   5   4   74.80   22.80
  -1  -5  -4  117.68   22.97
  -1  -5  -4   -0.13   22.43
  -1  -5  -4   85.88   23.53
   1   5   5  174.76   35.14
  -1  -5  -5  212.09   52.40
  -1  -5  -5  126.93   57.04
   1   5   6  166.36   32.41
  -1  -5  -6  214.30   33.40
  -1  -5  -6   47.34   24.01
  -1  -5  -6  207.93   36.51
   1   5   7   28.81   30.46
   1   5   7   20.83   41.84
  -1  -5  -7  299.58   38.00
  -1  -5  -7  135.51   36.37
   1   5   8   76.19   41.50
  -1  -5  -8  251.81   42.27
  -1  -5  -8  195.63   43.87
   1   5   9   21.67   24.85
   1   5   9    2.11   22.37
  -1  -5  -9   65.81   23.29
   1   5  10   48.03   28.24
   1   5  10   58.52   32.97
   1   5  11    4.46   20.99
   1   5  11    2.62   29.90
  -1  -5 -11  137.20   23.99
   1   5  12   -3.73   15.21
  -1  -5 -12   -2.09    7.66
   1   6  -9   13.52   20.75
  -1  -6   9   39.31   17.35
   1   6  -8    4.59   27.29
  -1  -6   8   73.28   24.32
   1   6  -7   -3.87   17.70
  -1  -6   7   16.98   15.96
   1   6  -6   49.43   31.77
  -1  -6   6   66.75   30.40
   1   6  -5  531.97   75.47
  -1  -6   5  597.15   77.01
  -1  -6   5  515.72   58.77
   1   6  -4  371.74   61.15
  -1  -6   4  455.64   62.61
  -1  -6   4  400.65   52.24
   1   6  -3   39.90   21.99
  -1  -6   3    0.94   20.11
  -1  -6   3   83.30   24.06
   1   6  -2  118.19   58.93
   1   6  -2  419.39   51.18
  -1  -6   2  421.43   55.52
  -1  -6   2  434.72   50.11
   1   6  -1   -5.77    7.75
   1   6  -1    4.62    6.86
  -1  -6   1    4.22    9.03
  -1  -6   1   -6.37    8.03
   1   6   0  312.91   50.03
   1   6   0  336.29   41.50
  -1  -6   0  242.67   39.44
  -1  -6   0  431.28   52.20
   1   6   1  946.23   96.14
  -1  -6  -1  954.56  125.57
  -1  -6  -1 1057.48   91.72
   1   6   2   64.24   30.93
  -1  -6  -2  114.65   28.54
  -1  -6  -2   72.56   29.18
   1   6   3 1087.71  108.89
  -1  -6  -3 1118.78  104.22
  -1  -6  -3 1161.53  100.67
   1   6   4   12.07   22.02
  -1  -6  -4   21.93   22.49
  -1  -6  -4   47.64   20.66
   1   6   5   81.36   29.21
  -1  -6  -5    4.95   41.54
  -1  -6  -5   83.28   31.05
   1   6   6   34.71   45.65
  -1  -6  -6   86.79   30.09
  -1  -6  -6   82.04   33.28
   1   6   7   24.38   16.97
  -1  -6  -7    8.69   18.97
  -1  -6  -7   10.05   20.76
  -1  -6  -8  296.89   48.71
  -1  -6  -8  143.68   52.57
   1   6   9   55.98   22.80
  -1  -6  -9    0.33   23.29
   1   6  10    9.77   12.57
  -1  -6 -10   -0.66   13.07
   1   6  11    2.17    8.85
  -1  -6 -11    3.26    9.20
   1   7  -8    3.81   23.57
  -1  -7   8   71.49   20.40
   1   7  -7   -6.86   21.24
  -1  -7   7   -3.11   13.00
   1   7  -6   -0.49   18.93
  -1  -7   6   27.14   18.77
  -1  -7   5   -1.66   12.68
   1   7  -4  -19.02   17.55
  -1  -7   4   -0.83   18.93
   1   7  -3    0.25   47.59
  -1  -7   3  171.30   34.94
  -1  -7   3    2.12   46.96
   1   7  -2  347.64   65.56
  -1  -7   2  527.47   67.05
  -1  -7   2  573.82   73.24
   1   7  -1  772.20   91.76
   1   7  -1  837.10   96.01
  -1  -7   1 1283.24  114.97
  -1  -7   1 1095.94  104.18
   1   7   0  607.46  108.00
   1   7   1   17.77   24.64
  -1  -7  -1   26.12   22.82
  -1  -7  -1   38.48   24.01
   1   7   2   34.94   36.01
  -1  -7  -2  128.51   33.19
  -1  -7  -2   69.75   33.35
   1   7   3   13.20   30.17
  -1  -7  -3   65.32   26.05
  -1  -7  -3   39.08   28.22
   1   7   4   73.96   69.03
  -1  -7  -4   77.39   69.45
  -1  -7  -4  191.42   41.81
   1   7   5   10.21   22.07
  -1  -7  -5   17.96   24.00
  -1  -7  -5   35.10   21.26
   1   7   6   27.78   25.44
  -1  -7  -6   34.71   28.78
  -1  -7  -6   55.17   25.76
   1   7   7   13.94   20.79
  -1  -7  -7   64.97   25.24
  -1  -7  -7   -0.04   21.92
   1   7   8    5.30   17.18
  -1  -7  -8   69.29   22.26
  -1  -7  -8   -0.39   20.34
   1   7   9    4.02   10.34
  -1  -7  -9   -0.96    9.69
   1   7  10   -1.13   11.91
  -1  -7 -10  -10.42   11.25
   1   8  -7  174.05   39.29
  -1  -8   7  370.13   39.89
   1   8  -6    5.65   15.34
  -1  -8   6   18.68   15.74
   1   8  -5   -2.78   13.42
  -1  -8   5   15.64   14.87
   1   8  -4    0.08   18.64
  -1  -8   4   35.87   20.99
   1   8  -3    2.08   29.26
  -1  -8   3   16.05   26.26
  -1  -8   3  226.96   35.00
   1   8  -2    3.46   27.70
  -1  -8   2  220.02   35.49
  -1  -8   2   21.31   28.73
   1   8  -1   -1.00    8.24
  -1  -8   1   -0.82    9.33
  -1  -8   1    3.75   17.35
   1   8   0   -5.22   23.11
  -1  -8   0  114.54   27.37
  -1  -8   0   -1.91   24.61
   1   8   1    8.75   20.20
  -1  -8  -1   22.19   21.16
  -1  -8  -1   19.57   21.92
   1   8   2  117.36   45.92
  -1  -8  -2  119.27   48.12
  -1  -8  -2  212.52   44.70
   1   8   3   67.54   41.66
  -1  -8  -3   64.84   64.48
  -1  -8  -3  162.52   40.22
   1   8   4   -1.43   22.95
  -1  -8  -4   56.21   23.43
  -1  -8  -4   -0.24   22.27
   1   8   5  629.41   95.11
  -1  -8  -5  767.71  107.80
  -1  -8  -5  873.00   90.36
   1   8   6   24.29   25.67
  -1  -8  -6   83.74   27.89
  -1  -8  -6    1.10   23.99
   1   8   7    6.29   15.06
  -1  -8  -7    0.14   14.76
  -1  -8  -7   18.44   17.03
   1   8   8    5.37    9.70
   1   8   8    1.25   12.20
  -1  -8  -8   -0.12   17.29
  -1  -8  -9    3.46    9.12
  -1  -9   5   17.31   15.49
  -1  -9   4   22.77   19.71
  -1  -9   3   31.51   23.91
  -1  -9   2  257.53   52.87
   1   9  -1    2.67   11.51
  -1  -9   1   14.10   13.27
  -1  -9   1   -0.42   16.21
   1   9   0   26.07   18.06
  -1  -9   0   20.46   19.57
  -1  -9   0    0.08   21.95
   1   9   1    2.28   11.82
  -1  -9  -1    4.17   18.98
  -1  -9  -1    0.88   12.71
   1   9   2   -1.58   12.03
  -1  -9  -2    6.28   11.84
  -1  -9  -2    0.02   11.89
   1   9   3    0.22   15.94
  -1  -9  -3   15.57   15.47
  -1  -9  -3    0.98   15.62
   1   9   4   11.91   16.04
  -1  -9  -4    1.27   14.91
  -1  -9  -4    5.91   16.08
   1   9   5  -11.39   13.56
  -1  -9  -5   -0.24   12.46
  -1  -9  -5    0.32   14.00
   1   9   6   -1.14   11.00
  -1  -9  -6   10.86   12.07
  -1  -9  -6   -0.98   10.39
   1   9   7    6.57   17.18
   1   9   7    3.80   17.95
  -1  -9  -7   62.18   16.66
   1   9   8   -6.26   11.65
  -1 -10   2    9.70   12.19
  -1 -10   1  164.28   33.56
   1  10   0   -0.03    7.05
  -1 -10   0   12.36   11.35
   1  10   1    0.03   25.81
  -1 -10  -1  253.18   31.03
   1  10   2  209.91   42.13
  -1 -10  -2  420.42   66.67
   1  10   3   10.65   14.11
  -1 -10  -3    0.73   13.52
  -1 -10  -3   18.50   13.82
   1  10   4   -2.55   17.79
  -1 -10  -4   44.49   16.58
   1  10   5    9.37   14.73
  -1 -10  -5   -1.08   14.26
  -1 -10  -5   35.10   13.06
  -2   9   5   20.20    9.14
  -2   9   5   14.09   14.82
  -2   9   4   25.02   16.98
  -2   9   4   11.93    9.50
  -2   9   3  -19.70   18.48
   2  -9  -2    5.85   11.07
  -2   9   2    4.51   14.82
  -2   9   1  203.64   42.96
  -2   9   1  328.14   50.69
  -2   9   0    3.33    9.95
  -2   9   0    0.56   10.31
  -2   9  -1   -0.17   11.10
  -2   9  -1   12.06   12.57
  -2   9  -2    6.13   10.00
  -2   9  -2    0.04    7.27
  -2   9  -3   -1.29    9.36
  -2   9  -4  239.29   42.67
  -2   9  -5   -0.88    7.26
  -2   8   6   19.34   15.08
  -2   8   6   13.36   15.51
  -2   8   5   -1.44    9.89
  -2   8   5   -2.95   11.08
  -2   8   4   -5.10   10.47
  -2   8   4   14.73   13.30
   2  -8  -3   -0.00   11.93
  -2   8   3   -3.85   14.99
  -2   8   3   10.37   10.82
  -2   8   2    0.45    8.59
  -2   8   2    0.28    9.90
  -2   8   1    2.18   10.95
  -2   8   1    1.05   12.25
  -2   8   0   -0.89    8.10
  -2   8   0    0.73    8.42
   2  -8   1   30.79   16.36
  -2   8  -1    4.73   19.01
  -2   8  -1    6.14   17.78
   2  -8   2   16.09   16.94
  -2   8  -2    1.27   18.61
  -2   8  -2   21.74   15.59
   2  -8   3   52.01   32.98
  -2   8  -3   -2.19   39.89
   2  -8   4   34.43   18.93
  -2   8  -4    4.35   23.03
   2  -8   5    8.56   13.39
  -2   8  -5    3.67   16.16
   2  -8   6   -3.40    8.64
  -2   8  -6    8.24   10.33
   2  -8   7   10.35   10.12
  -2   8  -7   -6.98   19.81
  -2   7   9   -3.38   14.41
  -2   7   8   20.14   18.71
  -2   7   7    7.49   13.20
  -2   7   7   24.27   17.65
  -2   7   6    4.71   12.60
   2  -7  -5    0.41   27.15
  -2   7   5   28.40   31.69
  -2   7   5  201.15   32.44
   2  -7  -4   -0.18   14.02
  -2   7   4    6.47   16.24
  -2   7   4   15.79   14.34
  -2   7   3   13.65   11.52
  -2   7   3   -6.62   10.74
  -2   7   3  -18.27   13.42
   2  -7  -2    0.52   11.41
  -2   7   2    3.27   22.48
  -2   7   2    8.03   13.02
  -2   7   1  640.55   80.18
  -2   7   1  659.49  124.20
   2  -7   0  202.91   37.24
  -2   7   0  126.39   47.43
  -2   7   0  213.06   44.51
   2  -7   1  359.36   72.10
  -2   7  -1  390.44   87.04
  -2   7  -1  246.24   56.72
   2  -7   2   -1.63   14.08
  -2   7  -2    2.53   14.26
  -2   7  -2   25.86   17.45
   2  -7   3   96.77   27.02
  -2   7  -3   88.09   32.93
  -2   7  -3   13.41   22.14
   2  -7   4  127.36   31.11
  -2   7  -4    2.26   38.11
   2  -7   5   13.07   15.46
  -2   7  -5   -0.23   19.16
   2  -7   6    0.16   23.94
  -2   7  -6   81.36   28.93
   2  -7   7  346.92   53.68
  -2   7  -7  335.19   61.56
   2  -7   8  380.15   47.17
  -2   7  -8  223.17   51.22
  -2   6  10    1.64    8.22
  -2   6   9   29.32   21.15
  -2   6   8   -8.24   15.88
  -2   6   7  121.78   38.89
   2  -6  -6  426.34   55.05
  -2   6   6  452.05   67.29
  -2   6   6  229.39   55.44
   2  -6  -5   30.31   17.73
  -2   6   5   10.99   19.66
  -2   6   5   12.56   19.24
   2  -6  -4   51.91   20.27
  -2   6   4   15.89   34.66
  -2   6   4    9.51   20.77
   2  -6  -3    0.33   16.81
  -2   6   3   31.34   17.41
  -2   6   3   23.90   30.72
   2  -6  -2  243.41   47.38
  -2   6   2  431.39   53.41
  -2   6   2  400.00   60.51
   2  -6  -1  193.27   45.44
  -2   6   1  495.83   54.82
  -2   6   1  476.55   61.09
   2  -6   0   66.60   33.92
  -2   6   0   92.62   43.86
  -2   6   0   61.57   44.66
   2  -6   1  952.84   82.15
  -2   6  -1  846.58  126.14
  -2   6  -1 1076.91  107.97
   2  -6   2   45.04   18.07
  -2   6  -2   11.98   18.54
  -2   6  -2   32.17   24.74
   2  -6   3   -0.70   14.84
  -2   6  -3   17.06   12.91
  -2   6  -3   17.88   18.51
   2  -6   4   69.89   24.13
  -2   6  -4    0.33   30.00
   2  -6   5  635.51   78.50
  -2   6  -5  627.36   91.24
   2  -6   6   -1.14   40.04
  -2   6  -6  333.11   48.66
   2  -6   7    0.05   15.57
  -2   6  -7   10.44   16.89
   2  -6   8   -0.59   16.43
  -2   6  -8   15.00   16.98
   2  -6   9   47.02   20.33
  -2   6  -9   -2.69   19.56
   2  -6  10   42.75   14.55
  -2   6 -10   -4.19   12.75
  -2   5  11    2.28    8.78
  -2   5   9   59.09   29.21
  -2   5   8   26.68   23.55
   2  -5  -7   15.94   17.59
  -2   5   7   20.98   21.53
   2  -5  -6  169.48   32.91
  -2   5   6  113.72   36.32
  -2   5   6   61.51   29.19
   2  -5  -5  640.72   68.93
  -2   5   5  548.99   72.65
  -2   5   5  652.48   75.11
   2  -5  -4  101.58   21.40
  -2   5   4    0.48   21.19
  -2   5   4   13.84   33.43
   2  -5  -3  254.51   44.94
  -2   5   3  272.86   45.23
  -2   5   3  284.34   42.51
   2  -5  -2   13.00   10.53
  -2   5   2    4.70   11.98
  -2   5   2   -3.45   12.58
  -2   5   2    8.47   10.40
   2  -5  -1  214.86   36.21
   2  -5  -1  313.21   31.59
  -2   5   1  359.19   42.96
  -2   5   1  343.19   46.17
  -2   5   1  264.45   48.62
   2  -5   0   11.13    8.84
   2  -5   0    4.67    8.42
  -2   5   0    1.76   13.54
  -2   5   0   19.11   13.00
  -2   5   0    6.71    7.72
   2  -5   1  801.74   60.48
  -2   5  -1  826.14   99.77
  -2   5  -1  767.34   77.43
   2  -5   2  203.76   29.55
  -2   5  -2  150.17   32.09
  -2   5  -2  211.58   40.43
   2  -5   3    8.03   16.76
  -2   5  -3   37.17   14.90
  -2   5  -3   40.74   22.33
  -2   5  -4   -4.30   28.31
  -2   5  -4   85.66   22.17
  -2   5  -5   70.62   23.62
  -2   5  -5    4.80   28.64
  -2   5  -6  218.18   37.44
  -2   5  -6    2.35   42.00
  -2   5  -7  334.75   47.11
  -2   5  -7    1.21   52.38
  -2   5  -8    5.40   14.65
  -2   5  -8    2.28   15.63
  -2   5  -9   62.37   28.51
  -2   5  -9   40.36   28.87
  -2   5 -10   60.88   21.48
  -2   5 -10    2.81   19.49
   2  -5  11    7.81   12.55
  -2   4  11    2.48    6.72
  -2   4  11    0.93    8.96
  -2   4  10  200.76   33.46
  -2   4  10   20.75   26.97
  -2   4   9   14.77   22.31
  -2   4   9  117.97   41.63
   2  -4  -8  216.47   39.64
  -2   4   8  112.14   39.67
  -2   4   8  278.07   48.02
   2  -4  -7  285.90   44.89
  -2   4   7  161.54   39.83
  -2   4   7  304.83   50.96
   2  -4  -6  396.14   50.25
  -2   4   6  413.66   53.82
  -2   4   6  196.62   39.14
   2  -4  -5 2655.97  175.06
  -2   4   5 2068.71  157.86
   2  -4  -4 1848.54  125.10
  -2   4   4 1635.50  151.33
  -2   4   4 1690.03  121.10
   2  -4  -3  277.20   53.96
   2  -4  -3  243.84   36.76
   2  -4  -3  246.16   35.46
  -2   4   3  244.55   36.64
  -2   4   3  220.39   35.69
  -2   4   3  259.30   34.03
   2  -4  -2 2032.26  191.91
   2  -4  -2 1953.73  127.09
   2  -4  -2 1842.00  119.96
  -2   4   2 1873.39  124.68
  -2   4   2 1793.63  121.88
  -2   4   2 1866.81  117.47
   2  -4  -1    3.29   13.78
   2  -4  -1   12.72    9.02
   2  -4  -1    9.80   12.94
   2  -4  -1    8.58    7.18
  -2   4   1   10.27   12.31
  -2   4   1   27.47   12.53
  -2   4   1   13.66    8.64
   2  -4   0  662.62   59.16
   2  -4   0  653.53   41.30
   2  -4   0  705.34   63.90
   2  -4   0  593.35   45.12
  -2   4   0  675.23   58.99
  -2   4   0  596.46   55.41
  -2   4   0  696.13   60.68
   2  -4   1  380.17   45.74
   2  -4   1  377.73   30.69
  -2   4  -1  389.71   60.43
  -2   4  -1  400.09   46.49
   2  -4   2  656.05   62.41
  -2   4  -2  620.81   52.01
  -2   4  -2  650.15   46.06
  -2   4  -2  656.13   62.85
   2  -4   3 5739.13  368.27
  -2   4  -3 5418.57  335.17
  -2   4  -3 5604.67  332.88
  -2   4  -3 5778.27  376.57
  -2   4  -4  131.86   26.31
  -2   4  -4  350.16   34.25
  -2   4  -4  335.40   43.84
  -2   4  -5    8.64   13.03
  -2   4  -5   17.98   23.35
  -2   4  -6  306.52   53.78
  -2   4  -6  387.85   50.78
  -2   4  -7  154.22   30.79
  -2   4  -7    0.09   32.57
  -2   4  -8  431.72   56.26
  -2   4  -8    1.27   82.77
  -2   4  -9   -0.27   25.33
  -2   4  -9   73.71   26.19
  -2   4 -10  438.13   48.95
  -2   4 -10   -0.22   44.39
  -2   4 -11  235.66   30.73
  -2   4 -11    2.43   21.18
  -2   3  11    9.23   14.29
  -2   3  11    9.97   14.00
   2  -3 -10    0.19   13.52
  -2   3  10   12.65   17.08
  -2   3  10   32.28   17.12
   2  -3  -9   -0.10   17.67
  -2   3   9   48.17   20.79
  -2   3   9   17.78   20.88
   2  -3  -8  182.31   35.17
  -2   3   8  111.87   39.36
  -2   3   8  123.92   41.26
   2  -3  -7  102.23   27.16
  -2   3   7   34.77   30.21
  -2   3   7   71.68   27.57
   2  -3  -6  118.72   27.55
  -2   3   6  149.94   29.37
  -2   3   6    0.19   25.16
   2  -3  -5  274.16   39.83
   2  -3  -5  121.09   42.64
  -2   3   5  274.72   36.00
  -2   3   5  228.03   31.87
  -2   3   5  236.00   33.82
  -2   3   5  307.79   40.04
   2  -3  -4   85.69   34.35
   2  -3  -4  154.85   29.40
   2  -3  -4  159.15   27.32
  -2   3   4  138.94   29.49
  -2   3   4  133.62   22.53
  -2   3   4  134.05   22.84
  -2   3   4  108.66   21.52
  -2   3   4  177.97   27.15
   2  -3  -3 1720.65  107.39
   2  -3  -3 1641.11  106.20
  -2   3   3 1482.46   99.36
  -2   3   3 1460.70  118.30
  -2   3   3 1566.24  100.72
  -2   3   3 1401.71   83.78
  -2   3   3 1438.99   92.32
  -2   3   3 1540.48  106.67
   2  -3  -2   84.07   24.01
   2  -3  -2  127.91   20.11
   2  -3  -2  160.03   35.95
  -2   3   2  114.34   22.90
  -2   3   2  102.51   20.30
  -2   3   2  115.12   21.76
  -2   3   2  129.31   14.49
  -2   3   2   84.28   13.02
   2  -3  -1  233.21   31.29
   2  -3  -1  196.78   30.29
   2  -3  -1  209.49   22.45
  -2   3   1  202.57   29.31
  -2   3   1  250.56   29.43
  -2   3   1  223.14   17.00
  -2   3   1  199.27   22.10
  -2   3   1  185.34   14.12
   2  -3   0    7.26    8.41
   2  -3   0   14.28    8.80
   2  -3   0    2.98    4.67
  -2   3   0   13.28   12.99
  -2   3   0    4.71    4.10
  -2   3   0    2.32    4.57
  -2   3   0    1.37    2.93
  -2   3   0    1.33    8.73
   2  -3   1  157.44   26.14
  -2   3  -1  154.40   14.96
  -2   3  -1  166.43   36.43
  -2   3  -1  128.49   15.98
  -2   3  -1  153.19   26.66
  -2   3  -1  133.57   10.58
   2  -3   2  179.68   27.97
  -2   3  -2  158.12   22.47
  -2   3  -2  145.54    9.90
  -2   3  -2  190.31   28.93
  -2   3  -2  188.55   18.95
  -2   3  -3    0.30    2.97
  -2   3  -3    5.90    5.47
  -2   3  -3    2.07    5.88
  -2   3  -3    8.27    8.32
  -2   3  -4  588.25   61.84
  -2   3  -4  482.70   35.90
  -2   3  -4  585.71   50.89
  -2   3  -5   27.86   16.61
  -2   3  -5   27.80   13.82
  -2   3  -6   41.90   21.92
  -2   3  -6   66.23   19.84
  -2   3  -7  198.89   36.33
  -2   3  -7  173.31   37.50
  -2   3  -8    2.90   22.40
  -2   3  -8  -12.08   14.46
  -2   3  -9   70.41   34.73
  -2   3  -9  159.92   36.84
  -2   3 -10  125.52   33.48
  -2   3 -10    0.38   45.58
  -2   3 -11   -3.77   13.13
  -2   3 -12    2.37   10.39
  -2   2  12    1.83    8.44
   2  -2 -11    0.53   10.39
  -2   2  11    7.00   13.40
  -2   2  11   23.83   15.20
   2  -2 -10    0.07   12.80
  -2   2  10    9.53   15.55
  -2   2  10    7.88   14.10
   2  -2  -9  265.79   51.56
  -2   2   9  221.87   58.55
  -2   2   9  377.34   55.88
   2  -2  -8  182.87   36.82
  -2   2   8  153.62   72.77
  -2   2   8  113.01   42.67
   2  -2  -7  670.89   70.24
  -2   2   7  665.13   75.27
   2  -2  -6  141.47   42.88
  -2   2   6   83.42   30.06
  -2   2   6  117.30   51.58
   2  -2  -5   62.61   23.84
   2  -2  -5  176.38   29.15
   2  -2  -5  166.25   27.60
  -2   2   5   72.71   16.35
  -2   2   5  123.34   45.35
  -2   2   5  177.44   30.60
  -2   2   5  148.58   27.33
  -2   2   5  163.92   27.66
   2  -2  -4    2.79    7.02
   2  -2  -4   11.60    9.25
   2  -2  -4    2.21   10.73
  -2   2   4    8.73    8.15
  -2   2   4    1.60    9.77
  -2   2   4    7.69    6.04
  -2   2   4   -1.50    8.73
  -2   2   4   -2.73    8.90
   2  -2  -3  107.88   20.62
   2  -2  -3   63.54   17.20
   2  -2  -3   99.22   19.85
  -2   2   3   44.34   15.18
  -2   2   3   74.16   17.27
  -2   2   3   53.16   15.67
  -2   2   3   79.61   17.80
  -2   2   3   94.74   19.18
   2  -2  -2  927.44   59.46
   2  -2  -2  859.87   63.20
  -2   2   2  836.34   52.94
  -2   2   2  799.38   59.29
  -2   2   2  838.54   54.95
  -2   2   2  795.24   50.98
  -2   2   2  778.76   45.99
  -2   2   2  880.25   51.96
   2  -2  -1 1142.21   69.00
   2  -2  -1 1125.57   72.58
  -2   2   1  974.43   67.24
  -2   2   1 1051.76   65.21
  -2   2   1 1042.93   51.22
  -2   2   1 1080.45   57.87
  -2   2   1 1086.01   55.16
   2  -2   0 3809.90  223.61
   2  -2   0 3315.82  178.30
  -2   2   0 3487.46  159.24
  -2   2   0 3494.61  219.95
  -2   2   0 3614.14  187.69
  -2   2   0 3490.62  157.03
  -2   2   0 3425.73  152.71
  -2   2  -1   15.40    8.73
  -2   2  -1    3.54    3.22
  -2   2  -1    9.40    3.04
  -2   2  -1   10.97    4.22
  -2   2  -1   10.79    4.54
  -2   2  -1   15.06    9.31
  -2   2  -2   23.10    9.82
  -2   2  -2   18.90   10.51
  -2   2  -2   19.50    5.82
  -2   2  -2   21.96   11.90
  -2   2  -3   20.17    7.02
  -2   2  -3   14.63    8.01
  -2   2  -3   15.14    7.98
  -2   2  -3   13.20   17.63
  -2   2  -4    5.32    5.89
  -2   2  -4   10.12    8.05
  -2   2  -4    5.60    7.13
  -2   2  -4   -1.04    7.95
  -2   2  -5 1168.05   81.68
  -2   2  -5 1134.08   56.26
  -2   2  -5 1287.83   77.28
  -2   2  -5 1292.33   81.80
  -2   2  -6    3.43    6.55
  -2   2  -6   -8.18    6.25
  -2   2  -6    3.57    6.60
  -2   2  -7   12.89   12.60
  -2   2  -7    0.36   13.14
  -2   2  -7   11.75   11.13
   2  -2   8   13.75   12.10
  -2   2  -8    3.29   13.55
  -2   2  -8    5.19   11.92
   2  -2   9   -5.95   14.49
  -2   2  -9   33.62   16.69
  -2   2  -9    9.17   13.56
   2  -2  10    0.58   23.46
  -2   2 -10   99.85   25.99
   2  -2  11   -1.33   12.25
  -2   2 -11  -20.37   22.79
  -2   2 -12    0.79    9.44
  -2   2 -13   29.12   16.07
  -2   1  12   10.55   14.79
   2  -1 -11    2.77   12.30
  -2   1  11   16.38   15.34
  -2   1  11    4.10   12.35
   2  -1 -10    0.10   20.32
  -2   1  10   35.42   23.59
  -2   1  10   33.81   20.37
   2  -1  -9  383.65   88.06
  -2   1   9  367.59   70.35
  -2   1   9  374.47   59.59
   2  -1  -8  529.55   67.02
  -2   1   8  506.75   79.52
  -2   1   8  511.83   66.03
   2  -1  -7  556.57   64.14
  -2   1   7  609.92  119.19
  -2   1   7  567.45   64.52
   2  -1  -6    5.30   10.07
  -2   1   6    0.74   19.39
  -2   1   6    1.68   10.49
   2  -1  -5   20.17   11.09
   2  -1  -5   10.35   17.36
  -2   1   5    7.61   11.87
  -2   1   5    0.52   11.79
  -2   1   5   -6.11   11.11
  -2   1   5   14.50   19.75
   2  -1  -4  126.89   25.37
   2  -1  -4  155.10   17.40
   2  -1  -4  155.01   25.61
  -2   1   4  153.67   26.61
  -2   1   4  119.66   13.63
  -2   1   4  170.10   41.01
  -2   1   4  116.38   16.06
  -2   1   4  136.26   25.20
  -2   1   4  117.14   24.84
   2  -1  -3 7189.84  455.79
   2  -1  -3 7786.99  412.95
   2  -1  -3 6948.22  412.20
  -2   1   3 7210.14  412.22
  -2   1   3 7403.20  424.32
  -2   1   3 6913.43  321.69
  -2   1   3 6972.20  372.26
  -2   1   3 7246.94  417.50
  -2   1   3 7769.07  443.90
   2  -1  -2 3059.56  146.35
   2  -1  -2 2869.90  158.94
   2  -1  -2 3068.48  165.58
  -2   1   2 2992.87  152.63
  -2   1   2 3000.48  155.01
  -2   1   2 2995.91  145.43
  -2   1   2 3111.41  157.44
   2  -1  -1  293.61   26.41
   2  -1  -1  296.04   30.45
  -2   1   1  290.91   29.70
  -2   1   1  296.80   22.86
  -2   1   1  291.87   23.62
  -2   1   1  308.33   26.32
  -2   1   1  293.85   25.10
   2  -1   0 1484.95   77.38
  -2   1   0 1420.14   75.01
  -2   1   0 1326.44   73.77
  -2   1   0 1452.03   59.92
  -2   1   0 1452.36   70.80
  -2   1   0 1417.33   60.40
   2  -1   1  554.66   38.01
  -2   1  -1  529.32   19.37
  -2   1  -1  498.34   18.10
  -2   1  -1  527.91   37.75
  -2   1  -1  518.33   30.71
  -2   1  -1  544.20   23.16
  -2   1  -1  486.84   35.50
  -2   1  -2 1451.97   71.84
  -2   1  -2 1381.61   57.24
  -2   1  -2 1324.06   65.04
  -2   1  -2 1406.01   71.08
  -2   1  -3  106.15   26.13
  -2   1  -3  122.23   14.97
  -2   1  -3  128.03   22.60
  -2   1  -3  119.98   25.12
  -2   1  -4  883.32   71.44
  -2   1  -4  852.20   54.34
  -2   1  -4  833.08   41.23
  -2   1  -4  818.39   47.77
  -2   1  -5 6281.67  369.14
  -2   1  -5 6433.98  391.08
  -2   1  -5 5985.84  307.12
  -2   1  -5 6045.15  337.78
  -2   1  -6 3493.94  229.59
  -2   1  -6 3539.19  206.48
  -2   1  -6 3426.44  195.65
  -2   1  -7   -2.76   12.19
  -2   1  -7   -1.07    9.74
  -2   1  -7    8.58    7.05
  -2   1  -8  155.82   30.88
  -2   1  -8   65.57   41.17
  -2   1  -9   25.57   18.52
  -2   1  -9    5.00   23.65
   2  -1  10  117.88   42.65
  -2   1 -10  214.28   42.30
   2  -1  11   -3.91   12.10
  -2   1 -11   -0.29   11.70
   2  -1  12    5.08   10.84
  -2   1 -12   -0.69   10.71
  -2   1 -13  182.38   33.06
  -2   0  12   -1.11    8.54
   2   0 -11    6.79   19.75
  -2   0  11  105.48   23.50
  -2   0  11   -0.62   17.40
   2   0 -10   84.44   27.22
  -2   0  10   60.08   30.52
  -2   0  10   12.42   24.66
   2   0  -9    4.47   10.80
  -2   0   9  -10.08   12.24
  -2   0   9    4.94    9.90
  -2   0   8   30.06   21.84
   2   0  -7  625.77   71.79
  -2   0   7  604.84   79.25
  -2   0   7  701.14   69.42
   2   0  -6  337.38   46.40
  -2   0   6  370.92   44.98
  -2   0   6  330.56   79.30
   2   0  -5    0.21    9.67
   2   0  -5   -2.76    9.36
  -2   0   5    0.99    9.55
  -2   0   5    4.87   16.81
  -2   0   5    9.84    8.93
  -2   0   5    4.87    4.85
  -2   0   5    0.03   10.00
   2   0  -4 1351.96   90.72
   2   0  -4 1262.29   86.41
   2   0  -4 1338.91   60.37
  -2   0   4 1352.85   89.86
  -2   0   4 1428.35   93.88
  -2   0   4 1410.58   90.93
  -2   0   4 1314.56   59.84
  -2   0   4 1331.50  113.26
   2   0  -3   41.86   15.18
   2   0  -3   33.77   15.24
   2   0  -3   37.47    7.90
  -2   0   3   36.95   14.56
  -2   0   3   41.10   15.47
  -2   0   3   25.08   21.93
  -2   0   3   28.90   15.66
  -2   0   3   37.00    5.17
   2   0  -2  317.02   31.66
   2   0  -2  356.34   23.33
   2   0  -2  328.86   32.01
   2   0  -2  337.18   33.53
  -2   0   2  334.08   22.42
  -2   0   2  332.26   32.18
  -2   0   2  355.76   45.16
  -2   0   2  365.70   30.88
  -2   0   2  330.97   10.60
   2   0  -1 1714.35   99.36
   2   0  -1 1787.96   92.22
   2   0  -1 1606.37   85.66
  -2   0   1 1596.43   78.22
  -2   0   1 1681.58   88.93
  -2   0   1 1658.13   80.19
   2   0   0   97.14   16.07
   2   0   0   93.65   17.08
  -2   0   0   94.95   14.82
  -2   0   0   88.04   11.83
  -2   0   0   85.32   16.12
  -2   0   0  119.21   17.19
   2   0   1 1362.75   69.33
   2   0   1 1412.90   71.43
  -2   0  -1 1280.51   57.85
  -2   0  -1 1302.47   42.60
  -2   0  -1 1320.38   68.53
  -2   0  -1 1289.08   68.83
  -2   0  -1 1350.55   57.89
  -2   0  -2  108.34   10.52
  -2   0  -2  111.32   15.86
  -2   0  -2  104.99    5.66
  -2   0  -2  116.06   17.64
  -2   0  -2  106.93   10.69
  -2   0  -3  940.93   46.49
  -2   0  -3  955.95   46.94
  -2   0  -3  830.91   21.62
  -2   0  -3  925.63   55.62
  -2   0  -3  912.91   38.36
  -2   0  -4  864.16   51.80
  -2   0  -4  857.71   58.91
  -2   0  -4  799.94   53.04
  -2   0  -4  757.17   35.50
  -2   0  -5  219.46   27.40
  -2   0  -5  237.38   30.53
  -2   0  -5  215.54   16.22
  -2   0  -5  197.99   15.93
  -2   0  -6  154.93   24.13
  -2   0  -6  116.50   43.13
  -2   0  -6   95.73   14.08
   2   0   7  777.56   69.07
  -2   0  -7  716.20   64.32
  -2   0  -7  639.87   78.06
  -2   0  -8   35.48   20.64
  -2   0  -8   38.66   27.84
  -2   0  -9  125.51   61.11
  -2   0  -9  261.39   43.60
   2   0  10   -2.31   18.87
  -2   0 -10   19.01   16.63
   2   0  11   22.89   19.92
  -2   0 -11   -0.24   17.13
   2   0  12    4.59   13.38
  -2   0 -12    0.06   10.96
   2   0  13   -0.43    8.59
  -2   0 -13    0.70    6.89
  -2  -1  12   -1.50   11.96
   2   1 -11    5.31   11.18
  -2  -1  11    1.10   12.29
   2   1 -10  487.17   68.93
  -2  -1  10  343.89   69.12
  -2  -1  10  449.63   57.72
   2   1  -9    1.23   18.74
  -2  -1   9   28.75   19.41
  -2  -1   9   -0.43   24.96
   2   1  -8    0.17   13.21
  -2  -1   8   -2.60   11.02
  -2  -1   8   -4.08   12.97
   2   1  -7   -0.57   52.10
  -2  -1   7  133.15   29.61
  -2  -1   7  111.67   34.49
   2   1  -6 1454.71  119.05
   2   1  -6 1556.47  119.06
  -2  -1   6 1552.71  123.35
  -2  -1   6 1575.63  112.15
  -2  -1   6 1459.95  109.86
   2   1  -5 4679.37  293.29
   2   1  -5 4342.99  273.56
   2   1  -5 4320.06  253.94
  -2  -1   5 4439.77  283.41
  -2  -1   5 4393.91  266.69
  -2  -1   5 4311.68  231.02
   2   1  -4   69.20   20.65
   2   1  -4   80.36   20.13
   2   1  -4   47.70   15.74
  -2  -1   4   87.12   19.95
  -2  -1   4   76.64   18.23
  -2  -1   4    1.15   19.33
  -2  -1   4   65.71    9.96
   2   1  -3  351.60   37.56
   2   1  -3  345.70   19.03
   2   1  -3  320.42   35.69
   2   1  -3  322.50   34.62
  -2  -1   3  350.32   36.40
  -2  -1   3  351.70   36.35
  -2  -1   3  328.64   34.39
  -2  -1   3  329.64   19.05
   2   1  -2  901.95   59.06
   2   1  -2  923.50   43.36
   2   1  -2  899.36   56.22
  -2  -1   2  874.74   35.09
  -2  -1   2  906.60   59.35
  -2  -1   2  881.77   55.42
  -2  -1   2  886.48   55.61
   2   1  -1 2916.18  134.90
   2   1  -1 3080.20  158.27
   2   1  -1 3001.13  168.10
  -2  -1   1 2954.62  119.04
  -2  -1   1 3036.76  154.48
  -2  -1   1 2811.78  131.76
  -2  -1   1 2990.61  144.81
  -2  -1   1 2871.03  110.41
   2   1   0 3282.10  155.53
   2   1   0 3460.35  169.02
  -2  -1   0 3255.68  124.52
  -2  -1   0 3065.62  147.95
  -2  -1   0 3277.86  163.21
  -2  -1   0 3352.81  175.27
  -2  -1   0 3039.98  131.03
   2   1   1 1170.45   63.40
   2   1   1 1167.79   64.40
  -2  -1  -1 1085.40   80.20
  -2  -1  -1 1123.18   62.45
  -2  -1  -1 1142.86   51.58
  -2  -1  -1 1100.16   45.11
   2   1   2 6215.14  313.40
   2   1   2 6172.92  322.58
  -2  -1  -2 5800.33  272.86
  -2  -1  -2 5925.70  304.63
  -2  -1  -2 6000.10  315.94
  -2  -1  -2 5758.87  277.54
   2   1   3 3235.48  167.82
  -2  -1  -3 3150.55  153.33
  -2  -1  -3 2972.32  128.08
  -2  -1  -3 3031.47  160.80
  -2  -1  -3 3023.69  146.65
   2   1   4   -0.22   24.04
  -2  -1  -4   56.02   15.34
  -2  -1  -4   42.16   10.49
  -2  -1  -4   78.48   10.64
  -2  -1  -4   34.74    2.39
  -2  -1  -4   53.78   12.76
   2   1   5    0.39    5.22
   2   1   5    0.07    9.00
  -2  -1  -5   32.53   12.28
  -2  -1  -5   25.18    9.50
  -2  -1  -5    6.46    3.70
  -2  -1  -5    0.00    2.89
   2   1   6  429.66   47.79
  -2  -1  -6  404.56   42.55
  -2  -1  -6  446.98   48.53
   2   1   7 1824.92  127.65
   2   1   7 1769.73  128.65
  -2  -1  -7 1694.29  119.91
  -2  -1  -7 1645.21  136.56
  -2  -1  -8  339.17   49.44
  -2  -1  -8  330.56   63.12
  -2  -1  -9  254.09   45.53
  -2  -1  -9  149.61   64.35
  -2  -1 -10   25.70   37.93
  -2  -1 -10   42.88   36.64
   2   1  11   45.55   26.84
  -2  -1 -11   -0.51   19.92
   2   1  12   69.74   60.78
  -2  -1 -12  265.14   42.08
   2   1  13    3.10   20.76
  -2  -1 -13   12.87   13.38
   2   2 -11   -0.97   11.73
  -2  -2  11   -7.79   10.96
   2   2 -10   24.58   16.51
  -2  -2  10    4.52   13.01
  -2  -2  10    1.39   15.83
   2   2  -9   42.12   18.78
  -2  -2   9   -4.87   17.76
  -2  -2   9    1.26   15.43
   2   2  -8  214.63   48.97
  -2  -2   8  137.73   48.94
  -2  -2   8  226.96   41.21
   2   2  -7  187.84   43.89
  -2  -2   7  121.98   41.02
  -2  -2   7  222.94   54.73
   2   2  -6   11.86   12.43
   2   2  -6   14.68   18.77
  -2  -2   6   18.72   17.18
  -2  -2   6   33.09   15.30
   2   2  -5   15.04   25.64
   2   2  -5   18.78   11.04
  -2  -2   5   24.60   15.31
  -2  -2   5   35.49   14.39
  -2  -2   5   13.46   10.51
   2   2  -4  602.83   41.19
   2   2  -4  560.04   55.11
  -2  -2   4  600.37   50.61
  -2  -2   4  621.59   52.14
  -2  -2   4  638.62   58.74
  -2  -2   4  576.63   50.73
   2   2  -3    6.80    9.66
   2   2  -3    6.62    6.51
   2   2  -3    9.71    5.44
   2   2  -3    7.95    4.11
   2   2  -3    5.11    9.85
  -2  -2   3    4.62    5.98
  -2  -2   3    8.37    9.10
  -2  -2   3    2.88    9.81
  -2  -2   3    4.62    8.84
   2   2  -2  621.67   35.47
   2   2  -2  599.26   46.53
   2   2  -2  593.65   32.46
   2   2  -2  592.87   48.33
   2   2  -2  583.54   43.60
  -2  -2   2  615.10   33.42
  -2  -2   2  600.56   44.91
  -2  -2   2  589.46   34.64
  -2  -2   2  600.59   46.14
  -2  -2   2  585.92   64.85
   2   2  -1    9.59    7.10
   2   2  -1   13.59    9.09
   2   2  -1   14.02    7.28
  -2  -2   1    8.13    5.37
  -2  -2   1   15.57   13.35
  -2  -2   1    2.61    7.41
  -2  -2   1    9.78    7.94
  -2  -2   1    9.12    5.70
  -2  -2   1   16.68    8.75
   2   2   0  205.47   22.42
   2   2   0  220.13   23.32
  -2  -2   0  176.61   22.97
  -2  -2   0  209.41   22.71
  -2  -2   0  214.04   23.38
  -2  -2   0  218.07   17.40
  -2  -2   0  182.81   17.80
  -2  -2   0  194.97   16.54
   2   2   1 2294.92  116.77
   2   2   1 2225.93  111.86
  -2  -2  -1 2073.53   95.99
  -2  -2  -1 2208.79  109.73
  -2  -2  -1 2199.51  113.75
  -2  -2  -1 2198.12  106.57
  -2  -2  -1 2076.55   99.30
   2   2   2 1183.47   67.70
   2   2   2 1110.31   63.67
  -2  -2  -2 1093.08   65.97
  -2  -2  -2 1113.40   59.17
  -2  -2  -2 1071.55   59.02
  -2  -2  -2 1155.78   65.82
   2   2   3    2.43    6.58
  -2  -2  -3    5.03    7.70
  -2  -2  -3    2.53    6.20
  -2  -2  -3   -0.93    6.24
  -2  -2  -3    1.54    9.07
   2   2   4  110.80   17.87
   2   2   4  117.67   20.68
  -2  -2  -4   67.62   20.24
  -2  -2  -4   89.77   14.63
  -2  -2  -4   91.15   19.27
   2   2   5   27.74   10.08
   2   2   5   16.55   22.81
  -2  -2  -5   33.11   14.67
  -2  -2  -5   16.89   13.75
  -2  -2  -5   14.42   14.42
   2   2   6   34.48   11.29
   2   2   6   -0.11   18.57
   2   2   6   45.48   17.68
  -2  -2  -6   54.81   18.25
  -2  -2  -6   53.76   16.29
  -2  -2  -6   19.57   10.53
  -2  -2  -7   39.24   16.68
  -2  -2  -7   41.80   18.91
  -2  -2  -7   14.22   10.18
  -2  -2  -8  624.90   68.48
  -2  -2  -8  623.95   83.35
  -2  -2  -9   39.65   22.08
  -2  -2  -9    6.19   28.47
  -2  -2 -10    0.76   11.57
  -2  -2 -10   -5.17   16.03
   2   2  11  -18.89   25.61
  -2  -2 -11   -1.40   26.95
   2   2  12   -2.20   13.56
  -2  -2 -12    0.45    8.03
   2   2  13   -1.18   21.52
  -2  -2 -13   11.64   12.52
   2   3 -11   12.10   13.87
   2   3 -10   66.94   29.27
  -2  -3  10   49.53   35.26
   2   3  -9  797.25   90.70
  -2  -3   9  386.29   73.13
  -2  -3   9  866.52   72.31
   2   3  -8 1100.41  111.54
  -2  -3   8  591.86   97.04
  -2  -3   8 1096.37   91.25
   2   3  -7    1.22   14.31
   2   3  -7    5.39   10.31
  -2  -3   7    7.34   12.33
  -2  -3   7   -0.77   11.52
   2   3  -6    2.63   13.39
   2   3  -6   24.26   17.80
  -2  -3   6   21.68   15.14
   2   3  -5   16.38   14.19
   2   3  -5   28.24   19.10
  -2  -3   5   23.61   16.03
  -2  -3   5   33.69   13.27
   2   3  -4  680.08   61.02
   2   3  -4  684.86   63.54
   2   3  -4  672.29   51.42
  -2  -3   4  659.38   57.64
  -2  -3   4  669.16   48.15
  -2  -3   4  687.79   65.10
  -2  -3   4  665.87   57.91
   2   3  -3 2050.01  111.76
   2   3  -3 1728.93  106.85
   2   3  -3 1793.59   91.90
   2   3  -3 2055.91  124.78
  -2  -3   3 2053.94  109.25
  -2  -3   3 2025.82  124.53
  -2  -3   3 2075.55  118.61
  -2  -3   3 1948.35  119.66
   2   3  -2  233.58   27.41
   2   3  -2  255.53   22.10
   2   3  -2  251.06   28.35
   2   3  -2  273.38   29.13
   2   3  -2  256.73   31.94
  -2  -3   2  270.49   30.11
  -2  -3   2  264.81   31.95
  -2  -3   2  272.33   24.14
  -2  -3   2  317.29   38.82
   2   3  -1 3057.70  170.05
   2   3  -1 3226.37  165.05
   2   3  -1 3321.18  173.06
   2   3  -1 3125.66  171.76
   2   3  -1 3237.80  164.94
  -2  -3   1 3070.22  156.12
  -2  -3   1 3220.31  163.10
  -2  -3   1 3249.86  168.19
  -2  -3   1 3009.61  158.97
  -2  -3   1 3078.98  170.95
   2   3   0 1806.08  107.53
   2   3   0 1847.78  101.92
   2   3   0 1893.10  119.59
   2   3   0 1879.64  103.08
   2   3   0 1854.21   85.30
  -2  -3   0 1856.09   92.86
  -2  -3   0 1870.80   90.19
  -2  -3   0 1852.35  101.41
  -2  -3   0 1825.77  104.25
  -2  -3   0 1850.06  116.61
   2   3   1  405.82   41.58
   2   3   1  429.15   37.31
   2   3   1  417.74   31.24
  -2  -3  -1  394.27   20.97
  -2  -3  -1  409.90   49.70
  -2  -3  -1  401.99   32.92
  -2  -3  -1  430.27   37.69
  -2  -3  -1  432.03   30.41
   2   3   2 2048.18  121.97
   2   3   2 2087.88  117.92
   2   3   2 2032.98  125.40
  -2  -3  -2 1828.58  102.43
  -2  -3  -2 2075.07  114.50
  -2  -3  -2 1967.47  109.79
  -2  -3  -2 2067.67  105.79
   2   3   3 1049.09   72.78
   2   3   3 1026.85   63.65
  -2  -3  -3 1040.43   86.85
  -2  -3  -3 1037.20   69.00
  -2  -3  -3 1132.00   83.48
   2   3   4 2029.58  118.93
   2   3   4 1960.98  114.18
  -2  -3  -4 2024.54  116.86
  -2  -3  -4 1956.48  114.85
  -2  -3  -4 1876.68  141.75
   2   3   5  303.82   33.34
   2   3   5  300.91   35.35
   2   3   5  306.16   39.59
  -2  -3  -5  312.63   38.09
  -2  -3  -5  286.96   32.25
  -2  -3  -5  291.26   35.61
   2   3   6  148.85   24.27
   2   3   6  141.69   29.45
   2   3   6  176.10   35.88
  -2  -3  -6  194.93   32.02
  -2  -3  -6  164.21   32.04
  -2  -3  -6  114.58   24.44
   2   3   7  117.67   23.04
  -2  -3  -7  195.84   34.32
  -2  -3  -7   74.34   25.81
  -2  -3  -7  208.29   32.97
  -2  -3  -8  463.89   59.51
  -2  -3  -8  427.24   68.96
  -2  -3  -9  581.76   69.66
  -2  -3  -9  421.74   82.04
  -2  -3 -10   29.71   22.37
  -2  -3 -10   11.05   27.68
   2   3  11  253.03   79.36
   2   3  12   20.63   22.22
  -2  -3 -12   -0.25   13.39
   2   3  13    8.15   22.77
  -2  -3 -13   12.20   12.77
   2   4 -10    7.80   14.94
   2   4  -9   33.32   14.02
  -2  -4   9  -12.25    9.91
  -2  -4   8   -2.33    9.40
  -2  -4   8    5.49    9.50
   2   4  -7   19.74   15.43
   2   4  -7   24.55   20.24
  -2  -4   7    0.38   16.32
   2   4  -6  126.31   33.93
   2   4  -6  166.65   42.75
  -2  -4   6  156.43   34.83
   2   4  -5   70.77   20.63
   2   4  -5   50.88   25.74
  -2  -4   5    8.20   29.20
   2   4  -4  399.44   42.28
   2   4  -4  391.32   49.08
  -2  -4   4  209.14   53.47
   2   4  -3 1101.12   78.66
   2   4  -3 1015.86   77.25
  -2  -4   3 1028.69   68.23
  -2  -4   3  915.70   66.69
  -2  -4   3  967.69   74.49
  -2  -4   3  636.15   62.66
  -2  -4   3  990.94   75.33
   2   4  -2  134.25   37.92
   2   4  -2  122.83   19.96
   2   4  -2  203.67   43.94
   2   4  -2  189.20   25.63
  -2  -4   2  177.87   24.04
  -2  -4   2  157.68   19.51
  -2  -4   2  181.98   25.34
  -2  -4   2  171.51   25.56
  -2  -4   2  166.93   28.66
   2   4  -1  377.01   43.90
   2   4  -1  371.02   34.15
   2   4  -1  353.90   29.44
   2   4  -1  382.04   39.61
   2   4  -1  350.72   33.12
  -2  -4   1  376.05   34.52
  -2  -4   1  379.77   27.28
  -2  -4   1  365.01   32.52
  -2  -4   1  374.53   37.30
  -2  -4   1  408.26   59.45
   2   4   0    8.32   12.00
   2   4   0    7.73    9.90
   2   4   0   10.71    8.90
   2   4   0    0.03    6.20
   2   4   0    5.08    7.09
  -2  -4   0    8.21    6.15
  -2  -4   0    2.83    9.95
  -2  -4   0    4.63   10.55
  -2  -4   0    7.65    8.73
  -2  -4   0   16.72    6.02
   2   4   1  485.42   54.49
   2   4   1  532.83   64.13
   2   4   1  469.51   43.88
   2   4   1  490.34   32.69
  -2  -4  -1  420.70   27.84
  -2  -4  -1  481.16   43.72
  -2  -4  -1  486.23   45.73
  -2  -4  -1  486.83   42.69
  -2  -4  -1  505.71   32.05
   2   4   2 1823.77  123.30
   2   4   2 1837.66  145.56
   2   4   2 1762.56   91.07
  -2  -4  -2 1736.79  110.77
  -2  -4  -2 1685.45  105.40
  -2  -4  -2 1733.86  109.47
  -2  -4  -2 1743.71   91.45
   2   4   3  -27.85   27.08
   2   4   3   40.82   17.43
  -2  -4  -3   40.68   11.76
  -2  -4  -3   46.80   16.66
  -2  -4  -3   37.10   16.04
  -2  -4  -3   38.05   16.39
   2   4   4  122.22   18.03
   2   4   4    0.09   24.55
  -2  -4  -4   81.46   18.77
  -2  -4  -4   75.59   23.44
  -2  -4  -4  124.57   24.47
   2   4   5 1244.38   88.76
   2   4   5 1360.38  102.99
  -2  -4  -5 1340.10  102.38
  -2  -4  -5 1257.24   96.16
  -2  -4  -5 1237.31   96.51
   2   4   6  215.62   35.29
   2   4   6  195.61   33.33
  -2  -4  -6  202.70   36.48
  -2  -4  -6  231.94   38.55
  -2  -4  -6  199.79   35.83
   2   4   7   -7.26    9.93
  -2  -4  -7    4.92   11.79
  -2  -4  -7   14.41   10.92
  -2  -4  -7   10.86   12.51
  -2  -4  -8   -3.56   11.03
  -2  -4  -8   -1.09    9.53
   2   4   9    0.53    9.15
  -2  -4  -9    1.44   12.13
  -2  -4  -9    4.97   12.45
   2   4  10  131.32   65.49
  -2  -4 -10  238.12   48.98
   2   4  11   30.73   24.47
  -2  -4 -11   -0.24   17.72
   2   4  12    6.33   18.58
  -2  -4 -12    1.07   18.26
   2   4  13    5.49   20.33
  -2  -4 -13   18.20   12.26
   2   5 -10    4.57   10.35
   2   5  -9   13.80   12.87
  -2  -5   9    0.25    6.93
   2   5  -8    1.22   11.45
  -2  -5   8    4.00    8.34
  -2  -5   8   -1.92    8.27
   2   5  -7  372.73   64.52
  -2  -5   7  288.28   50.63
  -2  -5   7  375.61   51.27
   2   5  -6  113.54   34.28
  -2  -5   6  103.66   28.61
  -2  -5   6    1.22   28.98
   2   5  -5   23.46   15.95
  -2  -5   5    1.41   13.67
  -2  -5   5    0.45   14.56
   2   5  -4   10.58   31.78
  -2  -5   4   26.39   19.26
  -2  -5   4   27.30   18.14
   2   5  -3   86.22   29.04
  -2  -5   3   81.32   27.56
  -2  -5   3  152.24   30.44
   2   5  -2    8.06   10.35
   2   5  -2   -1.89    8.21
   2   5  -2    9.58    9.14
  -2  -5   2    7.42    9.48
  -2  -5   2    5.98   11.19
  -2  -5   2   11.78   12.27
   2   5  -1   52.97   19.19
   2   5  -1   41.31   17.47
  -2  -5   1   75.25   19.47
  -2  -5   1   37.76   16.24
  -2  -5   1   87.92   21.49
  -2  -5   1   76.84   22.73
   2   5   0  322.92   73.81
   2   5   0  402.66   43.94
   2   5   0  360.31   42.89
   2   5   0  289.76   32.51
  -2  -5   0  415.37   47.16
  -2  -5   0  405.75   45.49
  -2  -5   0  385.52   42.12
   2   5   1 1119.19  131.65
   2   5   1 1142.90  115.81
   2   5   1 1141.70   85.13
  -2  -5  -1 1131.41  108.31
  -2  -5  -1 1175.26  119.17
  -2  -5  -1 1205.71   92.70
   2   5   2   42.46   37.65
   2   5   2   62.53   32.20
   2   5   2   -1.72   30.43
  -2  -5  -2   55.77   21.55
  -2  -5  -2   56.00   20.85
  -2  -5  -2   60.79   20.44
   2   5   3 1128.77  138.03
   2   5   3 1146.25  128.60
  -2  -5  -3 1188.65   92.43
  -2  -5  -3 1200.17   96.47
  -2  -5  -3 1226.86   95.52
   2   5   4   22.04   14.55
   2   5   4   14.60   13.45
  -2  -5  -4   -4.73    9.14
  -2  -5  -4    2.81   13.87
  -2  -5  -4   29.56   14.03
   2   5   5  408.42   48.37
   2   5   5  280.74   37.77
  -2  -5  -5  450.86   47.76
  -2  -5  -5  136.96   35.67
   2   5   6  104.23   32.79
  -2  -5  -6   58.84   26.98
  -2  -5  -6  144.12   34.65
  -2  -5  -6  217.65   33.99
   2   5   7   19.15   12.76
  -2  -5  -7    2.53   12.67
  -2  -5  -7   -1.17   14.42
  -2  -5  -8   -0.60   10.75
  -2  -5  -8   -8.45   11.25
  -2  -5  -8    3.13   12.84
   2   5   9   -2.09   23.12
   2   5   9   -4.43   32.48
  -2  -5  -9  158.48   28.77
   2   5  10    0.07   10.01
   2   5  10   13.83   15.50
  -2  -5 -10   -1.09   14.13
   2   5  11   -5.54   13.99
  -2  -5 -11    0.15   11.69
   2   5  12    1.72   14.04
  -2  -5 -12   10.97   18.27
   2   6  -9   -2.82    9.56
   2   6  -8    8.68   15.44
  -2  -6   8    8.79   11.40
   2   6  -7  356.68   61.57
  -2  -6   7  325.16   51.02
  -2  -6   7  388.68   46.49
   2   6  -6  446.62   73.03
  -2  -6   6  524.52   62.23
  -2  -6   6  490.55   64.60
   2   6  -5  189.57   48.55
  -2  -6   5  229.86   45.66
  -2  -6   5  225.23   44.29
   2   6  -4  155.35   42.76
  -2  -6   4  224.54   41.79
  -2  -6   4  169.91   41.09
   2   6  -3   63.70   26.52
  -2  -6   3   49.20   27.29
  -2  -6   3   80.66   28.16
   2   6  -2  133.29   34.38
  -2  -6   2  215.29   42.22
  -2  -6   2  231.46   40.75
   2   6  -1 1379.57  127.76
   2   6  -1 1123.61  109.37
  -2  -6   1 1960.80  142.88
  -2  -6   1 1949.01  138.74
   2   6   0   15.07   19.29
  -2  -6   0   29.06   20.74
  -2  -6   0   42.53   20.77
   2   6   1 1535.72  135.54
  -2  -6  -1 1626.44  131.71
  -2  -6  -1 1666.76  131.24
   2   6   2 1262.72  121.00
  -2  -6  -2 1331.72  118.76
  -2  -6  -2 1354.28  113.90
   2   6   3   29.26   20.23
  -2  -6  -3   19.83   19.37
  -2  -6  -3    8.45   19.07
   2   6   4 1771.31  161.05
  -2  -6  -4 1894.26  159.42
  -2  -6  -4 1900.82  154.33
   2   6   5   -4.23   13.50
  -2  -6  -5   -1.35   20.47
   2   6   6  352.00   66.04
  -2  -6  -6  403.87   67.49
  -2  -6  -6  486.01   64.05
   2   6   7  334.05   76.08
  -2  -6  -7  708.93   90.09
  -2  -6  -7  782.49   80.66
   2   6   8    4.75   18.54
  -2  -6  -8  -18.55   14.11
  -2  -6  -8    5.10   14.88
   2   6   9  -20.32   20.28
   2   6  10   -5.46   10.70
  -2  -6 -10   -0.74   13.20
  -2  -6 -11   18.61   17.58
  -2  -6 -12   48.35   27.33
   2   7  -7    1.83   27.74
  -2  -7   7   29.47   15.84
   2   7  -6    2.52   11.37
  -2  -7   6    2.35   10.75
   2   7  -5    1.67   19.01
  -2  -7   5   42.71   19.78
  -2  -7   5   10.76   17.59
   2   7  -4   -0.60   12.89
  -2  -7   4   10.58   13.91
  -2  -7   4    2.20   12.87
   2   7  -3   12.37   13.77
  -2  -7   3   -1.07   15.55
  -2  -7   3    8.65   16.84
  -2  -7   2   97.10   35.76
  -2  -7   2   76.17   34.29
   2   7  -1    6.34   14.62
  -2  -7   1   10.69   18.17
  -2  -7   1   11.31   26.50
   2   7   0    7.64   20.26
  -2  -7   0   16.83   21.88
  -2  -7   0   37.21   22.64
   2   7   1  245.25   59.55
  -2  -7  -1  344.43   60.13
  -2  -7  -1  392.37   59.49
   2   7   2  327.89   65.29
  -2  -7  -2  364.25   60.72
  -2  -7  -2  359.28   64.47
   2   7   3 1061.48  128.00
  -2  -7  -3 1117.70  123.64
  -2  -7  -3 1226.98  116.51
   2   7   4   32.04   31.11
  -2  -7  -4   58.05   30.83
  -2  -7  -4   46.70   29.22
   2   7   5   54.64   38.33
  -2  -7  -5  137.65   37.61
   2   7   6   32.99   28.11
  -2  -7  -6   40.85   28.17
  -2  -7  -6   33.76   26.74
   2   7   7   -1.36   24.97
  -2  -7  -7  -20.26   17.42
  -2  -7  -7    0.19   16.69
   2   7   8    1.62   12.04
  -2  -7  -8   11.39   14.24
  -2  -7  -8    0.83   13.89
   2   7   9    6.60   12.27
  -2  -7  -9    0.79   13.70
   2   7  10    0.71    6.18
  -2  -7 -10   -1.52    7.60
  -2  -7 -11   22.75   14.63
  -2  -8   6    9.81   11.82
   2   8  -5   15.77   25.28
  -2  -8   5  277.66   45.58
   2   8  -4   22.25   32.38
  -2  -8   4  350.33   61.31
  -2  -8   4  191.63   34.53
  -2  -8   3    3.20   10.92
  -2  -8   3   -4.85   19.24
  -2  -8   2   22.08   33.19
  -2  -8   2  151.54   36.69
   2   8  -1   25.63   25.33
  -2  -8   1   84.77   32.45
  -2  -8   1  121.23   35.48
   2   8   0    4.51   18.34
  -2  -8   0    8.98   21.98
  -2  -8   0   47.73   22.72
   2   8   1   48.15   55.94
  -2  -8  -1   69.39   38.24
  -2  -8  -1  113.33   36.40
   2   8   2   28.62   29.18
  -2  -8  -2   19.21   28.29
  -2  -8  -2   47.00   26.38
   2   8   3  260.97   71.15
  -2  -8  -3  371.16   69.62
  -2  -8  -3  393.01   65.74
   2   8   4   18.17   50.45
  -2  -8  -4   72.98   31.43
  -2  -8  -4   -0.02   47.63
   2   8   5   13.29   16.35
  -2  -8  -5   -4.78   10.40
  -2  -8  -5    0.19   10.01
   2   8   6   30.93   47.35
  -2  -8  -6  236.50   51.39
  -2  -8  -6  314.40   48.73
   2   8   7    8.43   16.31
  -2  -8  -7    1.71   17.30
  -2  -8  -7   21.10   17.70
   2   8   8   26.05   26.60
  -2  -8  -8   46.76   31.87
  -2  -8  -8  204.92   31.55
   2   8   9    1.53   16.35
  -2  -8  -9   43.56   16.81
  -2  -8 -10   16.41   12.50
  -2  -9   4  145.11   30.58
  -2  -9   3   67.11   26.71
  -2  -9   2   -1.27   17.25
  -2  -9   2   47.20   19.34
  -2  -9   1   10.18   23.06
  -2  -9   1   68.59   24.54
   2   9   0    6.82   16.82
  -2  -9   0   18.36   20.46
  -2  -9   0   45.30   21.74
   2   9   1   38.70   35.43
  -2  -9  -1  230.37   40.00
   2   9   2    1.30   40.30
  -2  -9  -2  159.14   45.75
  -2  -9  -2  284.91   43.01
   2   9   3    0.83   16.94
  -2  -9  -3   31.54   27.28
  -2  -9  -3    3.77   27.24
   2   9   4    1.07   36.95
  -2  -9  -4   79.04   38.39
  -2  -9  -4  203.50   35.60
   2   9   5    6.75   13.32
  -2  -9  -5   -0.20   12.97
  -2  -9  -5    3.70   13.99
   2   9   6    6.43   12.61
  -2  -9  -6    6.14   13.40
  -2  -9  -6   -0.25   12.60
   2   9   7    4.28   14.03
  -2  -9  -7    3.73   15.56
  -2  -9  -7   27.09   14.65
   2   9   8    0.93    7.78
  -2  -9  -8    1.76    7.50
  -2 -10   1    5.22   10.24
  -2 -10   0   36.05   19.63
   2  10   1   -0.10    7.56
  -2 -10  -1    0.22    9.33
  -2 -10  -1    9.81   10.41
   2  10   2   -3.19    9.22
  -2 -10  -2    9.72   10.13
   2  10   3   -2.59    8.24
  -2 -10  -3    1.00    8.64
  -2 -10  -3   -0.90    8.27
   2  10   4    4.90   12.23
  -2 -10  -4    5.04   12.85
   2  10   5   39.57   17.61
  -2 -10  -5    2.58   18.04
  -3   9   3    0.25    6.45
   3  -9  -2    0.31    5.77
  -3   9   2   -2.56    7.84
   3  -9  -1    2.63   11.44
  -3   9   1   12.20   12.55
   3  -9   0   18.55   13.73
  -3   9   0    3.54   13.32
  -3   9  -1   -2.85    9.68
  -3   9  -1    0.04   12.19
  -3   9  -2    6.21    9.92
  -3   9  -2   -0.04    5.16
  -3   9  -3    8.35   12.49
   3  -8  -5    5.11   20.32
  -3   8   5   29.00   18.47
  -3   8   5   40.04   17.28
   3  -8  -4   12.73   14.94
  -3   8   4   11.95   17.67
   3  -8  -3   -0.04    9.62
  -3   8   3    4.12   11.09
   3  -8  -2    0.13   11.18
  -3   8   2    3.59   12.05
  -3   8   1  242.01   39.15
  -3   8   1    0.84   39.80
  -3   8   0   -0.26    9.09
  -3   8   0    1.20    9.64
  -3   8  -1   -1.14   10.51
  -3   8  -1   -0.45    9.30
  -3   8  -2   70.58   40.58
  -3   8  -2  451.28   51.88
  -3   8  -3    3.25   11.11
  -3   8  -3    0.14    7.47
  -3   8  -4    0.91   10.23
  -3   8  -5   -4.73   12.69
  -3   8  -6   -4.21   10.93
  -3   7   8    0.95    5.92
  -3   7   7    5.73   10.12
   3  -7  -6   -0.38   24.44
  -3   7   6   37.00   15.65
  -3   7   6   22.24   16.98
   3  -7  -5   -0.00    9.95
  -3   7   5    1.13    9.51
  -3   7   5    4.99   10.39
   3  -7  -4   -0.04   13.98
  -3   7   4   11.67   15.10
  -3   7   4    8.57   12.27
   3  -7  -3  117.31   31.04
  -3   7   3   15.91   31.67
  -3   7   2  314.28   55.53
  -3   7   2  240.87   57.07
  -3   7   1   -1.86    9.48
  -3   7   1    2.18    9.25
  -3   7   0    2.79   10.45
  -3   7   0   -1.70    9.99
  -3   7  -1    0.49    9.66
  -3   7  -1    0.46   10.70
  -3   7  -2  398.27   52.80
  -3   7  -2   73.67   43.86
  -3   7  -3    1.75    8.48
  -3   7  -3   -0.90   11.40
  -3   7  -4  -21.85   35.78
   3  -7   5    5.62   12.68
  -3   7  -5   14.48   27.74
   3  -7   6    5.91   11.17
  -3   7  -6    2.78   24.05
  -3   7  -7   -8.52   23.35
  -3   7  -8   -8.73   11.57
  -3   6   9   11.80   12.30
   3  -6  -8  137.51   23.47
  -3   6   8  177.89   35.34
   3  -6  -7    0.05   10.87
  -3   6   7    8.67   12.22
   3  -6  -6    0.06   15.17
  -3   6   6    5.37   12.86
  -3   6   6   19.35   15.22
   3  -6  -5    0.18   14.18
  -3   6   5    2.73   13.33
  -3   6   5   10.91   13.21
   3  -6  -4  288.77   42.64
  -3   6   4  102.57   43.53
  -3   6   4   84.51   36.17
   3  -6  -3  221.09   39.20
  -3   6   3  118.70   38.65
  -3   6   3   49.30   29.42
  -3   6   2   22.17   18.08
  -3   6   2   -3.46   17.55
  -3   6   1  147.84   39.77
  -3   6   1   80.74   38.00
  -3   6   0  506.01   69.81
  -3   6   0  399.79   67.71
  -3   6  -1  243.98   50.92
  -3   6  -1  221.13   48.09
  -3   6  -2   55.74   37.81
  -3   6  -2   19.33   20.86
  -3   6  -3   15.76   14.71
  -3   6  -3    3.14   20.27
  -3   6  -4  502.82   78.37
   3  -6   5  398.66   56.37
  -3   6  -5  394.73   72.40
   3  -6   6  128.12   34.25
  -3   6  -6  120.41   43.13
   3  -6   7   64.09   25.78
  -3   6  -7   44.14   30.65
   3  -6   8   19.01   15.61
  -3   6  -8    6.66   17.46
   3  -6   9   13.91   12.50
  -3   6  -9    3.75   13.05
   3  -5  -9    1.70    8.12
  -3   5   9   15.66   12.53
   3  -5  -8    0.06    8.43
  -3   5   8    2.17    9.66
   3  -5  -7   -0.08   11.65
  -3   5   7    5.55   12.44
   3  -5  -6    0.43   27.55
  -3   5   6   87.43   27.57
   3  -5  -5    2.15   16.48
  -3   5   5    9.06   13.99
  -3   5   5   14.41   15.55
   3  -5  -4   -1.39   23.27
  -3   5   4   44.10   21.07
  -3   5   4   38.66   19.96
   3  -5  -3 1685.90  136.30
  -3   5   3 1620.21  135.31
  -3   5   3 1209.00  118.88
  -3   5   2 1078.47  106.96
  -3   5   2 1126.90  107.64
  -3   5   1  335.60   53.43
  -3   5   1  314.29   53.16
  -3   5   0    1.44   15.32
  -3   5   0   16.15   15.01
  -3   5  -1   -0.60   30.35
  -3   5  -1  130.77   27.00
  -3   5  -2    2.55   22.21
  -3   5  -2   38.69   17.98
  -3   5  -3   61.27   19.66
  -3   5  -3   -2.37   26.13
   3  -5   4   -1.22   10.27
  -3   5  -4    9.18    9.62
  -3   5  -4    2.08   14.29
  -3   5  -5  324.03   46.97
  -3   5  -5  354.31   62.67
  -3   5  -6   72.11   23.94
  -3   5  -6   -2.34   29.87
  -3   5  -7  327.46   50.63
  -3   5  -7  248.77   61.22
  -3   5  -8   -3.38   10.80
  -3   5  -8    0.42   12.04
  -3   5  -9    2.04    9.47
  -3   5  -9    0.12    9.79
   3  -5  10   -2.82    8.15
  -3   5 -10    0.59    6.02
   3  -4 -10    2.44    4.96
  -3   4  10    3.35    9.58
  -3   4  10    1.23    5.40
   3  -4  -9    3.00   13.79
  -3   4   9    8.70   19.96
  -3   4   9   27.30   16.79
   3  -4  -8  169.41   34.69
  -3   4   8   29.55   29.26
  -3   4   8  200.17   37.63
   3  -4  -7  296.11   51.06
  -3   4   7  245.00   54.38
   3  -4  -6    4.15   32.14
  -3   4   6  121.00   30.54
   3  -4  -5    0.76   28.79
  -3   4   5   57.58   22.15
  -3   4   5  106.16   26.61
   3  -4  -4  511.46   60.85
  -3   4   4  408.40   56.64
  -3   4   4  388.03   56.01
   3  -4  -3   -1.06   12.21
  -3   4   3    7.99   10.44
  -3   4   3    1.89    9.66
  -3   4   2  558.11   60.58
  -3   4   2  527.78   56.90
  -3   4   2  403.07   48.54
  -3   4   2  433.63   50.23
  -3   4   1  320.69   39.99
  -3   4   1  311.24   38.30
  -3   4   1  193.39   28.52
  -3   4   1  134.30   27.84
  -3   4   0  448.01   53.92
  -3   4   0  457.80   53.05
  -3   4  -1  454.79   80.77
  -3   4  -1  481.44   52.38
  -3   4  -2  519.27   53.62
  -3   4  -2  532.76   62.66
  -3   4  -3   40.11   16.00
  -3   4  -3   26.71   12.50
  -3   4  -3   32.02   21.19
  -3   4  -4  122.83   25.84
  -3   4  -4  152.78   25.27
  -3   4  -4  111.96   35.52
  -3   4  -5  221.69   44.71
  -3   4  -5  198.25   34.24
  -3   4  -6   96.08   23.58
  -3   4  -6   -4.93   28.49
  -3   4  -7  743.07   76.47
  -3   4  -7  649.62   94.15
  -3   4  -8   62.11   23.29
  -3   4  -8   -0.18   24.79
  -3   4  -9  179.95   32.28
  -3   4  -9    0.29   30.63
  -3   4 -10   11.09   16.05
  -3   4 -11   -6.68   12.10
   3  -3 -10   -2.51    8.54
  -3   3  10   -0.64   14.50
   3  -3  -9  383.34   51.77
  -3   3   9  193.67   50.66
  -3   3   9  416.74   57.23
   3  -3  -8   38.43   21.69
  -3   3   8   -1.69   20.77
  -3   3   8   44.86   22.83
   3  -3  -7   -1.01   27.39
  -3   3   7  114.73   24.61
  -3   3   7  -22.07   42.93
  -3   3   6  612.31   67.13
  -3   3   6  333.48   58.42
   3  -3  -5  814.37   79.41
  -3   3   5  520.08   64.21
  -3   3   5  491.91   59.00
  -3   3   5  781.08   73.08
   3  -3  -4   16.98   14.54
  -3   3   4   -4.77   10.42
  -3   3   4   21.43   10.69
  -3   3   4    2.22   12.42
   3  -3  -3   51.27   21.18
   3  -3  -3  105.02   23.24
  -3   3   3    0.28   15.44
  -3   3   3   60.27   18.71
  -3   3   3   71.80   17.64
  -3   3   3   57.92   18.08
  -3   3   3   37.45   19.18
   3  -3  -2  196.21   34.44
   3  -3  -2  231.79   35.94
  -3   3   2  211.02   36.05
  -3   3   2  187.18   25.52
  -3   3   2  160.81   24.79
  -3   3   2  141.04   22.57
  -3   3   2  219.11   30.78
  -3   3   2  204.69   27.13
   3  -3  -1 2681.57  167.26
   3  -3  -1 2511.34  159.64
  -3   3   1 2423.97  158.65
  -3   3   1 2474.64  153.50
  -3   3   1 2360.26  157.88
  -3   3   1 2467.62  134.85
  -3   3   1 2214.71  124.48
  -3   3   1 2380.05  135.77
   3  -3   0  595.37   53.40
   3  -3   0  572.07   53.19
  -3   3   0  509.87   50.50
  -3   3   0  562.02   49.65
  -3   3   0  455.76   39.26
  -3   3   0  423.11   31.35
  -3   3   0  370.59   32.53
  -3   3  -1    6.07   12.39
  -3   3  -1   17.24   11.88
  -3   3  -2 1727.13  106.47
  -3   3  -2 1507.46   76.38
  -3   3  -2 1639.05  112.30
  -3   3  -3  365.09   37.79
  -3   3  -3  365.37   28.71
  -3   3  -3  375.98   45.36
  -3   3  -4   12.96    9.96
  -3   3  -4   13.89   16.68
  -3   3  -4   21.71   14.51
  -3   3  -5   10.65    9.20
  -3   3  -5   -0.24    8.03
  -3   3  -5   13.21   12.14
  -3   3  -6  511.66   71.23
  -3   3  -6  402.79   59.17
  -3   3  -7 1121.17  117.45
  -3   3  -7  769.44   96.95
  -3   3  -8   14.42   16.95
  -3   3  -8   15.09   17.42
  -3   3  -9   27.28   22.24
  -3   3 -10   -4.14   13.40
  -3   3 -11   60.48   26.24
  -3   3 -12    4.75   10.74
   3  -2 -11    0.86    5.13
  -3   2  11    5.23    8.92
  -3   2  11    5.82   13.80
   3  -2 -10    4.22   21.29
  -3   2  10   46.07   23.60
  -3   2  10   75.13   23.14
   3  -2  -9    6.70    9.55
  -3   2   9  -11.85   10.25
  -3   2   9    2.07   10.27
   3  -2  -8   95.90   33.13
  -3   2   8   61.58   33.41
  -3   2   8   94.13   34.67
   3  -2  -7    0.67   26.02
  -3   2   7   38.45   26.08
  -3   2   7   89.68   26.60
   3  -2  -6  441.52   63.52
  -3   2   6  390.08   61.27
  -3   2   6  462.78   90.39
   3  -2  -5   -1.47   17.80
  -3   2   5   28.90   15.43
   3  -2  -4   -1.93    6.98
   3  -2  -4    4.04    9.37
  -3   2   4    4.23    7.61
  -3   2   4   10.71    9.33
  -3   2   4    6.75    8.48
   3  -2  -3  140.43   23.77
   3  -2  -3  149.67   30.28
   3  -2  -3  155.84   28.47
  -3   2   3   96.95   22.71
  -3   2   3  121.28   21.58
  -3   2   3   92.21   25.14
  -3   2   3  120.06   23.58
  -3   2   3   79.12   25.11
   3  -2  -2  927.35   68.46
   3  -2  -2  917.11   73.23
   3  -2  -2  821.05   70.01
  -3   2   2  787.99   59.65
  -3   2   2  770.22   55.46
  -3   2   2  856.54   60.96
  -3   2   2  825.91   55.88
  -3   2   2  838.01   59.50
   3  -2  -1   86.61   35.19
   3  -2  -1  105.58   24.20
  -3   2   1   98.78   23.06
  -3   2   1  107.59   20.66
  -3   2   1   80.55   14.62
  -3   2   1   77.04   15.42
  -3   2   1   98.10   16.71
   3  -2   0 1045.11   70.94
  -3   2   0  950.35   70.60
  -3   2   0 1008.62   68.52
  -3   2   0  951.47   56.02
  -3   2   0  952.63   47.65
  -3   2   0  941.33   49.80
   3  -2   1   21.80   12.10
  -3   2  -1   40.64   11.90
  -3   2  -1   32.81   12.02
  -3   2  -1    7.64    6.53
  -3   2  -1   10.90    4.04
  -3   2  -1   40.37   12.35
  -3   2  -2  981.80   64.38
  -3   2  -2  928.42   40.61
  -3   2  -2  897.21   50.62
  -3   2  -2  925.94   67.24
  -3   2  -3  127.58   26.43
  -3   2  -3  128.49   20.26
  -3   2  -3  159.28   33.09
  -3   2  -3  129.34   23.47
  -3   2  -4   -0.50    6.06
  -3   2  -4   -3.59    5.09
  -3   2  -4   -2.31    6.16
  -3   2  -4   -2.77    7.41
  -3   2  -5    1.23   14.81
  -3   2  -5   74.05   13.81
  -3   2  -5   55.32   12.75
  -3   2  -5   45.52   16.60
  -3   2  -6  112.22   19.39
  -3   2  -6    0.13   22.40
  -3   2  -6   77.01   21.42
  -3   2  -7   12.91   10.65
  -3   2  -7   -2.89   12.27
  -3   2  -7    3.35   10.05
  -3   2  -8  594.62   56.33
  -3   2  -8  218.78   58.52
   3  -2   9  -12.34   12.21
  -3   2  -9    3.48   13.36
  -3   2 -10   24.88   20.28
  -3   2 -11  -11.89   16.77
  -3   2 -12    0.67    8.23
   3  -1 -11  179.44   28.59
  -3   1  11    8.76   54.53
  -3   1  11  206.36   31.38
   3  -1 -10   18.83   18.45
  -3   1  10   19.33   20.82
  -3   1  10   21.19   18.00
   3  -1  -9  435.40   93.21
  -3   1   9  282.59   66.74
  -3   1   9  417.45   61.21
   3  -1  -8  642.66   82.40
  -3   1   8  569.55   89.29
  -3   1   8  675.06   82.13
   3  -1  -7  345.46   58.16
  -3   1   7  337.92   60.99
  -3   1   7  354.21   59.40
   3  -1  -6   -1.18   21.70
  -3   1   6   30.47   22.08
  -3   1   6   49.00   20.56
   3  -1  -5  367.54   74.73
  -3   1   5  352.47   49.60
  -3   1   5  338.28   48.00
   3  -1  -4 1911.70  119.74
   3  -1  -4 2037.11  141.94
   3  -1  -4 1878.78  133.74
  -3   1   4 1845.43  128.68
  -3   1   4 2030.18  141.86
  -3   1   4 1672.06  103.11
  -3   1   4 1839.68  123.40
  -3   1   4 2031.52  168.60
   3  -1  -3 1010.74   64.23
   3  -1  -3  909.41   75.91
   3  -1  -3  940.49   78.11
  -3   1   3  912.22   70.22
  -3   1   3  960.55   76.94
  -3   1   3  896.50   57.91
  -3   1   3  875.05   88.63
  -3   1   3  941.45   69.99
   3  -1  -2 1366.01   79.67
   3  -1  -2 1310.38   90.49
  -3   1   2 1361.32   87.01
  -3   1   2 1278.25   98.30
  -3   1   2 1370.14  100.03
  -3   1   2 1352.84   81.73
   3  -1  -1   24.56   11.29
   3  -1  -1   20.90   12.77
  -3   1   1   15.63    8.63
  -3   1   1   30.96   17.72
  -3   1   1   14.65   11.62
  -3   1   1   18.61    9.12
   3  -1   0 1374.21   83.60
  -3   1   0 1319.10   83.19
  -3   1   0 1310.44  105.78
  -3   1   0 1350.01   79.47
  -3   1   0 1339.17   62.22
  -3   1   0 1346.23   64.58
   3  -1   1 4294.85  232.19
  -3   1  -1 3965.55  216.20
  -3   1  -1 3951.79  211.98
  -3   1  -1 4049.26  253.77
  -3   1  -1 3996.02  173.60
  -3   1  -1 4066.47  190.62
  -3   1  -2   26.23   10.84
  -3   1  -2   34.73    4.46
  -3   1  -2   45.95   13.34
  -3   1  -2   32.65    2.01
  -3   1  -2   27.41    2.13
  -3   1  -2   42.87   11.52
  -3   1  -3  619.53   31.12
  -3   1  -3  690.39   46.79
  -3   1  -3  624.03   44.74
  -3   1  -3  603.96   41.85
  -3   1  -4 4236.08  244.83
  -3   1  -4 4219.45  215.01
  -3   1  -4 4244.27  227.08
  -3   1  -4 3954.85  221.05
  -3   1  -5  558.22   52.61
  -3   1  -5  597.05   42.68
  -3   1  -5  621.52   39.36
  -3   1  -5  526.52   44.62
  -3   1  -6  313.13   40.63
  -3   1  -6  411.93   35.46
  -3   1  -6  182.04   31.64
  -3   1  -7   -6.24    9.49
  -3   1  -7    1.20   12.90
  -3   1  -8 1405.15  105.67
  -3   1  -8 1017.42  133.02
  -3   1  -9 2451.69  171.35
  -3   1  -9 1530.61  193.60
   3  -1  10   -9.81    9.89
  -3   1 -10    7.95    9.75
   3  -1  11    7.08   31.05
  -3   1 -11  170.09   31.73
   3  -1  12   37.55   21.83
  -3   1 -12   88.80   36.70
  -3   1 -13   21.48   15.22
   3   0 -11    6.48    8.65
  -3   0  11   -1.77   16.22
  -3   0  11    0.05    7.85
   3   0 -10   24.29   19.01
  -3   0  10   11.79   20.52
  -3   0  10   18.05   17.62
   3   0  -9    2.18   15.52
  -3   0   9  -16.62   16.03
  -3   0   9   -1.41   14.33
   3   0  -8   -1.07   56.83
  -3   0   8   96.24   38.21
  -3   0   8  122.35   34.90
   3   0  -7    1.43   31.60
  -3   0   7   64.74   31.34
  -3   0   7  107.30   29.75
   3   0  -6   -0.69   19.06
  -3   0   6   19.10   19.79
  -3   0   6   31.47   18.21
   3   0  -5   46.12   21.46
  -3   0   5   23.74   20.94
  -3   0   5   38.12   20.42
   3   0  -4   49.54   22.56
   3   0  -4   81.75   23.12
  -3   0   4   58.30   23.06
  -3   0   4   54.94   24.45
  -3   0   4   70.07   22.67
  -3   0   4   71.92   21.35
   3   0  -3  588.83   38.94
   3   0  -3  605.45   55.12
  -3   0   3  588.78   56.19
  -3   0   3  610.77   56.86
  -3   0   3  563.91   38.46
  -3   0   3  623.88   53.18
  -3   0   3  594.50   50.62
   3   0  -2 1166.01   66.22
   3   0  -2 1111.18   75.97
   3   0  -2 1189.70   80.79
  -3   0   2 1131.51   78.94
  -3   0   2 1067.76   64.49
  -3   0   2 1145.95   73.73
  -3   0   2 1142.91   70.74
   3   0  -1  986.97   61.80
   3   0  -1  933.40   63.19
  -3   0   1 1006.04   92.75
  -3   0   1  966.65   56.19
  -3   0   1  930.07   59.48
  -3   0   1 1033.05   60.63
   3   0   0  424.01   33.72
   3   0   0  415.87   54.48
  -3   0   0  431.70   39.94
  -3   0   0  384.89   35.47
  -3   0   0  427.07   29.39
  -3   0   0  394.49   26.60
   3   0   1   18.54   10.13
  -3   0  -1    7.28    7.21
  -3   0  -1    8.45   10.00
  -3   0  -1    8.16    9.76
  -3   0  -1   11.46    4.98
   3   0   2 1403.61   81.89
  -3   0  -2 1255.34   62.65
  -3   0  -2 1275.02   49.00
  -3   0  -2 1313.67   78.08
  -3   0  -2 1283.05   47.49
  -3   0  -2 1298.20   79.61
  -3   0  -3   56.47    9.27
  -3   0  -3   65.07    9.18
  -3   0  -3   65.02   15.34
  -3   0  -3   46.41   17.11
  -3   0  -4    7.87    8.18
  -3   0  -4   15.99    7.80
  -3   0  -4   21.33    9.36
  -3   0  -4   25.01   18.96
  -3   0  -5   29.33   11.87
  -3   0  -5   11.08   15.65
  -3   0  -5   33.64   10.67
  -3   0  -6  899.76   64.87
  -3   0  -6  835.93   75.62
  -3   0  -6  839.20   51.71
  -3   0  -7  219.27   34.20
  -3   0  -7  137.08   69.07
  -3   0  -8  262.59   57.22
  -3   0  -8  142.43   56.41
  -3   0  -9   -3.19   13.15
  -3   0  -9   -8.44   20.22
  -3   0 -10   -3.84   12.73
  -3   0 -10   18.86   18.95
   3   0  11    0.44   23.50
  -3   0 -11   38.72   20.48
   3   0  12   -4.48   14.64
  -3   0 -12   12.34   12.88
   3   0  13   -0.42    6.85
  -3   0 -13    0.42    9.81
   3   1 -11   -9.42   13.91
  -3  -1  11   -0.14    9.76
   3   1 -10    0.22   11.32
  -3  -1  10   -9.74   11.58
  -3  -1  10    1.43    9.67
   3   1  -9   58.47   30.62
  -3  -1   9   34.21   30.75
  -3  -1   9   65.28   26.57
   3   1  -8  273.12   53.55
  -3  -1   8  151.17   53.08
  -3  -1   8  187.71   71.14
   3   1  -7    0.35   64.95
  -3  -1   7  116.47   42.40
  -3  -1   7  196.04   37.96
   3   1  -6  793.73   88.96
  -3  -1   6  823.69   90.82
  -3  -1   6  825.54   83.84
   3   1  -5   12.94   13.05
  -3  -1   5   -0.97   13.42
  -3  -1   5    5.06   12.54
   3   1  -4   13.50   11.48
  -3  -1   4    4.04   11.85
  -3  -1   4   -0.37   10.64
   3   1  -3  708.17   42.16
   3   1  -3  698.02   60.38
  -3  -1   3  732.95   64.38
  -3  -1   3  768.26   64.72
  -3  -1   3  706.03   43.09
  -3  -1   3  689.09   58.01
  -3  -1   3  768.00   63.36
   3   1  -2  871.92   66.71
   3   1  -2  856.04   61.10
   3   1  -2  881.88   69.61
  -3  -1   2  842.90   68.02
  -3  -1   2  894.26   73.51
  -3  -1   2  861.97   60.05
   3   1  -1 1479.12   81.77
   3   1  -1 1448.47   83.34
   3   1  -1 1419.83   95.02
  -3  -1   1 1418.23   93.71
  -3  -1   1 1440.25  104.74
  -3  -1   1 1406.17   80.16
   3   1   0 1594.20   88.02
   3   1   0 1584.08   78.66
   3   1   0 1699.30  126.73
  -3  -1   0 1349.58   43.07
  -3  -1   0 1530.42   94.58
  -3  -1   0 1524.15   88.14
  -3  -1   0 1574.82   80.24
   3   1   1  890.59   58.63
   3   1   1  912.01   62.18
  -3  -1  -1  865.69   60.92
  -3  -1  -1  805.18   31.23
  -3  -1  -1  871.56   57.76
  -3  -1  -1  881.67   44.86
  -3  -1  -1  816.60   31.46
   3   1   2   26.82    8.58
   3   1   2   -0.09    8.90
  -3  -1  -2   -4.53   13.41
  -3  -1  -2    5.38    6.94
  -3  -1  -2    3.86    9.15
  -3  -1  -2    2.57    3.95
   3   1   3   -0.10   19.34
  -3  -1  -3   85.98   17.09
  -3  -1  -3   54.59    8.01
  -3  -1  -3  111.94   19.24
  -3  -1  -3   69.92   10.84
   3   1   4  165.91   26.71
  -3  -1  -4  160.79   26.00
  -3  -1  -4  171.13   21.34
  -3  -1  -4   98.88   10.24
  -3  -1  -4  141.88   26.13
   3   1   5 1042.67   80.20
  -3  -1  -5  929.42   62.31
  -3  -1  -5 1057.07   80.77
  -3  -1  -5 1011.38   63.49
   3   1   6 1504.48  109.30
  -3  -1  -6 1365.71   92.80
  -3  -1  -6 1507.28  111.78
  -3  -1  -6 1363.95   80.44
  -3  -1  -7   13.11   14.82
  -3  -1  -7   26.03   18.03
  -3  -1  -8   15.30   14.88
  -3  -1  -8    1.98   21.06
  -3  -1  -9   22.39   18.50
  -3  -1  -9    3.13   27.79
  -3  -1 -10   48.60   26.00
  -3  -1 -10   26.73   40.37
  -3  -1 -11  105.31   34.60
  -3  -1 -11   92.21   53.43
   3   1  12  -16.68   16.39
  -3  -1 -12    4.31   11.71
   3   1  13   -0.10   28.69
  -3  -1 -13   70.34   21.19
   3   2 -10  250.87   39.60
  -3  -2  10  251.94   32.29
  -3  -2  10    1.95   36.69
   3   2  -9  223.28   50.73
  -3  -2   9  102.98   72.00
  -3  -2   9  259.08   42.88
   3   2  -8   41.57   23.85
  -3  -2   8    6.13   22.63
  -3  -2   8   20.97   20.43
   3   2  -7 1107.37  114.24
  -3  -2   7  998.60  119.30
  -3  -2   7 1040.27  102.32
   3   2  -6  988.07  103.17
  -3  -2   6  931.89  101.99
  -3  -2   6  998.01   93.81
   3   2  -5  324.07   52.07
  -3  -2   5  343.37   52.37
  -3  -2   5  294.30   72.52
   3   2  -4   88.96   25.24
  -3  -2   4   58.08   25.29
  -3  -2   4   74.36   37.69
   3   2  -3   23.81   13.87
   3   2  -3   26.96   15.64
  -3  -2   3   42.00   16.89
  -3  -2   3   23.91    9.83
   3   2  -2 2718.20  140.07
   3   2  -2 2664.18  156.06
   3   2  -2 2669.79  168.58
  -3  -2   2 2716.37  200.04
  -3  -2   2 2693.44  145.62
  -3  -2   2 2680.65  157.73
   3   2  -1 1747.48   94.90
   3   2  -1 1709.78   94.41
   3   2  -1 1753.17  109.84
  -3  -2   1 1712.37  100.11
  -3  -2   1 1634.50   79.46
  -3  -2   1 1747.78  107.02
  -3  -2   1 1784.50  100.21
  -3  -2   1 1580.25   84.18
   3   2   0  100.69   17.81
   3   2   0   72.10   12.32
   3   2   0   84.95   31.82
  -3  -2   0   64.06    8.16
  -3  -2   0  111.53   19.49
  -3  -2   0  105.70   18.28
  -3  -2   0   74.34   16.80
  -3  -2   0   74.37    9.53
   3   2   1  267.29   47.16
   3   2   1  311.02   32.20
  -3  -2  -1  262.06   31.58
  -3  -2  -1  292.06   32.16
  -3  -2  -1  259.63   17.78
  -3  -2  -1  268.61   25.98
  -3  -2  -1  252.94   18.41
   3   2   2  190.10   39.16
   3   2   2  149.43   25.41
  -3  -2  -2  144.53   14.94
  -3  -2  -2  150.03   24.67
  -3  -2  -2  140.60   18.96
  -3  -2  -2  148.43   25.80
  -3  -2  -2  145.87   22.50
   3   2   3  290.25   52.73
  -3  -2  -3  298.64   34.26
  -3  -2  -3  271.61   23.25
  -3  -2  -3  295.90   34.82
  -3  -2  -3  267.17   24.88
   3   2   4  710.98   59.06
  -3  -2  -4  684.68   53.84
  -3  -2  -4  598.71   40.70
  -3  -2  -4  674.25   56.77
  -3  -2  -4  649.93   46.51
   3   2   5    4.71    8.69
   3   2   5   10.43   10.39
  -3  -2  -5   18.05   10.50
  -3  -2  -5   -0.72    5.19
  -3  -2  -5    4.19    8.18
   3   2   6  926.94   66.94
   3   2   6  979.29   84.89
  -3  -2  -6  898.64   94.92
  -3  -2  -6  929.17   85.41
   3   2   7   37.75   14.65
  -3  -2  -7   40.75   19.64
  -3  -2  -7   49.01   24.02
  -3  -2  -8   13.66   13.91
  -3  -2  -8   -5.07   18.03
  -3  -2  -9   13.58   17.21
  -3  -2  -9    4.97   24.56
  -3  -2 -10  134.22   39.51
  -3  -2 -10   81.89   56.16
  -3  -2 -11  522.94   95.03
  -3  -2 -11  308.49   99.01
   3   2  12  -11.49   21.47
  -3  -2 -12   -2.96   13.45
   3   2  13    0.65   14.99
  -3  -2 -13    2.74    9.16
   3   3 -10   12.27   15.31
   3   3  -9   -2.61   30.59
  -3  -3   9    7.93   25.73
  -3  -3   9  152.03   24.19
   3   3  -8   -1.28   11.79
  -3  -3   8   -4.58   10.43
  -3  -3   8    8.20   10.08
   3   3  -7   39.37   25.03
  -3  -3   7   12.24   35.87
  -3  -3   7   28.83   22.51
   3   3  -6 1864.08  163.30
  -3  -3   6 1800.75  169.13
  -3  -3   6 1947.82  153.38
   3   3  -5  389.74   55.63
  -3  -3   5  299.12   51.61
   3   3  -4   97.64   32.57
  -3  -3   4   45.24   47.65
  -3  -3   4  205.34   32.25
   3   3  -3    1.08   10.11
  -3  -3   3   10.36   10.70
  -3  -3   3    2.42   10.17
   3   3  -2    3.77    5.82
   3   3  -2    0.85    4.05
   3   3  -2   -2.60    6.42
   3   3  -2   -1.39    5.38
  -3  -3   2    0.20    3.49
  -3  -3   2    0.89    5.75
  -3  -3   2   -2.71    3.92
   3   3  -1  437.73   45.93
   3   3  -1  446.72   36.57
   3   3  -1  449.46   44.88
   3   3  -1  389.19   34.18
  -3  -3   1  391.90   27.80
  -3  -3   1  467.39   41.52
  -3  -3   1  407.12   32.64
  -3  -3   1  433.88   43.54
   3   3   0   43.11   13.99
   3   3   0   55.88   16.42
   3   3   0   -1.80    9.08
  -3  -3   0   37.94    8.90
  -3  -3   0   57.09   13.80
  -3  -3   0   43.62   14.49
  -3  -3   0   43.00   15.21
  -3  -3   0   37.07   10.48
   3   3   1   48.99   16.55
   3   3   1   46.79   15.29
  -3  -3  -1   47.55   10.99
  -3  -3  -1   40.24   16.84
  -3  -3  -1   37.46   24.61
  -3  -3  -1   33.96   11.66
  -3  -3  -1   63.67   24.35
   3   3   2 1418.55   93.49
   3   3   2 1335.39   86.03
  -3  -3  -2 1269.21   73.17
  -3  -3  -2 1328.37   92.70
  -3  -3  -2 1381.31   84.18
  -3  -3  -2 1268.57   75.09
  -3  -3  -2 1386.57   87.92
   3   3   3 1397.45   93.68
   3   3   3 1362.96   90.01
  -3  -3  -3 1327.07   81.52
  -3  -3  -3 1309.30  102.89
  -3  -3  -3 1354.14   88.13
   3   3   4  247.51   34.06
  -3  -3  -4  241.72   49.91
  -3  -3  -4  197.34   27.59
  -3  -3  -4  221.78   28.13
   3   3   5   51.85   19.40
  -3  -3  -5   46.10   19.59
  -3  -3  -5   28.40   14.26
  -3  -3  -5   51.95   17.30
   3   3   6   32.30   14.92
  -3  -3  -6   16.82   18.79
  -3  -3  -6    5.99   18.19
  -3  -3  -6   33.20   16.66
   3   3   7   46.12   19.38
  -3  -3  -7   56.38   27.13
  -3  -3  -7   77.27   37.08
  -3  -3  -8   -3.72    9.19
  -3  -3  -8    3.58   10.53
  -3  -3  -9  241.97   45.44
  -3  -3  -9   91.84   54.92
  -3  -3 -10    9.12   14.18
  -3  -3 -10   -7.06   19.05
  -3  -3 -11    3.82   20.45
  -3  -3 -11   36.11   28.10
   3   3  12    8.31   37.77
  -3  -3 -12   51.60   22.46
   3   3  13    1.68   15.91
  -3  -3 -13    3.54    9.45
   3   4  -9    6.00   30.97
  -3  -4   9  138.09   23.83
   3   4  -8    1.89   19.60
   3   4  -7    3.40   16.80
  -3  -4   7   -2.29   13.34
  -3  -4   7   21.15   14.91
   3   4  -6   -2.44   15.46
  -3  -4   6   12.32   13.02
  -3  -4   6    4.87   14.35
   3   4  -5  704.61   79.73
  -3  -4   5  398.07   67.65
  -3  -4   5  732.60   75.93
   3   4  -4 1607.19  130.79
  -3  -4   4 1467.10  124.76
   3   4  -3  200.36   35.01
  -3  -4   3  190.01   32.32
  -3  -4   3  179.87   28.98
  -3  -4   3  216.03   40.14
   3   4  -2   34.07   18.65
   3   4  -2   28.90   12.17
   3   4  -2   35.89   14.38
  -3  -4   2   23.74   12.31
  -3  -4   2   42.80   14.28
  -3  -4   2   -1.64   14.72
  -3  -4   2   23.96   13.47
  -3  -4   2   42.18   18.22
   3   4  -1   -5.03   13.40
   3   4  -1    8.18   10.27
   3   4  -1    4.49    8.06
  -3  -4   1    5.59    7.95
  -3  -4   1    1.77    9.37
  -3  -4   1   16.44   11.91
  -3  -4   1   15.65    9.34
   3   4   0 1965.35  146.97
   3   4   0 2011.03  128.64
   3   4   0 1975.78  126.78
  -3  -4   0 1912.72  112.60
  -3  -4   0 2153.03  140.56
  -3  -4   0 1958.69  150.76
  -3  -4   0 2152.78  149.90
   3   4   1  892.90   83.08
   3   4   1  922.75   73.43
   3   4   1  995.02   91.17
  -3  -4  -1  875.59   79.23
  -3  -4  -1  932.76   74.14
  -3  -4  -1  835.30   62.82
  -3  -4  -1  927.83   65.42
   3   4   2 1055.29   94.62
   3   4   2 1129.04   86.36
   3   4   2 1083.09   72.79
  -3  -4  -2 1037.70   72.46
  -3  -4  -2 1117.41   82.23
  -3  -4  -2 1033.03   74.32
  -3  -4  -2 1175.21   75.74
   3   4   3 1256.48  101.86
   3   4   3 1204.09   94.49
   3   4   3 1198.63   82.15
  -3  -4  -3 1231.31   87.34
  -3  -4  -3 1123.16   79.75
  -3  -4  -3 1178.39   84.50
  -3  -4  -3 1197.62   82.10
   3   4   4   33.25   20.16
   3   4   4   34.91   15.86
  -3  -4  -4   33.19   15.89
  -3  -4  -4   28.81   16.23
  -3  -4  -4   15.05   16.64
  -3  -4  -4   43.00   16.02
   3   4   5  506.70   59.68
  -3  -4  -5  491.63   58.08
  -3  -4  -5  461.01   55.05
  -3  -4  -5  537.03   54.58
   3   4   6   39.46   21.01
  -3  -4  -6   37.42   22.43
  -3  -4  -6   21.71   18.15
  -3  -4  -6   58.10   21.40
   3   4   7  159.69   52.48
  -3  -4  -7  136.69   60.19
  -3  -4  -7   72.02   31.01
  -3  -4  -7  281.27   38.70
  -3  -4  -8 1247.35  150.59
  -3  -4  -8 1065.93  124.62
  -3  -4  -9  131.09   36.80
  -3  -4  -9   53.07   39.55
  -3  -4 -10    6.42   17.94
  -3  -4 -10   11.86   20.68
   3   4  11   43.17   41.43
  -3  -4 -11   56.96   28.55
   3   4  12  -16.66   22.04
  -3  -4 -12   -0.87   22.43
   3   4  13    6.07   37.69
  -3  -4 -13  162.29   24.76
   3   5  -9   -1.66    8.55
   3   5  -8    3.16   12.83
   3   5  -7    1.23   13.79
  -3  -5   7    4.68   12.24
  -3  -5   6  190.82   45.11
   3   5  -5   20.96   39.36
  -3  -5   5   59.47   40.54
   3   5  -4   63.11   36.59
  -3  -5   4   36.08   20.61
   3   5  -3  -11.91   17.89
  -3  -5   3    2.43   10.71
  -3  -5   3   16.15   13.41
   3   5  -2    6.51   15.01
  -3  -5   2    6.08   10.56
  -3  -5   2   -1.18   12.91
   3   5  -1    9.73    8.91
  -3  -5   1    4.10    6.38
  -3  -5   1  -11.98    7.42
   3   5   0   45.62   31.97
  -3  -5   0   63.55   24.95
  -3  -5   0   60.11   21.63
   3   5   1   72.10   36.89
   3   5   1   72.50   20.94
  -3  -5  -1  100.79   27.93
  -3  -5  -1   94.46   24.21
  -3  -5  -1   78.33   18.76
   3   5   2  164.54   46.01
   3   5   2  195.77   41.01
  -3  -5  -2  173.26   35.99
  -3  -5  -2  168.56   32.37
  -3  -5  -2  150.80   24.59
   3   5   3  340.58   55.79
   3   5   3  257.62   33.97
  -3  -5  -3  234.34   34.93
  -3  -5  -3  286.43   41.64
   3   5   4    9.44   15.28
  -3  -5  -4    5.41    9.89
  -3  -5  -4   -0.03   12.93
  -3  -5  -4   14.56   19.82
   3   5   5   35.14   20.34
  -3  -5  -5    1.42   16.47
  -3  -5  -5   19.81   17.97
  -3  -5  -5   30.57   18.26
   3   5   6   52.44   28.02
  -3  -5  -6   50.11   38.74
  -3  -5  -6   38.07   26.50
  -3  -5  -6   90.37   27.28
   3   5   7   75.87   25.99
  -3  -5  -7   67.02   24.99
  -3  -5  -7   26.44   24.50
  -3  -5  -8  -13.23   12.19
  -3  -5  -8   10.90   11.08
  -3  -5  -8   11.59   13.38
  -3  -5  -9   64.85   25.46
  -3  -5  -9    7.04   23.68
  -3  -5 -10  -20.82   19.46
  -3  -5 -10   -2.85   17.88
   3   5  11   18.93   23.63
  -3  -5 -11   14.93   19.15
   3   5  12    4.59    9.32
  -3  -5 -12   -8.73   11.98
   3   6  -8    3.40    9.20
   3   6  -7    9.35   14.96
   3   6  -6    1.29   10.60
   3   6  -5    0.53   16.99
  -3  -6   5   23.25   17.58
   3   6  -4    4.73   37.97
  -3  -6   4  187.36   37.79
  -3  -6   4  270.16   42.74
   3   6  -3  359.05   67.37
  -3  -6   3  641.36   74.32
  -3  -6   3  796.37   79.79
  -3  -6   2  634.40   80.19
  -3  -6   2  750.26   84.97
   3   6  -1   69.74   31.60
  -3  -6   1  196.66   38.64
  -3  -6   1   91.25   53.70
   3   6   0   83.25   34.35
  -3  -6   0  155.86   38.73
  -3  -6   0  134.92   34.50
   3   6   1    2.32   10.56
  -3  -6  -1    7.57   10.52
  -3  -6  -1   -5.51    9.46
   3   6   2  490.17   71.66
  -3  -6  -2  520.27   96.98
  -3  -6  -2  437.26   60.48
   3   6   3   57.79   36.98
  -3  -6  -3  108.73   31.44
   3   6   4 1238.42  133.25
  -3  -6  -4 1391.82  123.90
  -3  -6  -4 1299.92  127.37
   3   6   5 1874.48  177.32
  -3  -6  -5 1931.54  178.51
  -3  -6  -5 1964.93  161.13
   3   6   6   89.93   38.28
  -3  -6  -6   70.45   56.37
  -3  -6  -6  145.90   38.33
   3   6   7  141.05   42.26
  -3  -6  -7   85.02   41.40
  -3  -6  -7  254.18   45.28
   3   6   8   18.09   25.06
  -3  -6  -8   -0.86   24.74
  -3  -6  -8  143.59   29.01
   3   6   9   11.41   23.93
  -3  -6  -9  107.98   25.79
  -3  -6  -9    7.14   19.91
   3   6  10    7.30   34.70
  -3  -6 -10  292.65   39.67
   3   6  11   -3.95    6.46
  -3  -6 -11    7.97    8.32
  -3  -7   6    0.38    6.44
   3   7  -5    9.26   13.41
  -3  -7   5   16.04   13.50
  -3  -7   5    3.36   15.26
   3   7  -4    3.55   20.24
  -3  -7   4  122.97   25.13
  -3  -7   4    9.06   23.22
  -3  -7   3   99.36   27.81
  -3  -7   3   -2.67   26.38
  -3  -7   2  302.97   55.79
  -3  -7   2  330.85   58.50
   3   7  -1   13.55   18.56
  -3  -7   1   24.25   23.90
  -3  -7   1   30.38   21.22
   3   7   0   13.23   17.30
  -3  -7   0   16.58   19.17
  -3  -7   0    4.52   17.49
   3   7   1   16.87   14.45
  -3  -7  -1    0.39   16.05
  -3  -7  -1   -4.31   13.58
   3   7   2    6.14   12.40
  -3  -7  -2    6.62   12.27
  -3  -7  -2   -7.20   11.30
   3   7   3  243.91   59.69
  -3  -7  -3  287.12   53.76
   3   7   4   37.60   27.92
  -3  -7  -4   25.62   26.49
  -3  -7  -4   32.11   39.45
   3   7   5  106.75   41.52
  -3  -7  -5   64.89   39.76
  -3  -7  -5  130.19   38.14
   3   7   6    2.29   18.16
  -3  -7  -6   13.13   17.04
  -3  -7  -6    7.07   17.56
   3   7   7   12.19   23.02
  -3  -7  -7   18.88   22.58
  -3  -7  -7   40.42   23.39
   3   7   8   -8.78   26.03
  -3  -7  -8   -3.40   16.61
  -3  -7  -8   43.32   18.56
   3   7   9   -1.60   11.76
  -3  -7  -9   22.03   15.21
  -3  -7 -10    8.75   14.31
  -3  -8   4    1.64    8.43
  -3  -8   4   -2.71    7.27
  -3  -8   3  -14.41   13.86
  -3  -8   3    1.86   12.15
  -3  -8   2   -0.24    8.38
  -3  -8   1  121.96   30.87
  -3  -8   1   -4.29   27.19
   3   8   0    8.34   16.84
  -3  -8   0   15.77   20.17
  -3  -8   0   13.33   17.53
   3   8   1   19.20   31.14
  -3  -8  -1  104.56   34.26
  -3  -8  -1   70.27   29.75
   3   8   2    3.05   40.63
  -3  -8  -2  143.76   41.15
  -3  -8  -2  155.33   37.94
   3   8   3    0.45   28.55
  -3  -8  -3   57.34   27.96
  -3  -8  -3   40.32   25.80
   3   8   4   -1.99   30.95
  -3  -8  -4   44.32   30.08
  -3  -8  -4   69.41   26.35
   3   8   5    5.62   31.06
  -3  -8  -5   24.36   43.86
  -3  -8  -5   75.24   27.43
   3   8   6   13.90   32.07
  -3  -8  -6   33.58   30.92
  -3  -8  -6  105.41   29.51
   3   8   7    2.01   23.77
  -3  -8  -7   25.56   25.02
  -3  -8  -7  106.43   26.03
   3   8   8   -3.21   11.39
  -3  -8  -8   -7.74   12.02
  -3  -8  -8   -5.20   20.44
  -3  -8  -9    5.92   11.71
  -3  -9   3   93.43   17.63
  -3  -9   2    7.65    8.29
  -3  -9   2   -7.67    7.33
  -3  -9   1    6.03   31.80
  -3  -9   1  148.43   27.03
  -3  -9   0  749.59   85.59
  -3  -9   0  686.34   75.29
   3   9   1    0.07   14.55
  -3  -9  -1   11.91   18.71
  -3  -9  -1   31.27   16.97
   3   9   2   -1.43   26.48
  -3  -9  -2   85.45   31.21
  -3  -9  -2  154.46   43.44
   3   9   3   -0.45   14.63
  -3  -9  -3   -0.80   16.52
  -3  -9  -3   18.99   14.10
   3   9   4    2.79   16.08
  -3  -9  -4    0.56   16.75
  -3  -9  -4   20.78   15.32
   3   9   5  364.13   65.38
  -3  -9  -5  420.26   71.09
  -3  -9  -5  618.28   64.18
   3   9   6   19.58   21.85
  -3  -9  -6    8.25   22.56
  -3  -9  -6   74.57   21.86
   3   9   7   14.04   22.99
  -3  -9  -7   13.90   23.92
  -3  -9  -7  170.47   24.11
   3  10   2   -2.37    5.74
  -3 -10  -2    0.88    7.85
  -3 -10  -2   -0.34    6.86
   3  10   3   -2.50    6.05
  -3 -10  -3    0.54    7.15
  -3 -10  -3    3.40    6.35
   4  -8  -4    0.22    6.75
  -4   8   4   -0.49    5.31
   4  -8  -3   18.28    7.97
  -4   8   3  -18.69    8.78
   4  -8  -2  338.82   44.42
  -4   8   2  216.42   47.03
   4  -8  -1   33.51   20.08
  -4   8   1    8.55   30.37
   4  -8   0   26.59   18.86
  -4   8   0   10.00   17.09
  -4   8  -1   21.80   17.10
  -4   8  -1    3.69   14.28
  -4   8  -2    5.86   11.09
  -4   8  -2   -0.01    8.03
  -4   8  -3   11.69   11.45
  -4   8  -3   -0.05    6.09
  -4   8  -4   14.69   15.42
   4  -7  -6    1.64    5.24
   4  -7  -5    1.35   23.02
  -4   7   5   18.94   12.26
   4  -7  -4   -2.68   11.56
  -4   7   4    9.28   11.18
   4  -7  -3    0.81   10.75
  -4   7   3    3.98   16.70
   4  -7  -2  157.48   34.47
  -4   7   2   18.63   33.46
   4  -7  -1   22.40   18.87
  -4   7   1    0.32   17.72
  -4   7   0  469.34   66.86
  -4   7   0  312.93   62.57
  -4   7  -1    2.14   13.36
  -4   7  -2   47.36   22.95
  -4   7  -2    0.75   18.17
  -4   7  -3   16.27    9.81
  -4   7  -3   -9.37    7.25
  -4   7  -4    5.57   14.95
  -4   7  -5   -3.96   13.03
  -4   7  -6    3.09   10.77
  -4   7  -7    6.58   10.64
   4  -6  -7    0.65    6.32
   4  -6  -6  337.78   36.89
  -4   6   6   51.05   28.41
   4  -6  -5  185.76   25.86
  -4   6   5    1.57   21.21
  -4   6   5    1.02   18.17
   4  -6  -4  150.91   41.68
   4  -6  -3   98.58   29.07
  -4   6   3    8.63   27.19
   4  -6  -2    3.86   14.90
  -4   6   2    2.94   13.69
  -4   6   1    1.15   18.16
  -4   6   1  -14.20   16.79
  -4   6   0   70.08   34.00
  -4   6   0   54.38   31.03
  -4   6  -1    3.68   17.37
  -4   6  -1    8.30   15.32
  -4   6  -2  273.64   49.35
  -4   6  -2   -0.93   63.60
  -4   6  -3   45.15   28.56
  -4   6  -3   35.64   22.55
  -4   6  -4   27.79   18.12
  -4   6  -4   -2.15   13.06
  -4   6  -5    3.95   13.80
  -4   6  -6   -1.25   10.55
  -4   6  -7    1.98   10.53
  -4   6  -8    2.06    8.26
   4  -5  -8  146.92   21.94
  -4   5   8   12.49   23.73
   4  -5  -7   32.02   19.36
  -4   5   7   18.27   17.53
   4  -5  -6  171.04   31.84
  -4   5   6    9.97   26.44
   4  -5  -5  607.29   63.94
  -4   5   5  241.67   47.63
  -4   5   5  239.49   49.25
   4  -5  -4  109.32   30.23
  -4   5   4    5.61   38.56
  -4   5   4   10.79   33.50
   4  -5  -3   -3.31   14.39
  -4   5   3    8.61   12.95
   4  -5  -2  418.03   68.11
  -4   5   2  366.23   61.90
  -4   5   1    2.65   12.71
  -4   5   1    0.21   11.21
  -4   5   0 2528.60  207.34
  -4   5   0 2487.76  199.76
  -4   5  -1  599.06   81.45
  -4   5  -1  601.32   75.24
  -4   5  -2  231.06   51.75
  -4   5  -2  240.05   46.00
  -4   5  -3  666.78   82.49
  -4   5  -3  522.57  103.29
  -4   5  -4   21.87   17.90
  -4   5  -5   -1.62   19.22
  -4   5  -6    0.27   13.90
  -4   5  -7    0.17   12.39
  -4   5  -8   -0.20    7.72
  -4   5  -9   -0.07    4.68
   4  -4  -9    5.09   17.13
  -4   4   9   16.36   13.28
   4  -4  -8   25.96   16.59
  -4   4   8    7.42   16.79
   4  -4  -7   66.23   24.43
  -4   4   7    9.89   22.45
   4  -4  -6   27.32   20.87
  -4   4   6    8.56   17.86
   4  -4  -5  244.03   36.48
  -4   4   5    0.83   25.63
  -4   4   5   57.35   29.68
   4  -4  -4  219.32   44.31
  -4   4   4  120.29   53.50
  -4   4   4   89.75   33.60
   4  -4  -3    0.98   20.88
  -4   4   3   26.64   17.60
  -4   4   3   21.00   22.58
   4  -4  -2  180.41   40.79
  -4   4   2  115.34   37.21
  -4   4   1  913.08   96.45
  -4   4   1  912.22   91.40
  -4   4   0   -2.60   22.72
  -4   4   0   55.34   21.26
  -4   4  -1   36.76   18.47
  -4   4  -1   -1.84   19.70
  -4   4  -2  347.85   49.25
  -4   4  -2  319.36   53.47
  -4   4  -3  116.15   33.97
  -4   4  -3  182.65   37.40
  -4   4  -4  205.57   34.54
  -4   4  -4    2.50   59.08
  -4   4  -5    3.73    9.09
  -4   4  -5   -3.88   19.60
  -4   4  -6   -3.26   12.78
  -4   4  -7    0.12    7.81
  -4   4  -8    1.14    8.41
  -4   4  -8    0.21   14.27
  -4   4  -9    0.67    7.71
  -4   4 -10   -2.90    8.56
   4  -3  -9    9.21   15.86
  -4   3   9   -1.08    8.90
  -4   3   9    6.99   10.74
   4  -3  -8  132.00   29.77
  -4   3   8   31.21   26.94
  -4   3   8   75.21   29.30
   4  -3  -7  280.30   46.84
  -4   3   7   56.93   41.07
  -4   3   7  235.22   44.55
   4  -3  -6  180.74   35.91
  -4   3   6   17.44   29.66
  -4   3   6   73.13   31.35
   4  -3  -5   -3.09   16.34
  -4   3   5   14.90   12.52
  -4   3   5   -1.40   13.17
   4  -3  -4    1.30   17.77
  -4   3   4    5.34   13.27
  -4   3   4   15.80   12.79
  -4   3   4    5.28   13.09
   4  -3  -3 1980.40  150.83
  -4   3   3 1455.36  128.02
  -4   3   3 1620.31  127.77
  -4   3   3 1764.76  169.20
   4  -3  -2  584.24   65.21
  -4   3   2  388.19   47.91
  -4   3   2  601.81   81.22
  -4   3   2  430.43   48.63
  -4   3   1   99.83   23.63
  -4   3   1    0.30   26.07
  -4   3   0  291.14   44.99
  -4   3   0  352.35   49.01
  -4   3  -1  114.01   29.28
  -4   3  -1   98.33   30.29
  -4   3  -2 1054.45  119.37
  -4   3  -2 1016.75   88.61
  -4   3  -3  255.50   38.57
  -4   3  -3  223.15   40.09
  -4   3  -4   -6.26   10.12
  -4   3  -4    2.18   16.96
  -4   3  -5 1123.97   91.03
  -4   3  -5 1050.86  105.50
  -4   3  -6   71.34   27.19
  -4   3  -7   55.44   21.92
  -4   3  -8    4.33   11.62
  -4   3  -9  158.93   35.67
  -4   3 -10    8.55   13.35
  -4   3 -11    6.76   10.79
   4  -2 -10  128.90   21.93
  -4   2  10    4.63   22.19
  -4   2  10  147.60   23.67
   4  -2  -9   11.78   15.04
  -4   2   9    9.03   14.60
  -4   2   9    6.98   15.06
   4  -2  -8  208.07   45.08
  -4   2   8  119.34   45.45
  -4   2   8  231.56   43.15
   4  -2  -7    3.49   19.94
  -4   2   7   32.73   29.89
  -4   2   7   14.64   19.19
   4  -2  -6   -1.51   17.41
  -4   2   6  -15.73   24.68
  -4   2   6   -9.47   15.77
   4  -2  -5   -2.02   41.28
  -4   2   5   50.78   37.07
  -4   2   5   43.87   22.87
   4  -2  -4   48.63   26.09
  -4   2   4   35.46   20.53
  -4   2   4   20.13   16.80
  -4   2   4   37.46   19.88
   4  -2  -3   75.44   24.31
  -4   2   3   -1.30   20.44
  -4   2   3   47.47   18.57
  -4   2   3   49.46   18.52
   4  -2  -2  178.06   36.51
  -4   2   2  142.41   30.06
  -4   2   2  174.19   30.58
  -4   2   2  155.15   25.84
   4  -2  -1  196.26   37.23
  -4   2   1  216.44   30.10
  -4   2   1  205.92   33.99
  -4   2   1  176.61   24.22
  -4   2   1  195.19   26.44
  -4   2   0   -6.12   16.53
  -4   2   0   98.09   21.32
  -4   2   0  105.79   21.51
  -4   2  -1  321.26   40.19
  -4   2  -1  280.85   31.35
  -4   2  -1  298.13   40.34
  -4   2  -2 1318.84   94.32
  -4   2  -2 1198.52   78.40
  -4   2  -2 1218.31   88.92
  -4   2  -3  146.36   26.82
  -4   2  -3  108.62   21.59
  -4   2  -3  116.13   24.37
  -4   2  -4  320.38   39.73
  -4   2  -4  442.00   42.91
  -4   2  -4  336.80   43.31
  -4   2  -5   -0.70   12.55
  -4   2  -5   31.74   12.14
  -4   2  -5    5.30   18.59
  -4   2  -6    0.91    7.75
  -4   2  -7   52.25   18.89
  -4   2  -8  104.64   27.61
  -4   2  -9   -0.97   13.54
  -4   2 -10  173.33   37.21
  -4   2 -11  270.38   41.87
  -4   2 -12   44.97   17.11
   4  -1 -10   -6.28    8.25
  -4   1  10    5.61    8.84
  -4   1  10   -3.79    8.22
   4  -1  -9   91.47   30.79
  -4   1   9   75.42   31.84
  -4   1   9   77.66   46.00
   4  -1  -8   79.17   30.01
  -4   1   8   62.57   48.18
  -4   1   8   39.22   29.50
   4  -1  -7   -5.86   13.47
  -4   1   7    9.23   13.10
  -4   1   7    5.80   21.76
   4  -1  -6  750.97   93.03
  -4   1   6  777.94   87.40
  -4   1   6  733.36   94.42
   4  -1  -5  897.59   97.95
  -4   1   5  953.79   88.67
  -4   1   5  878.88   99.23
   4  -1  -4    6.26   19.35
  -4   1   4    1.22    9.96
   4  -1  -3   27.23   18.16
  -4   1   3   17.23   17.90
  -4   1   3   20.09   13.37
  -4   1   3   19.35   14.73
   4  -1  -2   16.67   13.36
  -4   1   2   10.26   12.77
  -4   1   2    2.71   11.07
  -4   1   2    7.00   10.13
  -4   1   2   12.93   17.00
   4  -1  -1  886.46   70.19
   4  -1  -1  861.78   73.12
  -4   1   1  848.51   70.36
  -4   1   1  826.50   67.70
  -4   1   1  900.31   77.49
  -4   1   1  829.19   55.91
   4  -1   0   10.45   10.11
   4  -1   0    8.84    9.55
  -4   1   0    1.68    9.25
  -4   1   0   13.51    9.76
  -4   1   0   -1.45    5.64
  -4   1   0    6.93    9.39
   4  -1   1  387.70   42.76
  -4   1  -1  367.76   54.27
  -4   1  -1  350.39   41.43
  -4   1  -1  332.83   37.55
   4  -1   2  668.45   58.45
  -4   1  -2  624.02   56.99
  -4   1  -2  657.04   54.04
  -4   1  -2  630.36   50.56
  -4   1  -3   43.83   15.43
  -4   1  -3   -6.30   14.28
  -4   1  -3   40.74   12.07
  -4   1  -4   68.36   16.15
  -4   1  -4   -2.20   26.59
  -4   1  -4   26.21   12.68
  -4   1  -5   -0.63   19.96
  -4   1  -5   75.98   16.46
  -4   1  -6  219.50   44.26
  -4   1  -6  279.48   31.48
  -4   1  -6  310.61   33.56
  -4   1  -7  255.28   51.10
  -4   1  -7  304.50   38.14
  -4   1  -8   11.52   12.26
  -4   1  -8   -3.15   18.32
  -4   1  -9  205.14   35.12
  -4   1  -9   60.23   50.05
  -4   1 -10  240.33   36.77
  -4   1 -10   38.13   48.96
   4  -1  11    7.41   28.02
  -4   1 -11  181.53   28.64
  -4   1 -12  211.48   34.61
   4   0 -10   -0.80    5.89
  -4   0  10    3.42    6.32
  -4   0  10   -1.70    5.44
   4   0  -9   48.88   25.98
  -4   0   9   57.33   26.76
  -4   0   9   46.70   24.43
   4   0  -8  751.16   90.18
  -4   0   8  639.54  133.57
  -4   0   8  739.72  121.75
   4   0  -7    4.47   16.76
  -4   0   7   -3.94   27.38
  -4   0   7   10.45   15.37
   4   0  -6   12.67   17.24
  -4   0   6   17.57   16.03
  -4   0   6  -10.74   17.14
   4   0  -5  596.31   75.43
  -4   0   5  590.19   71.75
  -4   0   5  554.78   78.85
   4   0  -4   -7.20   13.07
  -4   0   4    2.22   11.53
  -4   0   4  -16.90   21.42
   4   0  -3  205.56   28.23
   4   0  -3  209.65   58.34
  -4   0   3  210.52   41.34
  -4   0   3  194.83   30.28
  -4   0   3  218.36   34.62
   4   0  -2   39.56   15.27
   4   0  -2   49.12   18.63
  -4   0   2   44.13   20.34
  -4   0   2   29.58   16.33
  -4   0   2   32.37   15.50
  -4   0   2   32.47   16.64
   4   0  -1  308.41   36.10
   4   0  -1  306.85   37.47
  -4   0   1  285.05   42.26
  -4   0   1  325.21   37.30
  -4   0   1  282.36   30.85
  -4   0   1  307.85   32.83
   4   0   0 3506.35  210.26
   4   0   0 3424.79  202.30
  -4   0   0 3352.62  211.94
  -4   0   0 3384.91  206.49
  -4   0   0 3373.29  199.69
  -4   0   0 3567.29  189.96
   4   0   1  524.98   51.35
   4   0   1  504.21   40.14
  -4   0  -1  521.19   32.44
  -4   0  -1  521.83   49.99
  -4   0  -1  530.80   49.10
  -4   0  -1  493.18   30.52
   4   0   2  135.72   26.84
   4   0   2  104.36   17.30
  -4   0  -2  152.05   25.08
  -4   0  -2  123.93   25.50
  -4   0  -3  338.19   38.92
  -4   0  -3  340.10   40.95
  -4   0  -4  785.35   85.43
  -4   0  -4  773.05   69.82
  -4   0  -5  179.87   29.43
  -4   0  -5  205.31   37.24
  -4   0  -5  174.07   31.57
  -4   0  -6    0.51   12.21
  -4   0  -6    1.59   12.12
  -4   0  -6    6.88    8.44
  -4   0  -7  101.93   36.59
  -4   0  -7  133.74   25.76
  -4   0  -8  660.01   64.66
  -4   0  -8  577.39  106.39
  -4   0  -9   35.05   19.35
  -4   0  -9    6.79   32.91
  -4   0 -10  251.10   43.31
  -4   0 -10  126.07   67.62
  -4   0 -11   24.42   18.83
  -4   0 -11   23.28   28.90
   4   0  12   54.44   21.81
  -4   0 -12   27.65   19.05
  -4   0 -13    5.50    8.87
   4   1 -10    2.96    6.57
  -4  -1  10   -0.46    6.83
  -4  -1  10   -1.03    5.87
   4   1  -9    3.86   11.29
  -4  -1   9    3.97   11.36
  -4  -1   9   -1.77    9.92
   4   1  -8   -0.40   14.35
  -4  -1   8   -0.83   14.49
  -4  -1   8    8.75   12.71
   4   1  -7    1.80   15.42
  -4  -1   7    6.26   14.43
  -4  -1   7    4.82   25.21
   4   1  -6  161.53   44.20
  -4  -1   6  169.62   65.47
  -4  -1   6  120.93   71.53
   4   1  -5   56.55   29.23
  -4  -1   5   58.97   43.22
   4   1  -4  147.06   37.71
  -4  -1   4  140.26   65.57
  -4  -1   4  191.00   35.81
   4   1  -3  141.10   23.15
   4   1  -3  158.33   33.54
  -4  -1   3  171.21   37.65
  -4  -1   3  134.35   24.70
  -4  -1   3  141.68   30.71
   4   1  -2    0.95    8.37
   4   1  -2    4.22   10.12
  -4  -1   2    9.97   12.24
  -4  -1   2    6.39    8.85
   4   1  -1  157.90   27.34
   4   1  -1  155.21   26.85
   4   1  -1  182.71   36.66
  -4  -1   1  208.36   35.14
  -4  -1   1  172.27   27.93
  -4  -1   1  219.02   28.42
   4   1   0    0.74    5.62
   4   1   0    8.12    4.44
   4   1   0    0.16    6.93
  -4  -1   0    1.01    6.69
  -4  -1   0    4.18    8.81
  -4  -1   0  -10.51    4.37
   4   1   1    8.33   11.27
   4   1   1   -0.88    6.69
   4   1   1    0.48   11.73
  -4  -1  -1   14.13   11.56
  -4  -1  -1   15.15   16.72
  -4  -1  -1   14.96    6.87
   4   1   2   82.65   20.70
   4   1   2   -0.65   21.37
  -4  -1  -2   62.60   20.21
  -4  -1  -2   86.15   21.74
   4   1   3  231.02   36.84
  -4  -1  -3  253.31   35.38
  -4  -1  -3  236.91   38.10
   4   1   4  422.05   46.79
  -4  -1  -4  285.31   26.27
  -4  -1  -4  378.12   42.20
  -4  -1  -4  446.48   47.84
  -4  -1  -5   93.12   27.81
  -4  -1  -5   52.76   17.15
  -4  -1  -5  140.39   23.34
  -4  -1  -6  418.58   56.06
  -4  -1  -6  343.02   38.72
  -4  -1  -6  352.69   41.20
   4   1   7    1.04    9.78
  -4  -1  -7   14.29   14.19
  -4  -1  -7    2.33   10.12
  -4  -1  -8  107.00   84.45
  -4  -1  -8  194.98   36.51
  -4  -1  -9   -6.69   12.27
  -4  -1  -9    7.72   13.67
  -4  -1 -10   27.28   20.46
  -4  -1 -10   27.11   36.42
  -4  -1 -11   -0.23   14.01
  -4  -1 -11   32.10   24.88
   4   1  12   34.30   23.58
  -4  -1 -12   14.61   16.31
   4   1  13   -2.54   13.18
  -4  -1 -13   -7.43    9.17
   4   2  -9    1.44   12.09
  -4  -2   9    2.47   11.84
  -4  -2   9    7.70   10.74
   4   2  -8    0.54   19.18
  -4  -2   8   21.59   19.28
  -4  -2   8   20.63   17.78
   4   2  -7    0.41   14.89
  -4  -2   7   -5.26   14.83
  -4  -2   7   -5.87   13.60
   4   2  -6 1119.20  114.60
  -4  -2   6  975.02  117.58
  -4  -2   6 1080.97  108.55
  -4  -2   5   21.73   20.09
  -4  -2   5    8.07   18.17
   4   2  -4 1478.33  127.16
  -4  -2   4 1544.48  135.05
   4   2  -3 3931.80  271.71
  -4  -2   3 4024.91  282.50
   4   2  -2  425.52   57.22
   4   2  -2  419.99   46.41
  -4  -2   2  429.85   56.09
  -4  -2   2  421.40   43.41
   4   2  -1  857.28   62.88
   4   2  -1  814.96   61.51
  -4  -2   1  840.37   75.44
  -4  -2   1  838.26   66.86
  -4  -2   1  811.07   65.41
   4   2   0   14.42   10.62
   4   2   0    6.64    7.82
   4   2   0    8.55   13.84
  -4  -2   0    9.00   12.18
  -4  -2   0    1.77   11.47
   4   2   1  912.70   70.75
   4   2   1  872.72  108.65
  -4  -2  -1  873.39   73.42
  -4  -2  -1  847.79   71.14
  -4  -2  -1  827.15   57.72
   4   2   2 3289.58  204.81
   4   2   2 3294.05  206.33
  -4  -2  -2 3237.41  205.74
  -4  -2  -2 3215.21  180.77
  -4  -2  -2 3365.64  215.33
   4   2   3   35.94   16.16
   4   2   3   32.71   17.12
  -4  -2  -3   37.22   17.55
  -4  -2  -3   15.99    9.78
  -4  -2  -3   32.49   18.12
  -4  -2  -4  888.65   74.44
  -4  -2  -4  821.86   75.38
  -4  -2  -4  726.69   67.57
  -4  -2  -5 1859.41  140.87
  -4  -2  -5 1683.23  107.48
  -4  -2  -5 1862.10  128.98
   4   2   6   33.26   16.46
  -4  -2  -6   15.85   20.84
  -4  -2  -6   13.84   13.87
   4   2   7  251.82   38.59
  -4  -2  -7  324.69   53.85
  -4  -2  -7  230.33   40.31
  -4  -2  -8   -1.56   15.10
  -4  -2  -8    5.70   11.42
  -4  -2  -9  267.09   47.26
  -4  -2  -9  143.68   73.59
  -4  -2 -10  475.01   90.05
  -4  -2 -10  339.73  104.42
  -4  -2 -11   89.55   29.29
  -4  -2 -11   40.91   49.62
   4   2  12   11.22   27.26
  -4  -2 -12   21.34   16.20
   4   2  13   -2.32   13.73
  -4  -2 -13    4.66    8.10
   4   3  -9   -5.04   16.79
  -4  -3   9   -2.47   15.22
   4   3  -8   -2.73   20.21
  -4  -3   8   24.55   18.23
  -4  -3   8   44.15   18.66
   4   3  -7   -1.49   12.40
  -4  -3   7    1.57   11.47
  -4  -3   7   -6.44   11.81
   4   3  -6   -0.74   17.24
  -4  -3   6    7.21   17.05
  -4  -3   6   21.03   16.86
   4   3  -5   78.76   31.88
  -4  -3   5   69.52   31.99
   4   3  -4  130.39   34.97
  -4  -3   4  109.78   36.94
   4   3  -3  107.56   32.07
  -4  -3   3  126.16   35.18
  -4  -3   3  181.67   36.51
   4   3  -2  112.62   33.07
   4   3  -2   86.07   25.90
  -4  -3   2  150.15   30.65
   4   3  -1    2.68   16.61
   4   3  -1    5.10    9.53
  -4  -3   1   21.10   13.32
  -4  -3   0  220.23   36.15
  -4  -3   0  193.97   34.31
  -4  -3  -1   14.01   13.86
  -4  -3  -1   -0.99   11.70
  -4  -3  -1   22.70   13.56
   4   3   2   78.86   23.91
  -4  -3  -2   87.02   26.35
  -4  -3  -2   77.13   20.18
  -4  -3  -2   77.27   25.84
  -4  -3  -3   61.65   18.85
  -4  -3  -3   56.86   15.15
  -4  -3  -3   81.81   26.11
  -4  -3  -3  116.21   24.05
  -4  -3  -3   64.11   15.40
   4   3   4  -10.81   15.88
  -4  -3  -4   15.97    9.44
  -4  -3  -4    4.71   10.26
  -4  -3  -4   21.08   14.09
  -4  -3  -4   12.25    9.81
   4   3   5   66.63   25.98
  -4  -3  -5   53.42   25.93
  -4  -3  -5   59.70   19.06
   4   3   6  340.55   48.52
  -4  -3  -6  314.41   55.59
  -4  -3  -6  304.28   63.17
   4   3   7    0.72    9.78
  -4  -3  -7   14.81   12.67
  -4  -3  -7  -13.45    9.56
  -4  -3  -8   74.01   72.47
  -4  -3  -8  125.01   34.23
  -4  -3  -9    8.91   19.81
  -4  -3  -9   34.73   28.35
  -4  -3 -10    8.81   19.08
  -4  -3 -10   30.72   29.02
  -4  -3 -11   33.89   36.58
  -4  -3 -11   40.35   38.30
   4   3  12   10.39   53.99
  -4  -3 -12  173.89   31.19
   4   4  -8    4.16   11.53
  -4  -4   8    4.25   11.17
   4   4  -7    1.56   27.29
  -4  -4   7   45.04   22.51
  -4  -4   7  246.67   42.67
   4   4  -6    4.91   27.73
  -4  -4   6   15.66   25.12
  -4  -4   6  148.58   28.47
   4   4  -5    2.61   30.76
  -4  -4   5   24.98   29.11
  -4  -4   5  199.86   32.82
   4   4  -4   -0.04   12.14
  -4  -4   4    7.21   12.22
   4   4  -3    1.85   12.50
  -4  -4   3   12.31   13.30
   4   4  -2  550.81   65.28
  -4  -4   2  820.16   73.68
   4   4  -1  705.15   95.41
  -4  -4   1  886.14   78.54
  -4  -4   1  914.85  117.07
   4   4   0  205.77   51.54
  -4  -4   0  229.46   42.07
  -4  -4   0  234.83   37.87
   4   4   1  325.02   63.72
  -4  -4  -1  387.87   49.18
  -4  -4  -1  392.29   48.44
   4   4   2   38.91   27.19
  -4  -4  -2   17.61   20.34
  -4  -4  -2   49.22   19.94
  -4  -4  -2   27.22   23.49
  -4  -4  -2   68.48   20.33
   4   4   3  189.49   45.47
  -4  -4  -3  195.48   32.88
  -4  -4  -3  213.04   35.13
  -4  -4  -3  150.71   27.19
   4   4   4  229.36   45.54
  -4  -4  -4  269.08   58.58
  -4  -4  -4  177.71   34.63
  -4  -4  -4  185.95   32.18
   4   4   5  309.26   51.05
  -4  -4  -5  309.99   47.80
  -4  -4  -5  170.32   38.76
  -4  -4  -5  290.77   39.53
   4   4   6  804.33   88.44
  -4  -4  -6  835.25   93.68
  -4  -4  -6  708.72   75.04
   4   4   7  187.07   45.87
  -4  -4  -7  234.64   64.20
  -4  -4  -8    9.80   14.07
  -4  -4  -8   -0.27   17.34
  -4  -4  -9   38.00   25.46
  -4  -4  -9   33.09   31.24
  -4  -4 -10   51.78   25.38
  -4  -4 -10   28.80   34.82
  -4  -4 -11  133.61   33.64
  -4  -4 -11   49.29   45.82
   4   4  12   13.46   28.63
  -4  -4 -12   32.48   17.45
   4   5  -7   -3.12   10.44
  -4  -5   7   -2.82   10.49
   4   5  -6    2.06   14.68
  -4  -5   6   15.15   15.87
   4   5  -5    1.34   24.48
  -4  -5   5  100.95   27.79
   4   5  -4  268.25   86.25
  -4  -5   4  545.72   71.11
  -4  -5   3   16.57   20.84
  -4  -5   2   92.00   30.54
  -4  -5   2   31.40   21.65
   4   5  -1  547.82  102.25
  -4  -5   1  783.99   85.38
  -4  -5   1  645.45   67.99
   4   5   0  314.78   73.61
  -4  -5   0  313.04   53.82
  -4  -5   0  306.88   44.78
   4   5   1   63.46   45.98
  -4  -5  -1  110.45   32.62
  -4  -5  -1   67.13   23.93
  -4  -5  -1  135.31   26.36
   4   5   2    6.69   21.39
  -4  -5  -2  -25.62   15.11
  -4  -5  -2   -7.02   11.70
  -4  -5  -2   -4.01   12.08
   4   5   3    1.63   23.51
  -4  -5  -3   -1.50   22.66
  -4  -5  -3   20.81   13.61
  -4  -5  -3   18.27   25.35
   4   5   4  421.16   70.71
  -4  -5  -4  348.71   53.91
  -4  -5  -4  370.59   49.04
  -4  -5  -4  312.54   56.37
   4   5   5  201.69   47.07
  -4  -5  -5  127.71   38.63
  -4  -5  -5   81.74   36.61
  -4  -5  -5  163.39   34.22
   4   5   6   66.08   31.66
  -4  -5  -6   66.25   28.28
  -4  -5  -6   31.55   24.50
  -4  -5  -6   69.46   26.74
   4   5   7  304.08   55.75
  -4  -5  -7   94.98   85.40
  -4  -5  -7  328.37   51.93
   4   5   8   -2.88   10.87
  -4  -5  -8    0.58   11.36
  -4  -5  -8    7.54   11.48
  -4  -5  -9   17.28   17.96
  -4  -5  -9    6.82   19.56
  -4  -5 -10  101.68   29.07
  -4  -5 -10    9.41   32.33
   4   5  11   -7.38   17.49
  -4  -5 -11   11.74   12.67
   4   5  12   -2.27   20.30
  -4  -5 -12   40.57   15.18
  -4  -6   6    3.82   11.36
   4   6  -5   11.96   31.25
  -4  -6   5  354.76   40.05
  -4  -6   4   60.28   30.11
  -4  -6   3   14.16   20.40
  -4  -6   2  158.27   45.23
   4   6  -1   18.46   21.09
  -4  -6   1   45.09   25.25
   4   6   0  349.92   69.62
  -4  -6   0  524.10   69.80
   4   6   1  -10.72   33.31
  -4  -6  -1   15.81   16.54
  -4  -6  -1    3.86   12.63
   4   6   2  -23.63   45.03
  -4  -6  -2   21.10   33.14
  -4  -6  -2   24.61   17.50
   4   6   3   86.74   63.34
  -4  -6  -3   53.97   37.49
  -4  -6  -3   59.75   31.31
   4   6   4   35.47   44.73
  -4  -6  -4   21.31   21.81
  -4  -6  -4   18.70   19.08
   4   6   5   75.98   33.66
  -4  -6  -5   13.03   27.73
  -4  -6  -5   68.04   25.48
   4   6   6   19.07   16.45
  -4  -6  -6    1.89   14.25
  -4  -6  -6   -2.90   13.85
   4   6   7  270.18   43.20
  -4  -6  -7   23.05   34.79
  -4  -6  -7   21.74   35.37
  -4  -6  -7  319.92   41.40
   4   6   8  329.70   62.88
  -4  -6  -8  650.87   95.76
   4   6   9   -0.44   14.62
  -4  -6  -9   48.45   18.39
  -4  -6  -9    5.95   15.69
   4   6  10   -4.24   13.38
  -4  -6 -10   14.96   13.02
  -4  -6 -11   23.58   16.32
  -4  -7   5   -1.14    8.25
  -4  -7   4  220.47   43.74
  -4  -7   3  538.60   71.09
  -4  -7   2  170.15   44.57
  -4  -7   1   82.63   35.89
   4   7   0   16.11   19.13
  -4  -7   0   50.40   22.38
  -4  -7   0    1.10   16.67
   4   7   1  562.91   85.22
  -4  -7  -1  861.86   93.77
  -4  -7  -1  621.60   74.29
   4   7   2  237.83   60.45
  -4  -7  -2  334.49   60.22
  -4  -7  -2  277.53   49.49
   4   7   3    1.56   30.43
  -4  -7  -3  123.50   28.96
  -4  -7  -3    3.14   23.09
   4   7   4    4.04   45.87
  -4  -7  -4   97.22   41.26
  -4  -7  -4  201.46   35.85
  -4  -7  -5   -6.23   15.21
  -4  -7  -5   13.49   13.71
  -4  -7  -6    1.73   19.84
  -4  -7  -6   37.27   20.24
  -4  -7  -7    4.13    8.40
  -4  -7  -7   -5.62    8.95
  -4  -7  -8   72.57   43.46
  -4  -7  -9   43.79   22.54
  -4  -7 -10    4.22   10.07
  -4  -8   3    3.43   11.34
  -4  -8   2   -0.47    9.35
  -4  -8   1  -22.14   10.52
  -4  -8   1    8.97    6.39
  -4  -8   0   26.73   17.61
  -4  -8   0   -0.74   12.51
  -4  -8  -1   48.55   25.45
  -4  -8  -1    6.93   30.89
  -4  -8  -2    1.22    9.15
  -4  -8  -2   -0.47    7.04
   4   8   3    0.68   20.90
  -4  -8  -3   42.86   20.53
  -4  -8  -3    4.12   16.40
   4   8   4   -0.37   16.53
  -4  -8  -4    7.49   13.01
   4   8   5    5.83   16.38
  -4  -8  -5  -13.37   22.93
  -4  -8  -5   11.73   13.48
   4   8   6   23.36   26.16
  -4  -8  -6   21.77   21.97
  -4  -8  -6   58.73   22.22
   4   8   7   -3.94   16.69
  -4  -8  -7   -1.70   13.69
  -4  -8  -7   38.72   15.16
   4   8   8   14.43   14.95
  -4  -8  -8   26.21   16.16
  -4  -8  -8   28.23   11.84
  -4  -9   1    0.93    8.07
  -4  -9   0   14.22   13.27
  -4  -9   0    4.95    7.09
   4   9   1   -0.09    7.01
  -4  -9  -1    6.05   10.72
  -4  -9  -1    1.85    7.00
   4   9   2    3.52    7.10
  -4  -9  -2   -6.24    8.82
  -4  -9  -2    1.47    6.39
   4   9   3  173.14   42.57
  -4  -9  -3  295.76   48.76
  -4  -9  -3  329.82   39.30
   4   9   4    6.67   14.85
  -4  -9  -4    2.10   15.50
  -4  -9  -4   23.01   12.95
   4   9   5   14.59   18.02
  -4  -9  -5   11.14   18.41
  -4  -9  -5   37.85   15.78
   4   9   6   37.19   17.23
  -4  -9  -6    7.38   15.35
   5  -7  -3  325.51   37.88
  -5   7   3  133.74   32.97
   5  -7  -2   16.25   15.04
  -5   7   2    8.91   13.71
   5  -7  -1   17.50   13.37
  -5   7   1   -4.40   12.76
   5  -7   0   -7.56    9.67
  -5   7   0    8.00    8.82
   5  -7   1    0.38   10.37
  -5   7  -1   -2.53    9.12
   5  -7   2  197.10   31.07
  -5   7  -2    1.98   25.61
  -5   7  -3   -0.06    9.81
  -5   7  -3   21.52   13.75
  -5   7  -4   -7.07   12.64
  -5   7  -5  -14.11   12.50
   5  -6  -5   28.08   17.33
   5  -6  -4   32.58   19.96
  -5   6   4   22.63   15.19
   5  -6  -3  230.30   35.72
  -5   6   3   31.64   31.50
   5  -6  -2   85.98   26.59
  -5   6   2    5.63   23.91
   5  -6  -1    0.39   14.03
  -5   6   1    6.46   12.93
   5  -6   0    2.36    9.39
  -5   6   0   -1.57    8.67
   5  -6   1    4.25   11.93
  -5   6  -1   -1.34   10.84
  -5   6  -2    0.73   20.82
  -5   6  -2   59.93   23.52
  -5   6  -3   61.12   34.57
  -5   6  -3  242.37   43.65
  -5   6  -4   14.67   18.93
  -5   6  -4   76.48   25.58
  -5   6  -5    8.62   14.50
  -5   6  -6   -1.28    8.14
  -5   6  -7   -0.74    4.90
   5  -5  -6  164.79   34.15
   5  -5  -5   48.51   25.49
   5  -5  -4  182.45   33.31
  -5   5   4    9.59   24.79
   5  -5  -3   17.66   17.62
  -5   5   3    1.58   14.54
   5  -5  -2  242.23   52.42
  -5   5   2  226.54   47.42
   5  -5  -1  434.08   70.44
  -5   5   1  427.42   65.87
   5  -5   0    1.17   14.42
  -5   5   0    3.57   12.95
  -5   5  -1  836.06   95.86
  -5   5  -1  939.29  104.09
  -5   5  -2    1.68   19.14
  -5   5  -2   30.53   20.68
  -5   5  -3    2.14   25.64
  -5   5  -3   89.88   28.40
  -5   5  -4  394.81   61.85
  -5   5  -4  516.09   71.09
  -5   5  -5   14.43   12.26
  -5   5  -5    0.29   15.97
  -5   5  -6   -0.36    8.60
  -5   5  -7    2.29    8.93
   5  -4  -7  270.51   41.06
   5  -4  -6   68.42   17.07
  -5   4   6  -22.84   13.38
   5  -4  -5   45.69   18.48
  -5   4   5   -5.16   12.99
   5  -4  -4   82.25   26.65
  -5   4   4    2.47   20.31
   5  -4  -3    0.28   16.63
  -5   4   3    7.57   13.41
   5  -4  -2   46.99   24.44
  -5   4   2    4.56   21.06
   5  -4  -1   77.20   32.54
  -5   4   1   44.87   29.36
   5  -4   0   30.36   21.89
  -5   4   0    4.48   20.33
  -5   4  -1  437.04   66.23
  -5   4  -2  210.08   47.59
  -5   4  -2  221.99   48.93
  -5   4  -3  130.71   37.26
  -5   4  -3  127.56   38.60
  -5   4  -4   24.44   19.30
  -5   4  -4   18.71   20.83
  -5   4  -5   12.69   12.85
  -5   4  -5    0.16   14.55
  -5   4  -6    0.11    7.14
   5  -3  -8   11.90   10.98
  -5   3   8   -2.82    6.00
   5  -3  -7   19.11   15.03
  -5   3   7    3.40   10.40
  -5   3   7    8.73   12.23
   5  -3  -6   -6.51   15.17
  -5   3   6  -10.00   11.56
  -5   3   6   -1.33   12.17
   5  -3  -5  465.49   54.62
  -5   3   5   68.05   42.13
  -5   3   5  231.84   42.56
   5  -3  -4    1.86   18.36
  -5   3   4   -3.14   13.11
  -5   3   4   19.39   12.78
   5  -3  -3  236.77   52.20
  -5   3   3  179.11   42.53
   5  -3  -2  116.08   36.00
  -5   3   2   66.03   32.16
   5  -3  -1  230.35   51.09
  -5   3   1  235.78   47.40
   5  -3   0  304.18   55.97
  -5   3   0  312.66   53.59
   5  -3   1   -8.74   13.20
  -5   3  -1    1.83   13.40
  -5   3  -2  239.98   46.45
  -5   3  -2  211.61   44.82
  -5   3  -3  799.00   80.43
  -5   3  -3  606.12   82.54
  -5   3  -4   36.13   20.17
  -5   3  -4   17.72   20.12
  -5   3  -5   76.93   23.55
  -5   3  -5   25.55   23.29
   5  -2  -8  -15.10   17.07
  -5   2   8   -0.55    9.43
  -5   2   8   -2.49    9.06
   5  -2  -7  461.86   59.69
  -5   2   7  263.37   53.43
  -5   2   7  433.85   77.09
   5  -2  -6  400.78   59.51
  -5   2   6  251.67   54.49
  -5   2   6  342.04   52.06
   5  -2  -5    1.64   26.37
  -5   2   5   33.86   23.56
  -5   2   5   42.88   21.71
   5  -2  -4  492.45  101.13
  -5   2   4  414.95   62.97
  -5   2   4  311.63   54.43
  -5   2   4  414.13   58.23
   5  -2  -3  367.80   61.07
  -5   2   3  322.04   52.83
  -5   2   3  341.02   51.21
  -5   2   3  225.95   45.38
   5  -2  -2   34.53   16.66
  -5   2   2  -12.09   14.31
  -5   2   2    9.20   14.96
   5  -2  -1   41.90   25.26
  -5   2   1   46.41   21.31
  -5   2   1   40.77   24.57
   5  -2   0  -12.37   10.33
  -5   2   0    6.23   11.01
  -5   2   0    1.35    8.77
   5  -2   1 1233.23  105.94
  -5   2  -1 1286.85  109.63
  -5   2  -1 1101.59   94.00
   5  -2   2   16.63   32.90
  -5   2  -2  283.09   39.98
  -5   2  -2  227.01   31.89
  -5   2  -3   34.84   16.73
  -5   2  -3    8.22   13.83
  -5   2  -3    3.14   14.86
  -5   2  -4   14.69   16.23
  -5   2  -4   30.18   18.03
  -5   2  -5  259.66   41.87
  -5   2  -6  482.60   56.43
   5  -1  -8    5.06   12.07
  -5   1   8    4.36   11.75
  -5   1   8    3.38   10.97
   5  -1  -7   -0.12   22.20
  -5   1   7   39.05   22.06
  -5   1   7   32.66   19.89
   5  -1  -6   -0.39   17.12
  -5   1   6    4.06   16.49
  -5   1   6   26.08   23.05
   5  -1  -5    1.81   24.32
  -5   1   5   50.00   24.47
  -5   1   5   26.14   21.03
   5  -1  -4   34.45   24.71
  -5   1   4   30.31   25.00
  -5   1   4   25.27   20.32
  -5   1   3  872.79   94.54
  -5   1   3  811.07   80.63
  -5   1   3  857.36   80.49
   5  -1  -2   27.88   18.48
  -5   1   2    1.69   18.54
  -5   1   2   32.23   16.82
  -5   1   2    5.38   13.70
   5  -1  -1  267.63   44.60
  -5   1   1  270.92   44.98
  -5   1   1  237.08   45.19
   5  -1   0  148.87   34.10
  -5   1   0  161.73   52.32
  -5   1   0  178.38   36.79
   5  -1   1   68.11   23.85
  -5   1  -1   85.18   28.30
  -5   1  -1   90.70   25.52
   5  -1   2   35.38   20.37
  -5   1  -2   66.68   25.78
  -5   1  -2   90.91   23.62
  -5   1  -3 1071.82   92.47
  -5   1  -3 1031.70   90.79
  -5   1  -4   93.52   50.21
  -5   1  -4  132.62   30.99
  -5   1  -5  482.37   70.87
  -5   1  -5  637.74   64.44
  -5   1  -6   34.43   22.20
  -5   1  -6   34.17   19.87
  -5   1  -7    2.87   12.41
  -5   1  -8   13.38   22.22
  -5   1  -9  -15.55   22.53
  -5   1 -10  -12.34   18.31
  -5   1 -11   -8.46    8.85
   5   0  -8    5.65   10.80
  -5   0   8   -4.76   10.83
  -5   0   8    3.82    9.62
   5   0  -7    3.78   55.26
  -5   0   7  113.93   35.98
  -5   0   7  134.69   32.65
   5   0  -6    0.66   16.45
  -5   0   6   14.63   17.24
  -5   0   6    5.50   15.01
   5   0  -5  353.63   60.67
  -5   0   5  327.91   63.70
  -5   0   5  322.96   56.06
   5   0  -4   84.26   35.13
  -5   0   4  101.28   37.46
  -5   0   4   99.86   47.98
   5   0  -3    0.16   16.16
  -5   0   3    4.27   17.58
  -5   0   3   23.06   13.85
  -5   0   3    4.10   12.76
   5   0  -2 1693.76  136.82
  -5   0   2 1676.24  144.90
  -5   0   2 1610.22  122.70
  -5   0   2 1683.27  121.50
   5   0  -1  477.79   57.37
  -5   0   1  505.33   63.98
  -5   0   1  471.58   80.64
  -5   0   1  456.08   46.18
   5   0   0   -2.27   13.79
  -5   0   0   -7.99   16.61
  -5   0   0   54.45   15.49
   5   0   1   39.52   20.16
  -5   0  -1  111.43   25.98
  -5   0  -1  103.77   27.62
  -5   0  -2   89.45   41.76
  -5   0  -2   84.71   30.00
  -5   0  -3 1280.61  139.92
  -5   0  -3 1264.19  106.92
  -5   0  -4  860.99   82.24
  -5   0  -4  877.62   86.18
  -5   0  -5  114.00   40.91
  -5   0  -5  209.50   36.55
  -5   0  -6  388.67   67.80
  -5   0  -6  507.47   58.10
  -5   0  -7    6.69   11.89
  -5   0  -7   -5.94    8.81
  -5   0  -8   47.90   55.44
  -5   0  -9  -34.03   35.44
  -5   0 -10  162.81   29.08
  -5   0 -10   48.93   53.43
  -5   0 -11   18.15   16.14
  -5   0 -11   -5.47   19.07
  -5   0 -12    4.29    5.43
   5   1  -8    5.47    9.73
  -5  -1   8    0.80   10.07
  -5  -1   8   -1.24    9.10
   5   1  -7   -0.47   23.07
  -5  -1   7   38.93   23.19
  -5  -1   7   44.94   21.35
   5   1  -6    0.03   42.53
  -5  -1   6   27.67   29.10
  -5  -1   6   66.88   24.65
   5   1  -5  197.70   46.96
  -5  -1   5  149.06   51.03
  -5  -1   5  228.05   45.15
   5   1  -4   96.25   34.66
  -5  -1   4   90.39   39.59
  -5  -1   4   99.88   32.94
   5   1  -3  128.89   38.64
  -5  -1   3  182.75   45.17
  -5  -1   3  158.67   36.38
   5   1  -2  175.13   36.30
  -5  -1   2  187.83   44.65
  -5  -1   2  155.65   33.76
  -5  -1   2  150.96   33.52
   5   1  -1   46.14   20.16
  -5  -1   1   70.10   25.95
  -5  -1   1   67.78   22.06
  -5  -1   1    4.55   21.06
   5   1   0  163.52   30.73
  -5  -1   0  224.92   41.54
  -5  -1   0  201.72   37.53
  -5  -1   0  185.00   28.21
  -5  -1  -1  133.66   31.60
  -5  -1  -1  120.51   35.62
  -5  -1  -2   24.39   19.16
  -5  -1  -2   21.91   20.17
  -5  -1  -3  202.34   39.41
  -5  -1  -3  183.02   40.75
  -5  -1  -4   87.12   29.02
  -5  -1  -4   72.24   30.39
  -5  -1  -5  245.43   50.23
  -5  -1  -5  256.43   45.37
  -5  -1  -6   -1.21   17.14
  -5  -1  -6   11.31   13.66
   5   1   7    6.87   12.82
  -5  -1  -7  -23.84   16.25
  -5  -1  -9    4.19   12.18
  -5  -1  -9   27.18   26.01
  -5  -1 -10    1.94    8.17
  -5  -1 -10   -1.75   17.21
  -5  -1 -11    1.79    5.49
  -5  -1 -11   -9.58   12.00
   5   1  12    0.64   10.86
  -5  -1 -12    2.20    5.94
   5   2  -8  188.12   29.03
  -5  -2   8    2.29   28.80
  -5  -2   8  179.61   28.31
   5   2  -7   11.64   21.91
  -5  -2   7   38.47   22.53
  -5  -2   7   48.24   21.49
   5   2  -6    3.65   18.94
  -5  -2   6   10.38   19.44
  -5  -2   6   25.96   18.11
   5   2  -5  290.16   58.59
  -5  -2   5  328.21   63.39
  -5  -2   5  391.59   57.29
   5   2  -4   -6.62   26.14
  -5  -2   4    2.00   19.13
  -5  -2   4   23.32   17.09
   5   2  -3  215.71   44.66
  -5  -2   3  266.60   52.73
  -5  -2   3  243.35   46.49
   5   2  -2    5.98   16.49
  -5  -2   2   25.45   21.08
  -5  -2   2   24.46   15.60
  -5  -2   1  597.42   74.42
  -5  -2   1  555.09   64.31
  -5  -2   1  599.35   61.57
  -5  -2   0 3339.86  243.42
  -5  -2   0 3391.72  236.31
  -5  -2   0 3197.83  209.22
  -5  -2  -1  465.53   65.12
  -5  -2  -1  383.78   56.36
  -5  -2  -1  374.05   60.13
  -5  -2  -2   70.95   30.60
  -5  -2  -2   85.75   32.03
  -5  -2  -3  274.89   49.60
  -5  -2  -3  256.13   50.98
  -5  -2  -4  238.34   47.18
  -5  -2  -4  232.37   48.66
  -5  -2  -5  126.80   42.48
  -5  -2  -5  165.82   37.88
   5   2   6  -10.24   26.57
  -5  -2  -6  129.85   31.70
   5   2   7  536.41   64.19
  -5  -2  -7  465.65   80.95
  -5  -2  -8  488.58   59.12
  -5  -2  -9   -2.22   12.98
  -5  -2  -9   51.67   26.55
  -5  -2 -10   -3.25   10.05
  -5  -2 -10   -3.42   21.00
  -5  -2 -11   18.33   15.35
  -5  -2 -11   42.80   32.31
   5   2  12    4.96   20.57
  -5  -2 -12   14.57    9.94
   5   3  -7  360.69   49.82
  -5  -3   7  495.27   50.96
  -5  -3   7  274.56   48.19
   5   3  -6    2.03   29.46
  -5  -3   6  216.79   31.37
  -5  -3   6   55.38   31.53
   5   3  -5   -1.29   12.88
  -5  -3   5    8.91   14.04
  -5  -3   5  -21.65   14.21
   5   3  -4    2.31   27.64
  -5  -3   4  185.71   32.71
  -5  -3   4   47.54   32.16
   5   3  -3   -2.11   10.93
  -5  -3   3    5.53   12.73
  -5  -3   3    7.41   13.41
  -5  -3   2    7.14   16.46
  -5  -3   2   12.35   17.52
   5   3  -1    7.98   21.63
  -5  -3   1   10.61   16.98
   5   3   0    2.55   62.08
  -5  -3   0  320.81   64.35
  -5  -3   0  301.71   48.08
  -5  -3  -1  262.84   50.52
  -5  -3  -1  248.08   39.88
  -5  -3  -1  259.40   49.63
  -5  -3  -2   43.98   26.66
  -5  -3  -2   54.39   18.90
  -5  -3  -2   31.86   26.72
  -5  -3  -3   18.22   20.52
  -5  -3  -3   17.97   19.54
   5   3   4   17.88   14.78
  -5  -3  -4  -16.32   12.11
   5   3   5  256.09   55.72
  -5  -3  -5  283.06   54.12
   5   3   6  205.11   48.90
  -5  -3  -6  282.75   58.04
   5   3   7   45.89   24.29
  -5  -3  -7   25.04   29.53
   5   3   8    8.08   13.26
  -5  -3  -8    1.30   11.30
  -5  -3  -9   -3.11   12.80
  -5  -3  -9   36.09   23.42
  -5  -3 -10    3.56   25.51
  -5  -3 -10   43.10   31.29
  -5  -3 -11   -4.71   10.65
  -5  -3 -11  -17.04   22.40
   5   3  12    7.72   15.49
  -5  -3 -12    2.04    6.40
   5   4  -6   -6.33   13.51
  -5  -4   6    8.82   12.79
   5   4  -5    1.26   12.27
  -5  -4   5   10.30   13.16
   5   4  -4    0.36   10.66
  -5  -4   4   17.08   21.68
  -5  -4   4    2.98   12.18
  -5  -4   3  432.85   93.85
  -5  -4   3  301.82   54.73
  -5  -4   2  108.02   36.81
  -5  -4   2   92.55   52.62
   5   4  -1   39.04   35.02
  -5  -4   1   49.23   27.61
  -5  -4   1   57.93   27.30
   5   4   0  140.92   57.78
  -5  -4   0  189.88   40.37
  -5  -4   0  148.24   41.15
   5   4   1   17.11   31.05
  -5  -4  -1    5.52   21.68
  -5  -4  -1   38.53   19.03
   5   4   2  274.36   69.22
  -5  -4  -2  252.70   43.98
  -5  -4  -2  292.91   49.54
   5   4   3   40.16   23.28
  -5  -4  -3    1.80   13.78
  -5  -4  -3    9.08   16.35
   5   4   4   42.20   32.00
   5   4   5  135.80   43.72
  -5  -4  -5  111.03   40.44
   5   4   6   66.36   31.05
  -5  -4  -6   40.03   31.80
   5   4   7   69.18   28.12
  -5  -4  -7   61.19   30.12
  -5  -4  -7   24.46   20.99
   5   4   8   -3.66   12.70
  -5  -4  -8   46.46   26.18
  -5  -4  -8    0.11   10.67
  -5  -4  -9    0.07   15.19
  -5  -4  -9   37.96   24.35
  -5  -4 -10    4.96    8.44
  -5  -4 -10  -10.59   14.48
  -5  -4 -11    2.34    7.59
  -5  -4 -11   -0.58   14.10
  -5  -5   6    1.81    9.40
  -5  -5   4   51.31   20.91
  -5  -5   3  379.84   56.82
  -5  -5   3  215.40   44.40
  -5  -5   2  376.39   58.31
  -5  -5   2  247.71   48.63
   5   5  -1  -12.84   13.08
  -5  -5   1   13.59   10.12
  -5  -5   1   -3.49    8.90
   5   5   0  149.46   67.84
  -5  -5   0  187.83   45.28
  -5  -5   0  200.82   41.68
   5   5   1   43.74   43.08
  -5  -5  -1   56.69   26.75
  -5  -5  -1   39.21   24.51
   5   5   2 1139.45  154.40
  -5  -5  -2 1070.15  109.21
  -5  -5  -2 1108.69  102.43
   5   5   3  729.35  115.28
  -5  -5  -3  697.47  111.84
  -5  -5  -3  609.53   81.20
   5   5   4   22.95   27.25
  -5  -5  -4   -7.12   18.70
  -5  -5  -4   28.98   16.89
   5   5   5  172.12   52.90
  -5  -5  -5  123.80   41.41
   5   5   6   16.30   18.62
  -5  -5  -6    4.30   16.18
  -5  -5  -6   -2.07   18.78
   5   5   7   -4.34   33.48
  -5  -5  -7   31.92   21.09
  -5  -5  -7    9.37   16.34
   5   5   8   25.67   35.99
  -5  -5  -8  175.53   31.54
  -5  -5  -8  109.01   41.44
  -5  -5  -9  178.44   32.81
  -5  -5  -9   69.48   43.21
  -5  -5 -10  254.77   33.81
  -5  -5 -10    4.39   45.03
   5   5  11   -6.99   35.25
  -5  -5 -11  140.10   21.21
  -5  -6   4    4.51   12.49
  -5  -6   3  123.21   37.62
  -5  -6   2  -13.81   19.19
  -5  -6   1   -8.54   17.51
   5   6   0   -6.94    9.48
  -5  -6   0    7.03   10.13
   5   6   1  -14.43   22.96
  -5  -6  -1    3.30    9.86
   5   6   2   -5.34   36.39
  -5  -6  -2   34.24   32.33
   5   6   3    0.84   29.54
  -5  -6  -3   10.92   16.63
   5   6   4   -0.12   35.55
  -5  -6  -4    2.10   12.98
  -5  -6  -4   10.46   13.98
  -5  -6  -5   12.17   12.85
  -5  -6  -5   -4.25   12.50
  -5  -6  -6   -7.72   17.94
  -5  -6  -6    2.07   15.16
  -5  -6  -7   -3.11    9.74
  -5  -6  -7   -1.50   10.92
  -5  -6  -8    0.27    8.95
  -5  -6  -8    3.42    9.71
  -5  -6  -9   -5.24   10.73
   5   6  10    0.27    7.59
  -5  -6 -10   -2.94    6.82
  -5  -7   3    2.60   10.55
  -5  -7   2    2.48   11.24
  -5  -7   1  625.32  107.66
  -5  -7   0  447.21   98.99
  -5  -7  -2   62.94   30.54
   5   7   3   -2.21   15.70
  -5  -7  -3    8.16   13.56
   5   7   4  346.21   59.68
  -5  -7  -4  197.55   49.17
   5   7   5   19.59   22.19
  -5  -7  -5   19.76   17.65
  -5  -7  -5   11.93   15.04
   5   7   6   10.55   19.22
  -5  -7  -6   13.29   20.71
   5   7   7   34.23   33.23
  -5  -7  -7  129.45   24.33
   5   7   8    9.15   11.43
  -5  -7  -8    3.12    9.72
  -5  -7  -9   -1.73    5.86
  -5  -8   1  -12.64   14.44
  -5  -8   0    9.04   14.50
   5   8   1    0.08    9.50
  -5  -8  -1   10.16   12.06
   5   8   2    5.87   14.18
  -5  -8  -2   11.91   15.11
   5   8   3    3.20   11.30
  -5  -8  -3   -7.40   10.71
   5   8   4   -7.19   10.28
  -5  -8  -4    4.76    8.74
  -5  -8  -4    1.86    5.39
   5   8   5   16.57   23.69
  -5  -8  -5   65.25   18.40
  -5  -8  -5    9.25   20.62
   5   8   6   14.39   14.29
  -5  -8  -6    1.52    7.95
  -5  -8  -6   11.75    8.82
   5   8   7    8.43   12.52
   6  -6  -1    3.32    9.74
  -6   6   1    2.93    9.49
   6  -6   0    7.45   12.53
  -6   6   0    8.40   12.18
   6  -6   1   -7.01    7.73
  -6   6  -1    7.89    7.52
   6  -6   2    0.80    6.60
  -6   6  -2   -0.28    6.29
   6  -6   3    2.99    8.62
  -6   6  -3    2.76    7.89
   6  -5  -4  337.45   43.20
   6  -5  -3   17.12   28.67
  -6   5   3   21.89   14.75
   6  -5  -2   -6.19   12.38
  -6   5   2   -1.39   10.70
   6  -5  -1   -0.86   10.96
  -6   5   1    4.23   10.30
   6  -5   0   -2.67   10.13
  -6   5   0    5.11   10.14
   6  -5   1    0.76   30.39
  -6   5  -1  165.29   30.23
   6  -5   2    3.91   10.23
  -6   5  -2   -1.11   10.12
   6  -5   3    2.36    8.90
  -6   5  -3   -0.28    8.90
   6  -5   4   11.07   12.84
  -6   5  -4    0.15   19.19
  -6   5  -5   -0.03    4.69
   6  -4  -5  337.88   44.43
   6  -4  -4  199.89   40.14
   6  -4  -3   -0.25   25.79
  -6   4   3   13.78   13.03
   6  -4  -2  263.11   48.80
  -6   4   2  201.12   42.29
   6  -4  -1   -1.62    9.31
  -6   4   1    0.65    8.67
   6  -4   0    2.37   16.09
  -6   4   0   10.29   15.86
   6  -4   1   -0.58    8.88
  -6   4  -1    1.32    9.36
   6  -4   2    1.81    8.31
  -6   4  -2   -2.33    8.74
   6  -4   3    3.15   13.02
   6  -4   4    1.50    7.83
  -6   4  -4   -0.65    8.10
  -6   4  -5   10.62   13.40
   6  -3  -6    2.88    9.44
   6  -3  -5  -10.15   14.90
   6  -3  -4   -1.55   10.96
   6  -3  -3    6.74   16.60
  -6   3   3    7.99   19.82
   6  -3  -2  204.76   47.04
   6  -3  -1   -2.20   13.04
  -6   3   1    6.82   12.25
   6  -3   0   -1.42    9.65
  -6   3   0    0.46    9.96
   6  -3   1   -0.59   11.23
  -6   3  -1   -3.40   12.28
   6  -3   2    2.62    9.88
  -6   3  -2   -1.11   10.77
   6  -3   3    1.10    7.09
  -6   3  -3   -1.59    7.97
  -6   3  -4    1.04   15.43
  -6   3  -5   45.19   23.47
  -6   3  -6   11.76   13.97
   6  -2  -6   -5.28   11.45
  -6   2   6   12.33    6.55
  -6   2   6   -1.02    7.92
   6  -2  -5   -7.93   10.71
  -6   2   5    5.38    6.88
  -6   2   5    1.92   13.35
   6  -2  -4    2.46   14.40
  -6   2   4    8.61   18.59
   6  -2  -3  485.27   57.14
  -6   2   3  237.35   46.69
  -6   2   3  236.66   49.12
   6  -2  -2    3.85   15.67
  -6   2   2    2.97   13.84
  -6   2   2   -1.28    8.78
   6  -2  -1  430.69   59.81
  -6   2   1  396.66   56.70
  -6   2   1  283.29   51.47
   6  -2   0  891.00   95.46
  -6   2   0 1013.02   95.23
  -6   2   0  774.23   84.29
   6  -2   1  187.81   43.54
  -6   2  -1  281.21   47.39
  -6   2  -1  186.59   40.01
   6  -2   2  134.57   41.27
  -6   2  -2  305.74   47.81
  -6   2  -3   15.64   18.78
  -6   2  -4   -2.79   20.37
  -6   2  -5  311.46   51.45
  -6   2  -6   -2.28   10.72
   6  -1  -6   12.82   29.74
  -6   1   6   50.98   14.83
  -6   1   6    1.32   17.94
   6  -1  -5   -0.62   24.12
  -6   1   5   52.22   18.47
  -6   1   5   65.05   23.05
   6  -1  -4    2.19   18.21
  -6   1   4   13.85   13.66
  -6   1   4   21.74   18.04
   6  -1  -3  225.72   38.86
  -6   1   3   18.91   32.01
  -6   1   3  191.94   38.54
   6  -1  -2    0.74   13.93
  -6   1   2    2.49   12.25
  -6   1   2   17.43   21.11
   6  -1  -1  116.22   50.18
  -6   1   1   95.54   32.87
  -6   1   1   98.42   33.63
   6  -1   0   17.03   18.59
  -6   1   0   31.04   30.46
  -6   1   0   13.83   19.44
  -6   1  -1  -10.88   14.76
  -6   1  -1    3.56    9.02
  -6   1  -2   16.56   18.60
  -6   1  -2   -3.33   10.94
  -6   1  -3  191.85   42.31
  -6   1  -3  141.22   39.72
  -6   1  -4   22.44   20.74
  -6   1  -4   21.72   21.46
  -6   1  -5   95.05   40.84
  -6   1  -5  217.58   40.95
  -6   1  -6   20.05   20.60
  -6   1  -6   21.69   19.42
  -6   1  -7   37.13   72.24
  -6   1  -7  236.59   38.13
  -6   1  -8   -1.00   11.06
  -6   1  -9    3.74   11.66
   6   0  -6   12.95   13.88
  -6   0   6    8.03   11.73
  -6   0   6    3.57   14.27
   6   0  -5   -1.80   21.90
  -6   0   5   50.05   18.71
  -6   0   5   50.04   23.48
   6   0  -4  220.81   46.89
  -6   0   4  243.51   40.28
  -6   0   4  267.83   50.97
   6   0  -3   -0.54   10.66
  -6   0   3   -1.47    8.64
  -6   0   3    8.24   11.88
   6   0  -2   -1.91   12.34
  -6   0   2    0.42   11.50
  -6   0   2   13.09   13.82
   6   0  -1   33.75   23.87
  -6   0   1   45.69   25.03
  -6   0   1   56.48   27.44
  -6   0   0   87.09   32.98
  -6   0   0   91.67   35.55
  -6   0  -1  409.94   65.38
  -6   0  -1  482.12   68.20
  -6   0  -2  118.67   37.70
  -6   0  -2   97.70   37.00
  -6   0  -3  228.81   51.95
  -6   0  -3  257.58   50.42
  -6   0  -4  209.21   44.80
  -6   0  -4   75.72   66.31
  -6   0  -5  -12.47   18.20
  -6   0  -5   28.85   17.28
  -6   0  -6   39.31   22.56
  -6   0  -6    5.98   20.59
  -6   0  -7   17.80   21.22
  -6   0  -7   14.28   17.12
  -6   0  -8  -25.49   39.77
  -6   0  -9   17.90   25.52
  -6   0 -10    0.05    8.07
   6   1  -6  343.15   45.79
  -6  -1   6  381.09   43.12
  -6  -1   6  303.58   50.40
   6   1  -5  377.03   54.17
  -6  -1   5  392.39   50.12
  -6  -1   5  412.12   60.00
   6   1  -4   -1.59   24.90
  -6  -1   4    6.12   14.95
  -6  -1   4   27.30   19.28
   6   1  -3   -0.73   13.34
  -6  -1   3   13.45   12.63
  -6  -1   3    2.76   16.35
   6   1  -2    1.03   11.20
  -6  -1   2    4.06   11.28
  -6  -1   2   -4.82   10.35
  -6  -1   2  -17.90   14.28
  -6  -1   1  804.30   85.12
  -6  -1   1  787.96  137.53
  -6  -1   0  -10.75   10.71
  -6  -1   0   10.67   11.63
  -6  -1  -1  111.56   39.47
  -6  -1  -1  127.68   42.75
  -6  -1  -2 1934.35  167.15
  -6  -1  -2 1847.38  168.88
  -6  -1  -3  509.26   75.42
  -6  -1  -3  478.95   75.37
  -6  -1  -4  209.49   49.88
  -6  -1  -4  181.79   49.57
  -6  -1  -5   27.93   24.73
  -6  -1  -6    1.16   14.07
  -6  -1  -6   -4.88   12.30
   6   1   7  556.42   69.35
  -6  -1  -7  468.66   78.71
  -6  -1  -8   14.20   20.78
  -6  -1  -9   39.56   36.25
  -6  -1 -10   14.17   24.29
  -6  -1 -11    6.88   15.93
  -6  -2   6    0.59   10.37
  -6  -2   6    0.22   11.66
   6   2  -5    9.21    7.10
  -6  -2   5   -5.22    7.76
  -6  -2   5   -9.23    8.84
   6   2  -4    0.73   19.96
  -6  -2   4   76.30   21.90
  -6  -2   4   49.11   25.25
   6   2  -3    1.51   11.68
  -6  -2   3   -1.56   12.57
  -6  -2   3   20.55   15.54
   6   2  -2  375.85   71.28
  -6  -2   2  407.78   53.65
  -6  -2   2  381.37   99.49
  -6  -2   1    0.22   21.36
  -6  -2   1   -3.65   29.94
  -6  -2   1   86.32   25.40
  -6  -2   0    3.14   20.05
  -6  -2   0   32.77   22.66
  -6  -2  -1   61.99   29.72
  -6  -2  -1   41.14   31.42
  -6  -2  -2  298.20   61.63
  -6  -2  -2  334.37   63.69
  -6  -2  -3  747.55   93.18
  -6  -2  -3  654.51   90.01
  -6  -2  -4   11.44   14.14
  -6  -2  -4   -7.29   14.43
  -6  -2  -5    8.50   17.68
   6   2   6   10.18   30.36
  -6  -2  -6   95.00   33.49
   6   2   7    8.69   18.04
  -6  -2  -7   20.30   21.86
   6   2   8   -3.55   14.47
  -6  -2  -8   35.08   19.63
  -6  -2  -9    3.72   21.08
  -6  -2 -10   13.98   26.12
  -6  -2 -11    3.80   15.92
  -6  -3   5    2.12   11.00
  -6  -3   5    4.99   11.21
  -6  -3   4  380.52   60.78
  -6  -3   4  501.14   58.86
  -6  -3   3  350.90   59.52
  -6  -3   2   37.93   21.25
  -6  -3   2    1.44   18.81
   6   3  -1  330.03   74.57
  -6  -3   1  350.49   63.36
  -6  -3   1  328.56   52.73
   6   3   0  323.42   92.09
  -6  -3   0  396.64   68.25
  -6  -3   0  387.50   51.44
   6   3   1   42.98   45.57
  -6  -3  -1   44.99   29.81
   6   3   2   77.64   49.41
  -6  -3  -2   58.35   32.52
   6   3   3  243.45   66.56
  -6  -3  -3  143.13   47.11
   6   3   4  760.38  115.09
  -6  -3  -4  755.27  133.52
   6   3   5  302.67   67.18
   6   3   6  256.01   52.69
  -6  -3  -6  186.57   56.46
   6   3   7    5.52   18.66
  -6  -3  -7   25.38   21.95
   6   3   8    0.39   10.27
  -6  -3  -8    3.34   12.95
  -6  -3  -9   52.46   42.04
  -6  -3 -10   -0.69   13.49
  -6  -3 -11   21.05   24.43
  -6  -4   4    4.30    9.46
  -6  -4   4   -0.60   10.34
  -6  -4   3   40.70   36.76
  -6  -4   3  302.45   41.13
  -6  -4   2  179.54   42.29
   6   4  -1  -15.38   11.85
  -6  -4   1   10.41    9.81
  -6  -4   1    1.16    8.96
   6   4   0   31.62   39.94
  -6  -4   0  100.23   28.27
  -6  -4   0   10.63   24.66
   6   4   1    0.60   24.48
  -6  -4  -1    8.47   15.37
  -6  -4  -1    4.26   12.45
   6   4   2    3.86   58.07
  -6  -4  -2  132.92   36.27
   6   4   3    2.39   26.29
  -6  -4  -3   10.02   16.67
   6   4   4   -3.69   26.83
  -6  -4  -4   17.65   18.99
   6   4   5   -1.01   23.77
  -6  -4  -5   18.14   19.40
   6   4   6    5.66   16.32
  -6  -4  -6    1.73   15.25
   6   4   7   -1.14   20.76
  -6  -4  -7  -33.12   22.03
   6   4   8   -6.48   13.79
  -6  -4  -8   -3.30   29.73
  -6  -4  -9   -0.55   12.70
  -6  -4 -10   -3.02   14.75
  -6  -5   3    2.00   10.24
  -6  -5   2   75.83   27.00
  -6  -5   2  144.49   31.78
  -6  -5   1    6.06   19.54
  -6  -5   1   57.98   21.36
   6   5   0   31.90   48.69
  -6  -5   0   14.76   29.62
  -6  -5   0  180.35   31.00
   6   5   1  338.38   96.09
  -6  -5  -1  362.53   54.64
  -6  -5  -1  368.91   53.09
   6   5   2    4.63   18.43
  -6  -5  -2   -1.36   14.85
  -6  -5  -2    0.62    9.06
   6   5   3   -1.53   27.85
  -6  -5  -3    9.70   15.49
   6   5   4   -0.66   24.75
  -6  -5  -4    7.67   14.76
   6   5   5  348.54   85.75
  -6  -5  -5  351.09   60.12
   6   5   6    9.89   39.71
  -6  -5  -6   90.44   30.79
   6   5   7   11.56   28.32
  -6  -5  -7    7.64   16.01
   6   5   8  129.23   28.05
  -6  -5  -8   -2.94   35.05
  -6  -5  -9   -1.35   11.20
  -6  -6   2  162.83   32.62
  -6  -6   1  221.89   40.02
   6   6   0   -0.01    8.86
  -6  -6   0   -6.68   15.62
   6   6   1   28.86   23.54
  -6  -6  -1   25.83   20.88
   6   6   2   -2.29   26.32
  -6  -6  -2    1.94    9.78
   6   6   3   -2.62   62.15
  -6  -6  -3   32.90   20.41
  -6  -6  -3   54.66   19.85
   6   6   4    0.61   43.15
  -6  -6  -4   13.32   14.60
   6   6   5    4.56   15.33
  -6  -6  -5    2.97   11.07
   6   6   6  -11.76   13.04
  -6  -6  -6   21.10   15.03
   6   6   7   19.25   20.10
   6   6   8   -1.22    7.82
  -6  -7   0    9.83   12.19
   6   7   1    0.07    6.22
  -6  -7  -1   -1.79    7.40
   6   7   2   11.54   20.35
  -6  -7  -2   58.52   18.15
   6   7   3   16.53   25.43
  -6  -7  -3   61.49   18.57
   6   7   4   -1.63   10.92
  -6  -7  -4    3.91    9.15
   6   7   5   -0.54    9.17
   6   7   6   10.99   14.86
   6   7   7    6.69   11.04
  -7   4   1   18.76   13.40
  -7   4   0   14.07   14.04
  -7   4  -1  279.88   41.10
  -7   4  -2   -7.88   12.76
  -7   4  -3   -2.13    8.98
  -7   4  -4    5.69    9.87
   7  -3  -2   19.22   14.10
   7  -3  -1    6.03   13.54
  -7   3   1   22.47   14.52
  -7   3   0   17.68   16.49
  -7   3  -1    3.05   11.68
  -7   3  -2   -0.50    8.98
  -7   3  -3    1.42   10.23
  -7   3  -4   -2.50   10.23
  -7   3  -5   -0.11    5.94
  -7   3  -6    0.05    3.82
   7  -2  -2   19.59   14.76
  -7   2   2   54.37   14.42
  -7   2   2    0.94   10.68
  -7   2   1   15.53   10.87
  -7   2   1   -2.49    7.57
  -7   2   0   -2.71   11.51
  -7   2  -1  -15.99   18.43
  -7   2  -2    2.79   12.91
  -7   2  -3  405.76   60.26
  -7   2  -4    2.15   11.46
  -7   2  -5    0.67    8.59
  -7   2  -6    0.20    6.44
  -7   1   4  192.66   27.41
  -7   1   3   10.21   12.49
  -7   1   2   -1.59    7.23
  -7   1   2    4.24    8.26
  -7   1   1    1.91    9.91
  -7   1   1   -4.49    9.44
  -7   1   0    7.19   17.40
  -7   1   0   16.64   15.84
  -7   1  -1  181.42   34.44
  -7   1  -1   23.86   30.46
  -7   1  -2   -9.58    9.38
  -7   1  -2   17.14   12.31
  -7   1  -3   -0.10   22.65
  -7   1  -3   36.02   19.60
  -7   1  -4  190.25   35.74
  -7   1  -4   35.96   30.51
  -7   1  -5    1.50   16.00
  -7   1  -5  -16.32   13.36
  -7   1  -6    0.00    8.50
  -7   1  -6    1.43    7.53
  -7   1  -7   -3.57    9.23
  -7   0   4    6.94   11.26
  -7   0   3    2.21   10.37
  -7   0   2   62.89   26.27
  -7   0   1   14.14   25.33
  -7   0   1  114.38   27.79
  -7   0   0  190.54   41.66
  -7   0   0  177.33   42.62
  -7   0  -1  -11.26   13.68
  -7   0  -1   16.02   12.91
  -7   0  -2    7.47   19.69
  -7   0  -2   15.12   17.46
  -7   0  -3    1.28   24.77
  -7   0  -3   79.60   36.32
  -7   0  -4    0.57   18.59
  -7   0  -4   17.12   17.02
  -7   0  -5   -0.39   16.80
  -7   0  -5   19.77   16.90
  -7   0  -6   -1.35   12.30
  -7   0  -6   -6.21   12.78
   7   0   7    1.54    9.08
  -7   0  -7    1.31    9.73
  -7   0  -8    1.58   10.98
  -7  -1   4    3.37   10.18
  -7  -1   3  307.28   49.41
   7   1  -2  196.40   46.61
  -7  -1   2  343.15   51.71
   7   1  -1   10.32   34.84
  -7  -1   1   44.79   24.71
  -7  -1   0  242.49   45.25
  -7  -1   0  193.20   49.29
  -7  -1  -1    0.11   24.90
  -7  -1  -1   65.59   25.53
  -7  -1  -2   -8.02   28.62
  -7  -1  -2   91.79   27.85
  -7  -1  -3  301.24   61.25
  -7  -1  -3  326.87   87.88
  -7  -1  -4    1.20   31.08
  -7  -1  -4  108.70   31.62
  -7  -1  -5 1233.43  116.16
  -7  -1  -5 1108.70  119.66
   7   1   6  531.00   75.39
  -7  -1  -6  466.04   73.52
   7   1   7    3.88   12.76
  -7  -1  -7  -16.28   14.14
  -7  -1  -8   13.88   23.42
  -7  -1  -9    3.66   13.84
  -7  -2   3    0.30    7.90
  -7  -2   2    1.75   11.81
   7   2  -1    0.38   28.65
  -7  -2   1   49.24   23.91
   7   2   0   27.25   66.69
  -7  -2   0  248.09   45.42
   7   2   1    0.54   38.33
  -7  -2  -1   28.60   22.60
   7   2   2   -2.87   32.95
  -7  -2  -2  -14.71   19.27
   7   2   3   -4.69   42.55
  -7  -2  -3   76.61   42.30
   7   2   4   26.90   67.07
  -7  -2  -4  232.10   47.11
   7   2   5    8.51   39.83
  -7  -2  -5   90.02   31.79
   7   2   6   16.30   13.49
  -7  -2  -6  -10.70   12.48
   7   2   7   -6.38   10.99
  -7  -2  -7   11.66   11.98
  -7  -2  -8   20.23   36.84
  -7  -2  -9   14.76   22.31
  -7  -3   3    0.04    5.70
  -7  -3   2    1.36   14.75
  -7  -3   2   12.55    8.36
   7   3  -1    0.14   10.62
  -7  -3   1    1.81   10.11
   7   3   0    0.40   23.96
  -7  -3   0   15.43   16.74
   7   3   1   -0.65   20.77
  -7  -3  -1   -3.21   12.82
   7   3   2  455.53  105.27
  -7  -3  -2  407.98   64.84
   7   3   3    5.82   46.27
  -7  -3  -3   85.37   45.17
   7   3   4    0.01   41.15
  -7  -3  -4   60.07   28.40
   7   3   5   -5.22   21.95
  -7  -3  -5   -8.47   17.11
   7   3   6    8.38   20.02
  -7  -3  -6    8.95   17.50
   7   3   7   28.00   19.48
  -7  -3  -7    0.79   19.97
  -7  -3  -8    7.26   20.17
  -7  -3  -9    2.19   14.35
  -7  -4   2    1.76    7.75
  -7  -4   1   -1.11   13.21
  -7  -4   1   12.53    7.87
   7   4   0  300.70   70.54
  -7  -4   0  478.27   54.76
   7   4   1    0.46   30.99
  -7  -4  -1   26.05   18.50
   7   4   2    3.33   28.44
  -7  -4  -2  -19.69   26.48
   7   4   3    5.59   69.75
  -7  -4  -3  214.07   41.01
   7   4   4   -0.62   20.91
  -7  -4  -4    3.80   12.39
   7   4   5   -9.39   42.31
  -7  -4  -5   91.98   29.40
   7   4   6   10.28   18.00
  -7  -4  -6    1.18   13.92
   7   4   7   -9.84   13.78
  -7  -4  -7    1.41   12.55
  -7  -4  -8   -0.24   10.35
   7   5   1    0.03   26.34
  -7  -5  -1    8.71   10.91
   7   5   2    9.10   29.50
  -7  -5  -2   16.88   14.38
   7   5   3   -5.92   16.81
  -7  -5  -3    0.50    7.76
   7   5   4   13.46   24.43
  -7  -5  -4    3.03   12.54
   7   5   5   17.49   23.48
  -7  -5  -5    3.66   12.63
   7   5   6    4.85   16.54
  -7  -5  -6   -0.46    7.35
   7   5   7   -2.90    9.12
  -7  -5  -7   -0.63   10.38
   7   6   2  212.49   31.22
   7   6   3    1.53    8.96
   7   6   4    0.85    9.04
  -8   1  -2  286.68   39.61
  -8   1  -3    2.94    9.77
  -8   1  -4   -0.85    7.63
   8   0   1  -13.44   17.03
  -8   0  -1    0.16    7.34
   8   0   2   -9.60   17.83
  -8   0  -2    3.60    7.60
   8   0   3  -13.58   18.39
  -8   0  -3    4.69    7.64
   8   0   4  -25.93   17.27
  -8   0  -4    1.46    7.39
   8   0   5   -2.20   13.02
   8   1   1   -6.62   12.66
  -8  -1  -1    1.50    7.14
   8   1   2   -8.31   22.98
  -8  -1  -2   -5.32   11.73
   8   1   3   -2.43   14.64
  -8  -1  -3    0.10    7.33
   8   1   4   30.15   25.98
  -8  -1  -4    8.50   14.85
   8   1   5   13.93   17.80
  -8  -1  -5    3.25   10.87
   8   2   1   11.44   41.02
  -8  -2  -1  156.67   27.61
   8   2   2   31.43   64.99
  -8  -2  -2  274.35   37.94
   8   2   3   15.27   21.08
  -8  -2  -3    1.70   11.60
   8   2   4    5.57   19.13
  -8  -2  -4    2.69   10.86
   8   2   5  -17.23   14.01
  -8  -2  -5    8.40    8.62
   8   3   3   -2.70   13.58
  -8  -3  -3    0.08    7.21
;
_shelx_hkl_checksum              69511
loop_
_space_group_symop_id
_space_group_symop_operation_xyz
1 +X,+Y,+Z
2 -X,-Y,-Z
loop_
_atom_site_label
_atom_site_type_symbol
_atom_site_fract_x
_atom_site_fract_y
_atom_site_fract_z
_atom_site_U_iso_or_equiv
_atom_site_adp_type
_atom_site_occupancy
_atom_site_site_symmetry_order
_atom_site_calc_flag
_atom_site_refinement_flags_posn
_atom_site_refinement_flags_adp
Cl1 Cl 0.2234(3) 0.4694(3) 0.3016(2) 0.0564(7) Uani 1 1 d . .
Cl2 Cl 0.0256(3) -0.1198(3) 0.3031(2) 0.0545(7) Uani 1 1 d . .
Cl3 Cl -0.5020(3) 0.2820(3) 0.5481(2) 0.0589(7) Uani 1 1 d . .
O1 O 0.4408(9) 0.0639(7) 0.2904(5) 0.0555(17) Uani 1 1 d . .
N1 N 0.3636(10) 0.1945(8) 0.1196(6) 0.0426(18) Uani 1 1 d . .
N2 N 0.2128(10) 0.2736(8) 0.0666(6) 0.0426(18) Uani 1 1 d . .
C1 C 0.3077(13) 0.3143(9) -0.0454(8) 0.043(2) Uani 1 1 d . .
C2 C 0.5131(14) 0.2593(10) -0.0682(9) 0.054(3) Uani 1 1 d . .
H1 H 0.6079 0.2716 -0.1433 0.065 Uiso 1 1 calc R U
C3 C 0.5497(12) 0.1856(10) 0.0371(8) 0.047(2) Uani 1 1 d . .
C4 C 0.1936(15) 0.4039(11) -0.1325(8) 0.063(3) Uani 1 1 d . .
H2 H 0.1377 0.5021 -0.1016 0.076 Uiso 1 1 calc R U
H3 H 0.0831 0.3434 -0.1414 0.076 Uiso 1 1 calc R U
H4 H 0.2855 0.4245 -0.2114 0.076 Uiso 1 1 calc R U
C5 C 0.7387(12) 0.1094(11) 0.0658(9) 0.057(3) Uani 1 1 d . .
H5 H 0.7836 0.1671 0.1229 0.068 Uiso 1 1 calc R U
H6 H 0.8437 0.1076 -0.0086 0.068 Uiso 1 1 calc R U
H7 H 0.7136 0.0033 0.1020 0.068 Uiso 1 1 calc R U
C6 C 0.3180(13) 0.1377(10) 0.2412(8) 0.046(2) Uani 1 1 d . .
C7 C 0.1069(11) 0.1784(9) 0.3085(7) 0.038(2) Uani 1 1 d . .
C8 C 0.0535(12) 0.3250(10) 0.3447(7) 0.040(2) Uani 1 1 d . .
C9 C -0.1359(12) 0.3613(9) 0.4163(7) 0.042(2) Uani 1 1 d . .
H8 H -0.1723 0.4632 0.4383 0.050 Uiso 1 1 calc R U
C10 C -0.2694(12) 0.2442(11) 0.4543(7) 0.047(2) Uani 1 1 d . .
C11 C -0.2219(12) 0.0938(10) 0.4204(8) 0.045(2) Uani 1 1 d . .
H9 H -0.3160 0.0153 0.4461 0.055 Uiso 1 1 calc R U
C12 C -0.0306(13) 0.0635(9) 0.3473(7) 0.042(2) Uani 1 1 d . .
loop_
_atom_site_aniso_label
_atom_site_aniso_U_11
_atom_site_aniso_U_22
_atom_site_aniso_U_33
_atom_site_aniso_U_23
_atom_site_aniso_U_13
_atom_site_aniso_U_12
Cl1 0.0540(14) 0.0530(14) 0.0581(15) 0.0005(11) -0.0005(11) -0.0195(11)
Cl2 0.0481(13) 0.0500(13) 0.0621(15) -0.0107(11) -0.0011(11) -0.0062(10)
Cl3 0.0435(13) 0.0612(15) 0.0629(16) -0.0028(12) 0.0066(11) -0.0043(11)
O1 0.038(3) 0.069(4) 0.053(4) 0.010(3) -0.006(3) 0.002(3)
N1 0.030(4) 0.045(4) 0.049(4) 0.006(3) -0.005(3) 0.000(3)
N2 0.035(4) 0.046(4) 0.043(4) -0.002(3) -0.004(3) 0.006(3)
C1 0.042(5) 0.041(5) 0.039(5) 0.000(4) -0.003(4) 0.005(4)
C2 0.053(6) 0.053(6) 0.048(6) 0.003(5) 0.003(5) -0.001(5)
C3 0.025(4) 0.051(5) 0.059(6) 0.001(5) -0.002(4) -0.002(4)
C4 0.083(8) 0.062(6) 0.042(5) 0.004(5) -0.015(5) 0.003(5)
C5 0.029(5) 0.064(6) 0.070(7) 0.004(5) 0.000(4) 0.001(4)
C6 0.046(5) 0.047(5) 0.044(5) 0.008(4) -0.010(4) -0.011(4)
C7 0.023(4) 0.045(5) 0.044(5) 0.002(4) -0.003(4) -0.004(4)
C8 0.030(4) 0.047(5) 0.042(5) 0.005(4) -0.005(4) -0.009(4)
C9 0.035(5) 0.036(5) 0.049(5) 0.007(4) -0.004(4) -0.006(4)
C10 0.032(5) 0.069(6) 0.037(5) -0.001(5) -0.004(4) -0.008(4)
C11 0.038(5) 0.054(6) 0.044(5) 0.002(4) -0.008(4) -0.011(4)
C12 0.046(5) 0.039(5) 0.041(5) -0.001(4) -0.006(4) -0.008(4)
loop_
_atom_type_symbol
_atom_type_description
_atom_type_scat_dispersion_real
_atom_type_scat_dispersion_imag
_atom_type_scat_source
C C 0.0181 0.0091
;
International Tables for Crystallography
(Vol. C, Tables 4.2.6.8 and 6.1.1.4)
;
H H 0.0000 0.0000
;
International Tables for Crystallography
(Vol. C, Table 6.1.1.4)
;
O O 0.0492 0.0322
;
International Tables for Crystallography
(Vol. C, Tables 4.2.6.8 and 6.1.1.4)
;
N N 0.0311 0.0180
;
International Tables for Crystallography
(Vol. C, Tables 4.2.6.8 and 6.1.1.4)
;
Cl Cl 0.3639 0.7018
;
International Tables for Crystallography
(Vol. C, Tables 4.2.6.8 and 6.1.1.4)
;
loop_
_geom_angle_atom_site_label_1
_geom_angle_atom_site_label_2
_geom_angle_atom_site_label_3
_geom_angle
C6 N1 N2 119.8(7)
C6 N1 C3 128.3(7)
N2 N1 C3 111.9(7)
C1 N2 N1 103.8(6)
N2 C1 C2 112.1(8)
N2 C1 C4 119.8(8)
C2 C1 C4 128.0(8)
C3 C2 C1 107.3(8)
C3 C2 H1 126.3
C1 C2 H1 126.3
C2 C3 N1 104.8(8)
C2 C3 C5 130.4(8)
N1 C3 C5 124.8(8)
C1 C4 H2 109.5
C1 C4 H3 109.5
H2 C4 H3 109.5
C1 C4 H4 109.5
H2 C4 H4 109.5
H3 C4 H4 109.5
C3 C5 H5 109.5
C3 C5 H6 109.5
H5 C5 H6 109.5
C3 C5 H7 109.5
H5 C5 H7 109.5
H6 C5 H7 109.5
O1 C6 N1 122.5(8)
O1 C6 C7 122.2(8)
N1 C6 C7 115.3(8)
C8 C7 C12 118.9(7)
C8 C7 C6 120.9(7)
C12 C7 C6 119.8(8)
C7 C8 C9 121.8(7)
C7 C8 Cl1 120.1(6)
C9 C8 Cl1 118.0(7)
C10 C9 C8 118.0(8)
C10 C9 H8 121.0
C8 C9 H8 121.0
C9 C10 C11 122.2(8)
C9 C10 Cl3 119.6(7)
C11 C10 Cl3 118.1(6)
C10 C11 C12 117.6(8)
C10 C11 H9 121.2
C12 C11 H9 121.2
C7 C12 C11 121.4(8)
C7 C12 Cl2 121.0(6)
C11 C12 Cl2 117.6(6)
loop_
_geom_bond_atom_site_label_1
_geom_bond_atom_site_label_2
_geom_bond_distance
Cl1 C8 1.730(8)
Cl2 C12 1.720(8)
Cl3 C10 1.730(8)
O1 C6 1.210(10)
N1 C6 1.392(10)
N1 N2 1.399(8)
N1 C3 1.399(9)
N2 C1 1.317(9)
C1 C2 1.416(11)
C1 C4 1.506(11)
C2 C3 1.359(12)
C2 H1 0.9500
C3 C5 1.482(11)
C4 H2 0.9800
C4 H3 0.9800
C4 H4 0.9800
C5 H5 0.9800
C5 H6 0.9800
C5 H7 0.9800
C6 C7 1.504(11)
C7 C8 1.384(11)
C7 C12 1.391(10)
C8 C9 1.395(10)
C9 C10 1.387(11)
C9 H8 0.9500
C10 C11 1.403(11)
C11 C12 1.402(11)
C11 H9 0.9500
loop_
_geom_torsion_atom_site_label_1
_geom_torsion_atom_site_label_2
_geom_torsion_atom_site_label_3
_geom_torsion_atom_site_label_4
_geom_torsion
C6 N1 N2 C1 178.1(7)
C3 N1 N2 C1 -1.2(9)
N1 N2 C1 C2 2.3(10)
N1 N2 C1 C4 -179.8(8)
N2 C1 C2 C3 -2.6(11)
C4 C1 C2 C3 179.7(9)
C1 C2 C3 N1 1.6(10)
C1 C2 C3 C5 -178.6(9)
C6 N1 C3 C2 -179.6(8)
N2 N1 C3 C2 -0.3(10)
C6 N1 C3 C5 0.7(14)
N2 N1 C3 C5 179.9(8)
N2 N1 C6 O1 177.3(8)
C3 N1 C6 O1 -3.5(14)
N2 N1 C6 C7 -4.4(11)
C3 N1 C6 C7 174.8(8)
O1 C6 C7 C8 101.7(11)
N1 C6 C7 C8 -76.5(11)
O1 C6 C7 C12 -70.8(12)
N1 C6 C7 C12 110.9(9)
C12 C7 C8 C9 -1.7(13)
C6 C7 C8 C9 -174.3(8)
C12 C7 C8 Cl1 178.3(7)
C6 C7 C8 Cl1 5.6(12)
C7 C8 C9 C10 2.1(13)
Cl1 C8 C9 C10 -177.8(6)
C8 C9 C10 C11 -1.8(13)
C8 C9 C10 Cl3 177.4(6)
C9 C10 C11 C12 1.1(13)
Cl3 C10 C11 C12 -178.2(6)
C8 C7 C12 C11 0.9(13)
C6 C7 C12 C11 173.6(8)
C8 C7 C12 Cl2 178.9(7)
C6 C7 C12 Cl2 -8.4(12)
C10 C11 C12 C7 -0.6(13)
C10 C11 C12 Cl2 -178.7(7)
