#------------------------------------------------------------------------------
#$Date: 2018-01-06 04:21:49 +0200 (Sat, 06 Jan 2018) $
#$Revision: 204864 $
#$URL: file:///home/coder/svn-repositories/cod/cif/4/03/30/4033040.cif $
#------------------------------------------------------------------------------
#
# This file is available in the Crystallography Open Database (COD),
# http://www.crystallography.net/
#
# All data on this site have been placed in the public domain by the
# contributors.
#
data_4033040
loop_
_publ_author_name
'Feskov, Illia O.'
'Chernykh, Anton V.'
'Kondratov, Ivan S.'
'Klyachina, Mariya'
'Daniliuc, Constantin G.'
'Haufe, G\"unter'
_publ_section_title
;
 Cyclobutyl-Containing Rigid Analogues of Threonine: Synthesis and
 Physical Chemical Properties.
;
_journal_issue                   23
_journal_name_full               'The Journal of organic chemistry'
_journal_page_first              12863
_journal_page_last               12868
_journal_paper_doi               10.1021/acs.joc.7b02259
_journal_volume                  82
_journal_year                    2017
_chemical_formula_sum            'C10 H15 N O4'
_chemical_formula_weight         213.23
_space_group_crystal_system      triclinic
_space_group_IT_number           2
_space_group_name_Hall           '-P 1'
_space_group_name_H-M_alt        'P -1'
_symmetry_space_group_name_Hall  '-P 1'
_symmetry_space_group_name_H-M   'P -1'
_atom_sites_solution_hydrogens   mixed
_cell_angle_alpha                88.569(2)
_cell_angle_beta                 85.582(2)
_cell_angle_gamma                77.614(2)
_cell_formula_units_Z            2
_cell_length_a                   5.5617(2)
_cell_length_b                   9.7074(4)
_cell_length_c                   10.4167(3)
_cell_measurement_reflns_used    2445
_cell_measurement_temperature    100.(2)
_cell_measurement_theta_max      66.6181
_cell_measurement_theta_min      4.2571
_cell_volume                     547.65(3)
_computing_cell_refinement       'SAINT V8.37A (Bruker AXS Inc., 2015)'
_computing_data_collection
'APEX2 v.2014.1-----1 (Bruker AXS Inc., 2014)'
_computing_data_reduction        'SAINT V8.37A (Bruker AXS Inc., 2015)'
_computing_molecular_graphics
'APEX2 v.2014.1-----1 (Bruker AXS Inc., 2014)'
_computing_publication_material
'APEX2 v.2014.1-----1 (Bruker AXS Inc., 2014)'
_computing_structure_refinement  'SHELXL-2014/7 (Sheldrick, 2014)'
_computing_structure_solution    'SHELXL-2014/7 (Sheldrick, 2014)'
_diffrn_ambient_temperature      100.(2)
_diffrn_detector_area_resol_mean 8.3333
_diffrn_measured_fraction_theta_full 0.946
_diffrn_measured_fraction_theta_max 0.946
_diffrn_measurement_device_type  'KappaCCD APEXII'
_diffrn_measurement_method       'phi / omega scans'
_diffrn_radiation_monochromator  graphite
_diffrn_radiation_type           'CuK\a '
_diffrn_radiation_wavelength     1.54178
_diffrn_reflns_av_R_equivalents  0.0307
_diffrn_reflns_av_unetI/netI     0.0352
_diffrn_reflns_limit_h_max       6
_diffrn_reflns_limit_h_min       -6
_diffrn_reflns_limit_k_max       11
_diffrn_reflns_limit_k_min       -9
_diffrn_reflns_limit_l_max       12
_diffrn_reflns_limit_l_min       -12
_diffrn_reflns_number            3638
_diffrn_reflns_theta_full        65.07
_diffrn_reflns_theta_max         65.07
_diffrn_reflns_theta_min         4.26
_diffrn_source                   'fine--focus sealed tube'
_exptl_absorpt_coefficient_mu    0.839
_exptl_absorpt_correction_T_max  0.92
_exptl_absorpt_correction_T_min  0.75
_exptl_absorpt_correction_type   multi-scan
_exptl_absorpt_process_details
;
'Bruker AXS (2014). SADABS, Version 2014/2, Bruker AXS Inc., Madison,
Wisconsin, USA.'
;
_exptl_crystal_colour            colourless
_exptl_crystal_density_diffrn    1.293
_exptl_crystal_density_method    'not measured'
_exptl_crystal_description       plate
_exptl_crystal_F_000             228
_exptl_crystal_size_max          0.300
_exptl_crystal_size_mid          0.250
_exptl_crystal_size_min          0.100
_refine_diff_density_max         0.239
_refine_diff_density_min         -0.277
_refine_ls_extinction_method     none
_refine_ls_goodness_of_fit_ref   1.091
_refine_ls_hydrogen_treatment    mixed
_refine_ls_matrix_type           full
_refine_ls_number_parameters     143
_refine_ls_number_reflns         1774
_refine_ls_number_restraints     0
_refine_ls_restrained_S_all      1.091
_refine_ls_R_factor_all          0.0441
_refine_ls_R_factor_gt           0.0401
_refine_ls_shift/su_max          0.000
_refine_ls_shift/su_mean         0.000
_refine_ls_structure_factor_coef Fsqd
_refine_ls_weighting_details
'w=1/[\s^2^(Fo^2^)+(0.0477P)^2^+0.1962P] where P=(Fo^2^+2Fc^2^)/3'
_refine_ls_weighting_scheme      calc
_refine_ls_wR_factor_gt          0.1005
_refine_ls_wR_factor_ref         0.1031
_reflns_number_gt                1593
_reflns_number_total             1774
_reflns_threshold_expression     'I > 2\s(I)'
_cod_data_source_file            jo7b02259_si_001.cif
_cod_data_source_block           haf8553
_cod_depositor_comments
'Adding full bibliography for 4033040--4033042.cif.'
_cod_database_code               4033040
_shelx_res_file
;


    haf8553.res created by SHELXL-2014/7


TITL haf8553.res in P-1
CELL  1.54178   5.5617   9.7074  10.4167   88.569   85.582   77.614
ZERR    2.000   0.0002   0.0004   0.0003    0.002    0.002    0.002
LATT 1
SFAC C  H  N  O
UNIT 20  30  2  8
SIZE 0.10 0.25 0.30
TEMP -173.180
ACTA
CONF

L.S. 30
BOND $H
FMAP 2
PLAN 10

OMIT     3   4   2
OMIT    -2  -6   7
OMIT    -5  -4   7
OMIT     0   5   4
OMIT    -3  -8   6
OMIT     1   4   6
OMIT    -1  -1   4

SHEL 999 0.85

EQIV $1 -x, -y+1, -z+1
HTAB N1 O1_$1

WGHT    0.047700    0.196200
FVAR       1.11750
N1    3    0.198547    0.639799    0.476871    11.00000    0.02013    0.01967 =
         0.01577    0.00005    0.00147   -0.00907
H1    2    0.116217    0.608024    0.539690    11.00000    0.02016
O1    4    0.113136    0.484648    0.335158    11.00000    0.03207    0.02684 =
         0.02148   -0.00595    0.00409   -0.01712
O2    4    0.312307    0.649367    0.261636    11.00000    0.02756    0.02265 =
         0.01712   -0.00224    0.00345   -0.01315
O3    4    0.367066    0.913252    0.655587    11.00000    0.04252    0.02803 =
         0.02138   -0.00410    0.00177   -0.02032
O4    4    0.224081    0.717784    0.709841    11.00000    0.03218    0.02603 =
         0.01462    0.00163   -0.00130   -0.01547
C1    1    0.312592    0.759712    0.490194    11.00000    0.01730    0.01745 =
         0.01808   -0.00023   -0.00013   -0.00624
C2    1    0.567510    0.727642    0.412479    11.00000    0.01681    0.02020 =
         0.02367   -0.00010    0.00209   -0.00634
AFIX  23
H2A   2    0.677280    0.791656    0.430453    11.00000   -1.20000
H2B   2    0.655021    0.627501    0.414750    11.00000   -1.20000
AFIX   0
C3    1    0.417720    0.769556    0.294139    11.00000    0.02330    0.01986 =
         0.02011   -0.00174    0.00224   -0.01011
C4    1    0.226147    0.869118    0.383211    11.00000    0.02170    0.01871 =
         0.01823    0.00137   -0.00023   -0.00622
AFIX  23
H4A   2    0.052682    0.877104    0.362895    11.00000   -1.20000
H4B   2    0.264108    0.962871    0.395049    11.00000   -1.20000
AFIX   0
C5    1    0.533483    0.816536    0.170515    11.00000    0.03728    0.02764 =
         0.02266   -0.00226    0.00699   -0.01518
AFIX 137
H5A   2    0.664400    0.739397    0.135848    11.00000   -1.50000
H5B   2    0.603926    0.898189    0.186730    11.00000   -1.50000
H5C   2    0.407758    0.842718    0.108196    11.00000   -1.50000
AFIX   0
C6    1    0.201202    0.584861    0.359327    11.00000    0.01923    0.01976 =
         0.01872   -0.00108    0.00144   -0.00571
C7    1    0.303967    0.807187    0.627525    11.00000    0.01737    0.01992 =
         0.01894    0.00024   -0.00039   -0.00641
C8    1    0.202669    0.749544    0.847952    11.00000    0.03356    0.03133 =
         0.01325   -0.00186   -0.00052   -0.01446
AFIX  13
H8    2    0.343229    0.792087    0.869133    11.00000   -1.20000
AFIX   0
C9    1    0.220064    0.610162    0.915290    11.00000    0.06379    0.03556 =
         0.01750    0.00264   -0.00337   -0.01244
AFIX 137
H9A   2    0.090245    0.565155    0.888797    11.00000   -1.50000
H9B   2    0.199357    0.624544    1.008613    11.00000   -1.50000
H9C   2    0.381983    0.549502    0.892563    11.00000   -1.50000
AFIX   0
C10   1   -0.036013    0.852044    0.878261    11.00000    0.05157    0.05508 =
         0.02482    0.00462    0.00943    0.00390
AFIX 137
H10A  2   -0.035126    0.940016    0.830163    11.00000   -1.50000
H10B  2   -0.056387    0.871458    0.970788    11.00000   -1.50000
H10C  2   -0.172938    0.811826    0.853694    11.00000   -1.50000

AFIX   0
HKLF 4

REM  haf8553.res in P-1
REM R1 =  0.0401 for    1593 Fo > 4sig(Fo)  and  0.0441 for all    1774 data
REM    143 parameters refined using      0 restraints

END

WGHT      0.0477      0.1962

REM Highest difference peak  0.239,  deepest hole -0.277,  1-sigma level  0.052
Q1    1   0.7312  0.6393  0.4148  11.00000  0.05    0.24
Q2    1   0.2441  0.8188  0.4465  11.00000  0.05    0.20
Q3    1   0.3044  0.8358  0.3222  11.00000  0.05    0.19
Q4    1   0.0467  0.9297  0.3742  11.00000  0.05    0.19
Q5    1   0.2601  0.5256  0.8815  11.00000  0.05    0.18
Q6    1   0.5358  0.7322  0.3381  11.00000  0.05    0.17
Q7    1  -0.1311  0.7865  0.8666  11.00000  0.05    0.17
Q8    1   0.7171  0.7403  0.1575  11.00000  0.05    0.16
Q9    1  -0.1448  0.8923  0.8082  11.00000  0.05    0.16
Q10   1   0.4646  0.7296  0.4616  11.00000  0.05    0.16
;
_shelx_res_checksum              23445
_shelx_hkl_file
;
  -1   0   0  222.98    8.50
  -1   0   0  233.18    7.10
   1   0   0  240.78    8.50
   1   0   0  239.28    7.10
  -2   0   0 2160.38   63.29
   2   0   0 2167.98   66.49
  -3   0   0    3.20    0.60
   3   0   0    2.90    1.70
  -4   0   0   21.40    1.60
   4   0   0   20.60    1.80
  -5   0   0   39.90    2.50
  -5   0   0   41.50    2.90
   5   0   0   42.40    2.60
  -6   0   0    0.60    0.60
   6   0   0    1.10    0.80
   6  -1   0   31.40    2.20
  -6   1   0   26.80    2.00
  -6   1   0   33.80    1.90
   5  -1   0    8.20    1.40
  -5   1   0   10.30    1.50
  -5   1   0    7.60    1.20
   4  -1   0    6.00    1.20
  -4   1   0    7.20    1.10
  -4   1   0    8.50    1.90
   3  -1   0 1958.40   62.89
   2  -1   0  587.64   20.60
   1  -1   0 9196.18  274.27
   1  -1   0 9999.00  263.67
  -1   1   0 7946.21  271.27
  -1  -1   0 3907.81  126.89
  -1  -1   0 4576.54  125.79
   1   1   0 4454.85  125.59
  -2  -1   0  262.27    8.10
  -3  -1   0  183.68    6.10
  -4  -1   0    0.30    0.80
  -4  -1   0    0.30    0.80
   4   1   0    0.60    0.50
  -5  -1   0    3.30    0.90
   5   1   0    2.90    1.10
  -6  -1   0   33.90    2.20
   6   1   0   34.00    2.20
   6  -2   0   18.00    1.40
  -6   2   0   11.90    1.30
   5  -2   0   -0.10    0.90
  -5   2   0    1.10    1.20
  -5   2   0    0.00    0.50
   4  -2   0  199.48    7.30
  -4   2   0  198.38    7.70
  -4   2   0  203.28    7.00
  -4   2   0  193.48    8.60
   3  -2   0  132.69    8.40
   2  -2   0  959.10   31.90
   1  -2   0 2632.64   78.79
   1  -2   0 2599.24   76.19
   0  -2   0 2902.91   84.49
  -1  -2   0  149.69    4.70
  -2  -2   0   68.49    2.60
  -3  -2   0   97.59    3.70
  -4  -2   0   36.20    2.30
  -4  -2   0   37.50    2.40
   4   2   0   37.30    2.40
  -5  -2   0   46.70    2.70
  -5  -2   0   45.00    2.60
   5   2   0   48.20    2.90
  -6  -2   0    5.50    1.00
   6   2   0    4.10    0.90
   5  -3   0   23.00    1.90
  -5   3   0   30.70    3.80
  -5   3   0   23.50    2.10
  -5   3   0   22.40    1.50
   4  -3   0   78.89    3.90
  -4   3   0   84.99    4.20
  -4   3   0   82.69    3.40
  -4   3   0   83.49    5.20
   3  -3   0    8.80    1.30
  -3   3   0   11.70    1.40
  -3   3   0    7.80    1.20
  -3   3   0    5.40    2.20
  -3   3   0    8.30    1.00
   2  -3   0  215.98   10.40
   1  -3   0  172.28    8.10
   0  -3   0  223.28    6.80
  -1  -3   0   16.60    0.90
  -2  -3   0 1086.09   32.20
  -3  -3   0    6.50    0.80
  -4  -3   0    5.00    1.10
  -4  -3   0    7.00    1.30
   4   3   0    6.60    1.20
  -5  -3   0   34.50    2.50
  -5  -3   0   37.50    2.30
   5   3   0   37.40    2.50
  -6  -3   0   42.20    2.40
  -6  -3   0   42.80    2.30
   5  -4   0    8.00    1.30
  -5   4   0    8.50    1.50
  -5   4   0    6.00    1.80
   4  -4   0   53.09    2.90
  -4   4   0   53.49    3.40
  -4   4   0   45.50    4.00
  -3   4   0   28.20    2.80
  -3   4   0   26.00    2.10
  -3   4   0   26.60    4.30
   2  -4   0   39.70    4.30
  -2   4   0   49.80    2.90
   1  -4   0  178.38    9.10
   1  -4   0  176.08    5.60
   0  -4   0   31.20    3.30
   0  -4   0   31.50    1.40
  -1  -4   0    0.80    0.40
  -2  -4   0  179.78    6.00
  -3  -4   0   15.60    1.30
  -4  -4   0   24.90    2.00
  -5  -4   0   46.00    2.90
  -6  -4   0   14.10    1.50
  -6  -4   0   15.00    1.40
  -5   5   0    3.10    1.10
  -5   5   0    2.00    1.10
  -4   5   0    9.10    3.10
  -4   5   0   10.00    1.70
  -3   5   0   12.10    2.10
  -3   5   0   12.40    1.70
  -3   5   0   12.80    3.70
  -2   5   0   -0.50    1.40
  -2   5   0    0.30    0.60
  -2   5   0    1.00    0.70
   1  -5   0   10.80    2.70
   0  -5   0    0.80    0.40
   0  -5   0    0.10    0.80
  -1  -5   0   96.59    3.50
  -2  -5   0   80.79    3.20
  -4  -5   0   37.20    2.40
  -5  -5   0   -0.10    0.90
  -6  -5   0   82.29    3.50
   6   5   0   78.89    4.20
  -4   6   0    3.60    3.00
  -4   6   0    3.50    1.10
  -3   6   0   11.80    4.20
  -3   6   0   12.20    2.30
  -3   6   0    9.50    1.60
  -2   6   0   62.59    4.90
  -2   6   0   67.59    3.70
  -2   6   0   65.19    4.10
  -1   6   0    2.00    0.90
  -1   6   0    2.00    0.80
  -1   6   0    3.60    1.10
   0  -6   0   68.29    6.10
   0   6   0   64.99    3.70
  -1  -6   0  521.55   16.40
   1   6   0  543.05   18.50
   2   6   0    7.70    1.20
  -3  -6   0   42.40    2.50
   3   6   0   44.80    3.50
   3   6   0   50.99    2.80
  -4  -6   0   42.10    2.70
   4   6   0   41.30    2.90
   4   6   0   45.90    3.50
  -5  -6   0  311.87   10.60
   5   6   0  307.07   11.90
  -6  -6   0   10.80    1.20
   6   6   0    8.60    1.40
  -4   7   0    2.60    0.80
  -4   7   0    2.60    1.80
  -3   7   0   48.30    4.40
  -3   7   0   43.90    2.90
  -3   7   0   46.80    6.00
  -2   7   0   40.50    3.30
  -2   7   0   37.20    4.00
  -2   7   0   42.60    3.00
  -1   7   0  383.06   12.80
  -1   7   0  370.26   13.80
  -1   7   0  377.36   13.70
   0   7   0   94.79    4.30
   0   7   0   94.49    5.00
   0   7   0   90.89    4.70
   1   7   0   90.49    4.80
   1   7   0   87.79    4.10
   2   7   0   11.60    1.40
   2   7   0   13.00    2.20
   3   7   0  116.69    6.00
   3   7   0  118.69    5.20
  -4  -7   0  451.65   15.10
   4   7   0  458.75   15.80
   4   7   0  496.35   17.10
  -5  -7   0   91.49    4.00
   5   7   0   87.49    4.90
  -3   8   0   14.10    1.60
  -3   8   0   15.10    2.70
  -2   8   0  314.17   11.10
  -2   8   0  313.77   12.90
  -2   8   0  310.07   12.20
  -1   8   0   45.50    3.40
  -1   8   0   41.20    3.90
  -1   8   0   47.90    3.10
   0   8   0  177.78    7.10
   0   8   0  182.88    7.90
   0   8   0  184.08    8.20
   1   8   0   13.00    2.00
   1   8   0   13.60    1.90
   2   8   0  123.99    6.40
   2   8   0  118.39    5.40
   3   8   0  204.18    8.10
   3   8   0  200.88    9.00
  -4  -8   0   30.60    2.20
   4   8   0   31.40    3.20
   4   8   0   34.40    3.30
  -5  -8   0   55.99    2.80
   5   8   0   56.99    3.80
  -2   9   0   -1.50    4.20
  -2   9   0    0.30    1.30
  -1   9   0   30.40    3.90
  -1   9   0   30.90    3.00
   0   9   0   27.40    3.10
   0   9   0   24.20    2.40
   1   9   0    1.20    1.10
   1   9   0    1.00    0.90
   2   9   0    1.10    1.50
   2   9   0    0.70    1.10
   3   9   0    4.50    1.60
   3   9   0    4.90    1.50
   4   9   0   66.69    4.40
   4   9   0   67.59    3.90
  -5  -9   0    2.30    0.70
   5   9   0    1.90    1.00
  -2  10   0    3.00    1.70
  -1  10   0    3.40    1.60
  -1  10   0    3.20    2.20
   0  10   0    4.30    1.50
   1  10   0    0.70    1.50
   1  10   0    1.20    1.40
   2  10   0    7.90    1.80
   2  10   0    4.00    1.80
   3  10   0   31.20    2.90
   3  10   0   33.40    3.10
   4  10   0   22.40    2.20
   4  10   0   32.50    2.70
   0  11   0   13.50    2.20
   1  11   0   80.49    4.60
   2  11   0    0.50    1.50
   2  11   0    0.70    1.20
   3  11   0    6.20    2.00
   3  11  -1    3.20    1.60
   2  11  -1    0.50    1.90
   2  11  -1    1.40    1.00
   1  11  -1   27.10    3.00
   1  11  -1   23.60    2.20
   4  10  -1    0.10    1.20
   4  10  -1    1.30    1.40
   3  10  -1    0.30    1.30
   3  10  -1    0.10    1.00
   2  10  -1  188.38    7.60
   2  10  -1  192.68    8.30
   1  10  -1  180.18    7.20
   1  10  -1  182.68    8.10
   0  10  -1   74.69    4.70
  -1  10  -1   15.80    2.70
   5   9  -1   36.00    2.50
   4   9  -1   43.80    3.60
   4   9  -1   45.10    3.40
   3   9  -1  155.58    7.50
   3   9  -1  150.08    6.50
   2   9  -1    4.50    1.80
   2   9  -1    5.60    1.30
   1   9  -1  225.38    8.70
   1   9  -1  224.58    9.50
   0   9  -1   35.20    3.10
   0   9  -1   36.80    2.80
  -1   9  -1    0.80    0.80
  -1   9  -1    0.20    0.90
  -2   9  -1  124.59    6.20
  -2   9  -1  122.59    5.20
   5   8  -1    4.30    1.40
  -5  -8   1    3.10    0.80
   4   8  -1   80.89    4.80
   4   8  -1   77.49    4.20
  -4  -8   1   79.09    3.70
   3   8  -1  158.08    6.50
   3   8  -1  150.68    7.40
   2   8  -1  327.67   11.80
   2   8  -1  338.67   12.90
   1   8  -1  125.59    5.70
   1   8  -1  133.29    6.60
   0   8  -1    7.00    1.80
   0   8  -1    8.50    1.60
   0   8  -1    8.70    1.50
  -1   8  -1   40.20    3.40
  -1   8  -1   42.80    3.20
  -1   8  -1   42.40    3.00
  -2   8  -1   34.50    3.20
  -2   8  -1   32.30    2.50
  -3   8  -1    4.10    2.40
  -3   8  -1    2.20    1.10
   5   7  -1  113.19    5.80
  -5  -7   1  106.39    4.60
   4   7  -1   13.00    2.40
   4   7  -1   15.70    1.90
  -4  -7   1   15.80    1.80
   3   7  -1   49.30    3.70
   3   7  -1   52.79    3.20
   2   7  -1    1.30    1.00
   2   7  -1    1.10    0.70
   1   7  -1    5.50    1.20
   1   7  -1    4.70    1.40
   0   7  -1   50.79    3.20
   0   7  -1   49.30    2.90
   0   7  -1   48.10    3.40
   0   7  -1   52.29    3.10
  -1   7  -1   57.79    3.90
  -1   7  -1   54.89    4.00
  -1   7  -1   59.89    3.40
  -2   7  -1    0.40    1.00
  -2   7  -1   -1.00    2.00
  -2   7  -1    0.20    1.20
  -3   7  -1   38.80    4.60
  -3   7  -1   37.20    2.90
  -4   7  -1   43.90    3.50
  -4   7  -1   34.30    2.30
   6   6  -1   50.99    3.10
  -6  -6   1   53.09    2.50
   5   6  -1    7.40    1.90
  -5  -6   1    4.60    1.20
  -4  -6   1   36.40    2.30
   3   6  -1   16.90    2.50
  -3  -6   1   11.20    1.50
   2   6  -1  117.79    5.00
   2   6  -1  121.49    5.60
   1   6  -1   10.10    1.40
  -1  -6   1   10.30    1.10
   0   6  -1   53.49    3.30
   0  -6   1   57.99    5.40
   0  -6   1   54.19    2.50
  -1   6  -1  258.77    9.10
  -1   6  -1  256.87    9.70
  -1   6  -1  249.88    9.80
  -2   6  -1    0.20    2.00
  -2   6  -1    0.00    0.90
  -2   6  -1   -0.20    0.70
  -3   6  -1   65.39    4.60
  -3   6  -1   64.79    3.80
  -4   6  -1   11.80    1.60
  -4   6  -1   15.90    2.90
   6   5  -1   99.49    4.90
  -6  -5   1   99.39    4.00
  -5  -5   1   11.40    1.50
  -4  -5   1  279.07    9.60
   3   5  -1   58.69    2.60
  -3  -5   1   39.50    2.50
  -2  -5   1  105.69    4.00
  -1  -5   1  103.99    3.80
   0  -5   1  757.62   22.80
  -2   5  -1   94.89    5.40
  -2   5  -1  106.39    5.10
  -2   5  -1  109.19    4.70
  -3   5  -1   21.90    2.80
  -3   5  -1   20.50    2.30
  -4   5  -1  143.69    7.20
  -4   5  -1  142.59    6.10
  -5   5  -1   13.70    1.50
  -6  -4   1   63.49    3.00
  -6  -4   1   66.59    3.00
  -5  -4   1  271.37    9.50
  -4  -4   1   40.50    2.40
  -2  -4   1  242.48    7.90
  -1  -4   1  676.73   20.30
   0  -4   1    0.20    0.40
   1  -4   1   99.89    5.90
  -2   4  -1   21.90    1.70
  -2   4  -1   31.80    2.10
  -3   4  -1  702.33   21.30
  -3   4  -1  619.74   22.20
  -3   4  -1  680.93   22.30
  -4   4  -1    3.10    2.60
  -4   4  -1    4.30    1.10
   4  -4   1    4.00    1.10
  -5   4  -1  150.08    6.70
  -5   4  -1  152.28    6.00
   5  -4   1  149.59    5.60
  -6  -3   1  241.28    8.10
  -6  -3   1  227.38    7.90
   5   3  -1  165.88    6.30
  -5  -3   1  158.48    6.20
  -5  -3   1  160.58    6.20
   4   3  -1   10.20    1.30
  -4  -3   1   10.70    1.40
  -4  -3   1    9.80    1.20
  -3  -3   1   11.90    1.10
  -2  -3   1   44.60    2.00
  -1  -3   1  639.24   19.10
   1  -3   1   36.80    3.00
   2  -3   1 1303.07   41.70
  -3   3  -1  262.07   10.10
  -3   3  -1  258.37    8.50
  -3   3  -1  283.47    9.40
  -3   3  -1  250.17   10.10
  -4   3  -1  618.24   19.70
  -4   3  -1  601.84   20.90
  -4   3  -1  613.44   18.70
   4  -3   1  593.54   19.20
  -5   3  -1    0.40    1.00
  -5   3  -1    0.00    0.80
  -5   3  -1    0.60    0.60
   5  -3   1    0.30    0.70
   6   2  -1   39.10    2.30
  -6  -2   1   38.30    2.20
   5   2  -1   18.80    1.80
  -5  -2   1   17.70    1.90
  -5  -2   1   18.70    1.80
   4   2  -1  196.78    7.10
  -4  -2   1  192.18    6.90
  -4  -2   1  185.28    6.90
  -3  -2   1  235.58    7.70
  -2  -2   1  396.76   12.10
  -1  -2   1   86.39    2.90
   1  -2   1  794.22   25.10
   2  -2   1 1311.67   41.30
  -3   2  -1 1014.70   31.90
  -3   2  -1 1021.80   31.00
  -4   2  -1   56.59    4.00
  -4   2  -1   53.29    2.70
  -4   2  -1   52.89    3.20
   4  -2   1   54.39    3.00
  -5   2  -1   10.20    1.60
  -5   2  -1   12.20    1.50
   5  -2   1    9.50    1.50
   6  -2   1    6.40    0.90
   6   1  -1   16.50    1.60
  -6  -1   1   17.90    1.80
   5   1  -1   90.09    4.20
  -5  -1   1   96.29    4.20
   4   1  -1   60.39    3.10
  -4  -1   1   61.79    3.10
  -4  -1   1   65.69    3.10
   2   1  -1    1.40    1.40
  -2  -1   1    1.00    0.40
   1   1  -1    0.20    1.00
   1   1  -1    0.00    0.30
  -1  -1   1    0.00    0.80
  -1  -1   1   -0.30    0.30
  -1   1  -1 7398.66  224.98
   1  -1   1 7944.71  223.98
   1  -1   1 7191.88  219.18
   2  -1   1  215.18    8.90
  -4   1  -1  109.19    4.80
  -4   1  -1  105.89    4.20
  -4   1  -1  105.09    5.40
   4  -1   1  105.89    4.60
  -5   1  -1   15.30    1.70
  -5   1  -1   17.70    2.10
   5  -1   1   15.50    1.90
  -6   1  -1    0.80    0.50
   6  -1   1    0.90    0.70
   6   0  -1    0.70    0.90
  -6   0   1    1.30    0.70
  -6   0   1    0.50    0.90
   5   0  -1    3.80    1.20
  -5   0   1    5.10    1.00
   4   0  -1  115.29    4.90
  -4   0   1  117.89    4.70
   3   0  -1   28.60    4.10
   2   0  -1 1945.61   59.39
  -2   0   1 1837.82   55.29
   1   0  -1  158.98    6.50
   1   0  -1  151.58    4.60
  -1   0   1  150.68    4.60
  -1   0   1  140.39    6.30
   0   0  -1 2364.76   70.69
   0   0   1 2307.57   71.49
  -1   0  -1  436.66   14.00
  -1   0  -1  471.25   13.10
   1   0   1  409.46   13.10
  -2   0  -1   52.19    2.10
  -3   0  -1   90.29    3.50
  -4   0  -1   10.60    2.00
  -4   0  -1   10.10    1.20
   4   0   1   10.90    1.30
  -5   0  -1    2.10    1.00
  -5   0  -1    2.20    1.10
   5   0   1    2.50    0.90
  -6   0  -1    2.30    0.90
   6   0   1    3.30    1.10
   6  -1  -1    6.80    1.00
  -6   1   1    7.70    1.10
  -6   1   1    8.60    1.00
   5  -1  -1   21.40    2.20
  -5   1   1   21.60    2.40
  -5   1   1   21.00    2.00
   4  -1  -1    1.40    0.90
  -4   1   1    0.80    0.80
   3  -1  -1  453.35   19.30
   2  -1  -1  703.13   24.30
   2  -1  -1  668.83   20.20
   1  -1  -1   39.70    3.20
   1  -1  -1   39.90    1.30
   0  -1  -1  111.99    3.30
   0  -1  -1  111.29    4.50
   0   1   1  106.09    3.30
  -1  -1  -1  789.32   21.90
   1   1   1  694.33   21.80
  -2  -1  -1  446.86   13.50
  -3  -1  -1   50.29    2.30
  -4  -1  -1   26.70    2.00
  -4  -1  -1   27.90    2.00
   4   1   1   26.50    2.00
  -5  -1  -1   43.80    2.50
   5   1   1   45.50    2.70
  -6  -1  -1   20.80    1.60
   6   1   1   20.70    1.80
   6  -2  -1   52.39    2.50
   5  -2  -1   37.70    2.40
  -5   2   1   36.00    2.10
  -5   2   1   35.20    2.80
   4  -2  -1   60.69    3.30
  -4   2   1   58.59    3.00
   3  -2  -1   88.49    7.00
  -3   2   1   89.39    3.60
  -3   2   1   90.59    5.00
   2  -2  -1   79.79    5.60
   1  -2  -1  508.85   17.80
   1  -2  -1  490.85   14.60
   0  -2  -1   56.19    1.80
   0  -2  -1   55.39    3.40
  -1  -2  -1 3480.05  101.29
  -2  -2  -1  110.09    3.80
  -3  -2  -1   78.19    3.10
  -4  -2  -1   68.19    3.10
  -4  -2  -1   64.89    3.20
   4   2   1   65.19    3.10
  -5  -2  -1   29.40    2.30
  -5  -2  -1   27.90    2.00
   5   2   1   29.20    2.10
  -6  -2  -1    6.90    1.10
   6   2   1    7.90    1.10
   5  -3  -1   17.00    1.70
  -5   3   1   19.70    1.90
   4  -3  -1   14.00    1.80
  -4   3   1   12.90    1.40
  -4   3   1   15.10    2.60
  -4   3   1   14.00    1.80
   3  -3  -1   21.00    1.80
  -3   3   1   18.40    2.00
  -3   3   1   16.80    2.70
  -3   3   1   20.00    1.50
   2  -3  -1 2009.10   64.39
   1  -3  -1  336.27   13.40
   1  -3  -1  295.47    9.50
   1  -3  -1  334.37    9.50
   0  -3  -1   19.70    0.90
   0  -3  -1   18.40    2.40
  -1  -3  -1  407.66   12.30
  -2  -3  -1  380.06   11.70
  -3  -3  -1    5.30    0.90
  -4  -3  -1  147.19    5.70
  -4  -3  -1  151.38    5.80
   4   3   1  152.68    5.80
  -5  -3  -1    5.50    1.30
  -5  -3  -1    5.30    1.10
   5   3   1    4.70    1.20
  -6  -3  -1    0.80    0.90
  -6  -3  -1   -0.30    0.60
   6   3   1    0.10    1.00
   5  -4  -1   34.70    2.10
  -5   4   1   34.70    2.40
   4  -4  -1    1.20    0.90
  -4   4   1    1.60    0.90
  -4   4   1    1.00    1.50
  -3   4   1  181.18    7.10
  -3   4   1  183.68    7.70
  -3   4   1  174.98    6.20
  -3   4   1  181.88    8.40
   2  -4  -1   96.39    7.20
  -2   4   1   97.99    4.40
  -2   4   1   87.89    4.80
   1  -4  -1    4.40    1.90
   0  -4  -1  179.98    9.00
   0  -4  -1  181.18    5.70
  -1  -4  -1  849.91   25.30
  -2  -4  -1  225.28    7.40
  -4  -4  -1    4.80    1.10
  -5  -4  -1   47.50    2.90
  -5  -4  -1   46.30    2.80
  -6  -4  -1   20.80    1.90
  -6  -4  -1   20.00    1.90
  -5   5   1    0.40    0.70
  -4   5   1    3.70    1.10
  -4   5   1    3.20    2.60
  -3   5   1   21.30    4.00
  -3   5   1   23.30    2.50
  -3   5   1   24.40    2.20
  -2   5   1    3.70    1.00
  -2   5   1    1.60    1.60
  -2   5   1    1.80    0.90
   1  -5  -1    9.00    2.50
   0  -5  -1   91.19    3.20
   0  -5  -1   88.19    6.50
  -1  -5  -1    9.30    0.90
  -2  -5  -1 2022.10   59.59
  -3  -5  -1    1.70    0.80
   3   5   1    3.60    0.90
  -4  -5  -1   12.40    1.40
   4   5   1   10.10    1.60
  -5  -5  -1   82.09    4.00
  -6  -5  -1  132.89    5.10
   6   5   1  135.09    5.80
  -4   6   1    1.50    2.70
  -4   6   1    1.30    1.10
  -3   6   1   47.70    3.90
  -3   6   1   44.90    3.20
  -3   6   1   48.40    6.40
  -2   6   1   16.50    2.10
  -2   6   1   15.20    2.00
  -2   6   1   14.00    2.80
  -1   6   1   44.40    3.00
  -1   6   1   40.50    2.50
  -1   6   1   41.80    3.30
   0   6   1  301.57   10.70
   0   6   1  298.97   10.90
  -1  -6  -1 1011.10   35.90
  -1  -6  -1 1010.10   28.90
   1   6   1  861.21   30.00
   1   6   1  982.80   30.20
   2   6   1   59.79    3.50
   2   6   1   57.09    3.10
  -3  -6  -1    0.20    0.70
   3   6   1   -0.10    0.70
   3   6   1    1.60    0.90
  -4  -6  -1   43.10    2.70
   4   6   1   38.90    3.00
   4   6   1   42.00    3.50
  -5  -6  -1   38.70    2.40
   5   6   1   36.40    3.30
  -6  -6  -1   11.70    1.30
   6   6   1   10.50    1.50
  -4   7   1    3.20    0.80
  -4   7   1    2.10    1.60
  -3   7   1    2.30    1.20
  -3   7   1    3.80    1.70
  -3   7   1    4.00    4.20
  -2   7   1    1.70    2.80
  -2   7   1    1.60    1.10
  -2   7   1    0.70    1.10
  -1   7   1   48.80    3.60
  -1   7   1   49.90    3.90
   0   7   1   40.60    3.10
   0   7   1   42.50    3.10
   0   7   1   40.40    2.60
   1   7   1   52.39    3.00
   1   7   1   56.39    3.40
   1   7   1   57.29    3.80
   2   7   1    5.60    1.20
   2   7   1    8.30    1.90
  -3  -7  -1   72.39    3.40
   3   7   1   73.09    4.70
   3   7   1   71.89    4.00
  -4  -7  -1    2.80    1.10
   4   7   1    1.90    1.60
   4   7   1    1.20    1.10
  -5  -7  -1   14.40    1.50
   5   7   1   13.40    2.30
  -6  -7  -1   12.80    1.20
  -3   8   1   -0.60    0.90
  -3   8   1    0.20    1.70
  -2   8   1   20.70    2.70
  -2   8   1   24.70    3.70
  -2   8   1   21.00    2.30
  -1   8   1   11.00    2.30
  -1   8   1   11.30    2.10
   0   8   1   49.99    3.60
   0   8   1   48.90    3.90
   1   8   1    0.60    0.90
   1   8   1    0.60    0.70
   1   8   1   -0.20    0.80
   2   8   1    0.90    1.40
   2   8   1    1.00    0.80
   3   8   1    6.50    1.60
   3   8   1    6.70    2.00
  -4  -8  -1  135.49    5.30
   4   8   1  140.69    6.70
   4   8   1  134.59    6.20
  -5  -8  -1    1.30    0.70
   5   8   1    0.90    0.90
  -2   9   1   17.80    2.20
  -2   9   1   22.00    3.50
  -1   9   1   -0.10    0.80
  -1   9   1    0.60    2.30
   0   9   1    3.60    1.40
   0   9   1    4.60    1.30
   1   9   1  201.98    9.00
   1   9   1  212.98    8.00
   1   9   1  187.18    8.20
   2   9   1   -0.10    1.30
   2   9   1    0.50    1.50
   3   9   1  312.47   12.10
   3   9   1  301.47   11.40
   4   9   1    4.30    1.60
   4   9   1    2.70    1.60
  -5  -9  -1   60.99    2.70
   5   9   1   52.19    3.30
  -1  10   1    7.30    3.30
   0  10   1  111.29    5.70
   0  10   1  104.39    5.20
   1  10   1   10.00    2.20
   1  10   1    8.60    1.80
   2  10   1  373.06   13.20
   2  10   1  364.16   13.80
   3  10   1   30.40    3.20
   3  10   1   29.10    3.00
   4  10   1   36.20    2.80
   4  10   1   28.30    2.70
   0  11   1   44.50    3.40
   1  11   1  129.29    6.20
   2  11   1    1.50    1.00
   2  11   1    2.70    1.90
   3  11   1    5.50    1.80
   3  11   1    8.70    1.60
   2  11  -2    5.90    1.40
   1  11  -2   98.69    4.30
   4  10  -2   21.20    2.00
   3  10  -2   32.90    3.00
   3  10  -2   36.60    3.00
   2  10  -2  111.29    5.60
   2  10  -2  117.69    5.40
   1  10  -2   21.30    2.10
   0  10  -2   50.69    3.00
   4   9  -2   54.29    3.60
   4   9  -2   50.49    3.50
   3   9  -2    1.10    1.10
   3   9  -2   -0.30    1.10
   2   9  -2    4.40    1.80
   2   9  -2    6.00    1.40
   1   9  -2    1.10    1.40
   1   9  -2    0.40    1.10
   0   9  -2  126.69    5.70
  -1   9  -2   17.80    2.20
  -1   9  -2   14.80    2.30
  -2   9  -2   92.39    5.30
  -2   9  -2   90.79    4.10
   5   8  -2    8.00    1.60
  -5  -8   2    7.10    1.10
   4   8  -2   12.40    2.10
   4   8  -2   11.90    1.80
  -4  -8   2   12.50    1.40
   3   8  -2   71.49    4.70
   3   8  -2   68.59    3.80
   2   8  -2  223.48    9.40
   2   8  -2  218.48    8.50
   1   8  -2  212.58    8.10
   1   8  -2  198.28    8.60
   0   8  -2  233.98    8.90
   0   8  -2  239.68    9.00
  -1   8  -2  155.18    7.30
  -1   8  -2  165.08    6.60
  -2   8  -2   18.00    3.00
  -2   8  -2   16.70    1.90
  -3   8  -2   55.29    3.10
  -3   8  -2   48.20    5.00
   5   7  -2   -0.70    0.90
  -5  -7   2    1.90    0.70
   4   7  -2  447.76   16.20
  -4  -7   2  437.96   14.40
   3   7  -2 1087.09   33.90
   3   7  -2 1013.60   32.60
   2   7  -2  343.57   12.00
   2   7  -2  343.97   12.70
   1   7  -2   87.79    4.10
   1   7  -2   89.39    4.40
   1   7  -2   84.69    4.70
   0   7  -2  198.98    7.60
   0   7  -2  204.48    7.80
  -1   7  -2    4.20    1.40
  -1   7  -2    4.40    1.20
  -2   7  -2   58.39    4.50
  -2   7  -2   60.99    3.50
  -3   7  -2    0.90    2.40
  -3   7  -2   -0.20    0.80
  -4   7  -2   -0.10    1.70
  -4   7  -2    1.60    1.00
   6   6  -2   28.50    2.20
   5   6  -2  350.56   13.20
  -5  -6   2  360.56   12.00
  -4  -6   2  182.08    6.90
   3   6  -2  744.73   23.20
   3   6  -2  750.82   24.40
  -3  -6   2  707.03   22.70
   2   6  -2   37.80    2.50
   2   6  -2   37.60    2.90
   1   6  -2  240.38    9.50
   1   6  -2  205.68    8.00
   0   6  -2    9.90    1.20
   0   6  -2    9.70    1.30
  -1   6  -2    9.30    1.60
  -1   6  -2    9.60    1.30
  -1   6  -2    9.20    1.30
  -2   6  -2  126.59    6.30
  -2   6  -2  137.79    5.80
  -3   6  -2   12.90    1.70
  -3   6  -2   10.70    3.40
  -4   6  -2    4.00    1.10
  -4   6  -2    2.60    2.20
   6   5  -2  188.38    7.40
  -6  -5   2  185.88    6.60
  -5  -5   2   57.99    3.10
  -4  -5   2 1016.70   31.20
   3   5  -2   75.19    3.20
  -2  -5   2   47.00    2.40
  -1  -5   2  228.68    7.60
   0  -5   2   77.49    5.50
   0  -5   2   74.59    3.10
  -1   5  -2   15.70    1.60
  -2   5  -2   37.60    2.40
  -2   5  -2   38.30    3.10
  -3   5  -2    3.20    2.40
  -3   5  -2    2.40    1.10
  -4   5  -2  455.05   15.00
  -4   5  -2  432.86   16.00
  -5   5  -2   34.40    2.10
  -6  -4   2   93.69    3.80
  -5  -4   2  235.08    8.50
  -4  -4   2  139.09    5.60
  -3  -4   2   23.00    1.80
  -2  -4   2  293.77    9.40
  -1  -4   2 1045.50   31.10
  -2   4  -2   27.50    2.40
  -2   4  -2   24.40    2.00
  -3   4  -2  500.75   16.10
  -3   4  -2  476.05   17.10
  -4   4  -2   55.19    4.90
  -4   4  -2   53.79    3.20
  -5   4  -2  271.27    9.70
   5  -4   2  289.27    9.40
  -6  -3   2    5.50    0.90
  -6  -3   2    0.30    1.00
   5   3  -2  171.08    6.50
  -5  -3   2  162.68    6.50
  -5  -3   2  167.28    6.50
   4   3  -2  139.09    5.60
  -4  -3   2  145.39    5.60
  -4  -3   2  144.39    5.60
  -3  -3   2  166.68    5.80
  -2  -3   2  184.78    6.10
  -1  -3   2 1433.66   42.20
   1  -3   2   46.30    2.90
  -3   3  -2  366.06   13.20
  -3   3  -2  364.26   12.10
  -3   3  -2  345.07   11.20
  -4   3  -2  635.84   22.00
  -4   3  -2  645.34   19.80
  -4   3  -2  671.73   20.90
   4  -3   2  640.84   20.40
  -5   3  -2    9.90    1.40
   5  -3   2   10.10    1.40
   6   2  -2   48.00    2.50
  -6  -2   2   51.09    2.70
   5   2  -2   23.30    2.00
  -5  -2   2   24.90    2.20
  -5  -2   2   24.00    2.20
   4   2  -2  204.18    7.50
  -4  -2   2  196.08    7.30
  -4  -2   2  206.88    7.30
  -3  -2   2  100.29    3.70
  -2  -2   2  457.45   13.90
  -1  -2   2  102.89    3.50
   0  -2   2  252.77    8.80
   1  -2   2 1008.80   30.30
  -3   2  -2    0.50    0.80
  -3   2  -2    0.20    0.60
  -3   2  -2   -0.80    0.80
  -4   2  -2   19.50    1.40
  -4   2  -2   18.10    2.10
  -4   2  -2   16.50    2.60
   4  -2   2   18.10    1.80
  -5   2  -2   28.80    1.80
  -5   2  -2   26.80    2.40
   5  -2   2   29.60    2.20
   6  -2   2   22.60    1.60
   6   1  -2   10.00    1.30
  -6  -1   2    9.00    1.20
  -6  -1   2    8.50    1.10
   5   1  -2    8.40    1.40
  -5  -1   2    7.70    1.30
   4   1  -2   49.60    2.90
  -4  -1   2   48.20    2.70
  -4  -1   2   46.70    2.70
   3   1  -2    4.00    2.20
   2   1  -2  196.78    9.90
  -2  -1   2  190.08    6.10
   1   1  -2 1605.14   48.90
  -1  -1   2 1546.65   46.10
   0  -1   2  750.12   22.80
  -4   1  -2    3.80    1.30
  -4   1  -2    4.50    1.20
  -4   1  -2    3.80    0.90
   4  -1   2    4.10    1.00
  -5   1  -2  130.19    5.60
  -5   1  -2  129.19    5.00
   5  -1   2  138.59    5.50
  -6   1  -2   14.00    1.30
   6  -1   2   12.90    1.40
   6   0  -2   -0.20    0.70
  -6   0   2    1.30    0.60
  -6   0   2   -0.10    0.60
   5   0  -2    0.20    1.00
  -5   0   2    0.60    1.00
   4   0  -2  216.48    8.10
  -4   0   2  229.38    7.90
   3   0  -2   50.09    5.40
   2   0  -2  892.41   30.70
  -2   0   2  878.41   26.10
   1   0  -2  162.98    7.30
  -1   0   2  167.78    5.00
   0   0  -2  613.04   19.00
   0   0   2  595.84   19.00
  -1   0  -2 1404.66   41.70
  -2   0  -2  755.12   24.60
  -4   0  -2  108.69    4.30
   4   0   2  108.19    4.50
  -5   0  -2    9.80    1.30
   5   0   2    7.80    1.40
  -6   0  -2   35.90    2.10
   6   0   2   29.30    2.00
   6  -1  -2   30.00    1.90
  -6   1   2   30.40    1.70
  -6   1   2   28.90    1.90
   5  -1  -2  286.97   10.10
  -5   1   2  282.07    9.60
  -5   1   2  280.47   10.20
   4  -1  -2   11.40    1.60
  -4   1   2   10.80    1.40
   3  -1  -2  448.16   13.70
   3  -1  -2  376.06   18.10
  -3   1   2  358.16   12.40
   2  -1  -2    5.80    2.10
   1  -1  -2  843.92   27.90
   0  -1  -2 1024.40   31.80
   0   1   2 1050.59   29.90
   0   1   2  992.10   31.80
  -1  -1  -2 2648.14   77.19
  -2  -1  -2   46.00    2.00
  -3  -1  -2   15.00    1.20
  -4  -1  -2   27.60    1.90
  -4  -1  -2   21.70    1.90
   4   1   2   23.20    1.90
  -5  -1  -2  206.08    7.40
   5   1   2  200.18    7.50
  -6  -1  -2    1.00    0.60
   6   1   2    0.40    0.70
   5  -2  -2    9.10    1.40
  -5   2   2    9.60    1.60
  -5   2   2    7.50    1.20
   4  -2  -2   41.00    2.80
  -4   2   2   43.30    2.50
   3  -2  -2   16.20    1.60
  -3   2   2   16.20    2.30
  -3   2   2   16.10    1.50
   2  -2  -2  121.59    7.80
   1  -2  -2 1834.42   57.49
   0  -2  -2  708.33   23.10
   0  -2  -2  689.13   20.20
   0   2   2  678.13   20.20
  -1  -2  -2  500.65   14.90
  -2  -2  -2  204.08    6.60
  -3  -2  -2   64.09    2.80
  -4  -2  -2  171.48    6.20
  -4  -2  -2  169.58    6.30
   4   2   2  165.98    6.30
  -5  -2  -2   94.79    4.20
  -5  -2  -2   92.59    4.20
   5   2   2   95.29    4.30
  -6  -2  -2   60.29    3.10
   6   2   2   63.89    3.20
   5  -3  -2    1.30    0.70
  -5   3   2    0.50    0.50
  -5   3   2   -0.40    1.10
   4  -3  -2   55.29    3.20
  -4   3   2   56.19    3.40
  -4   3   2   53.89    2.80
   3  -3  -2    8.50    1.20
  -3   3   2    4.60    1.70
   2  -3  -2  257.97   13.00
   1  -3  -2  411.56   16.50
   0  -3  -2    4.20    1.60
   0  -3  -2    3.00    0.30
  -1  -3  -2   78.39    2.80
  -2  -3  -2 1146.49   34.00
  -3  -3  -2  381.66   12.10
  -4  -3  -2  654.43   19.90
  -4  -3  -2  620.44   19.80
   4   3   2  623.84   19.90
  -5  -3  -2   73.59    3.70
  -5  -3  -2   70.39    3.40
   5   3   2   71.29    3.60
  -6  -3  -2    4.70    0.90
   6   3   2    5.80    1.00
   5  -4  -2   10.90    1.20
  -5   4   2    8.20    1.40
   4  -4  -2   38.70    2.70
  -4   4   2   34.10    3.40
  -4   4   2   42.30    2.20
  -4   4   2   39.60    3.10
   3  -4  -2    2.80    1.00
  -3   4   2    4.00    2.00
  -3   4   2    4.50    1.10
  -3   4   2    3.10    0.70
  -2   4   2   61.39    3.30
  -2   4   2   55.09    4.00
  -2   4   2   65.89    3.40
   1  -4  -2   42.50    4.40
   0  -4  -2   21.70    1.00
   0  -4  -2   20.90    3.00
  -1  -4  -2  864.31   25.70
  -2  -4  -2    0.10    0.50
   3   4   2 1057.59   34.40
  -4  -4  -2    0.60    0.90
  -5  -4  -2   64.39    3.40
  -5  -4  -2   62.99    3.40
  -6  -4  -2   19.70    1.70
  -6  -4  -2   22.00    1.80
  -5   5   2   -0.30    0.60
  -4   5   2   14.90    1.90
  -4   5   2   15.90    2.60
  -3   5   2   18.10    2.00
  -3   5   2   14.20    1.90
  -3   5   2   14.70    3.00
   1  -5  -2  175.38   10.70
  -1   5   2  168.28    7.20
  -1   5   2  181.58    7.00
   0  -5  -2  289.47   14.10
  -1  -5  -2  670.03   20.80
  -1  -5  -2  718.43   26.50
  -2  -5  -2 1469.25   43.60
  -3  -5  -2   18.80    1.80
   3   5   2   24.40    2.00
   3   5   2   15.20    2.10
  -4  -5  -2   44.10    2.80
   4   5   2   49.70    3.30
   4   5   2   40.50    3.00
  -5  -5  -2   16.60    1.70
   5   5   2   19.60    2.10
  -6  -5  -2    0.10    0.70
   6   5   2    3.30    0.90
  -4   6   2   38.40    3.40
  -4   6   2   50.49    3.00
  -3   6   2   25.30    2.50
  -3   6   2   21.40    2.50
  -3   6   2   23.20    4.50
  -2   6   2   11.00    1.50
  -2   6   2   12.50    2.20
  -2   6   2   11.80    2.40
  -1   6   2   32.40    3.00
  -1   6   2   34.90    2.70
   0   6   2   16.60    1.80
   0   6   2   19.90    1.80
   1   6   2   23.20    2.00
   1   6   2   21.70    1.70
   2   6   2   60.29    3.50
   2   6   2   47.50    3.10
   2   6   2   63.99    3.20
  -3  -6  -2    0.80    0.80
   3   6   2    4.20    1.20
   3   6   2    0.70    1.20
  -4  -6  -2    0.30    0.90
   4   6   2    3.90    1.40
   4   6   2    0.80    0.80
  -5  -6  -2  150.08    5.80
   5   6   2  144.69    6.70
  -6  -6  -2   10.00    1.20
   6   6   2   10.50    1.20
  -4   7   2   13.80    2.40
  -3   7   2    2.70    2.90
  -3   7   2    2.10    0.90
  -3   7   2    0.80    1.20
  -2   7   2   11.10    1.70
  -2   7   2   14.70    3.60
  -2   7   2   15.10    2.50
  -1   7   2   34.80    3.10
  -1   7   2   38.60    3.50
   0   7   2  320.87   11.80
   0   7   2  312.87   12.00
   1   7   2   40.10    2.80
   1   7   2   41.30    3.10
   1   7   2   44.20    3.00
   2   7   2    0.70    1.20
   2   7   2    1.80    0.80
   2   7   2    0.70    0.80
  -3  -7  -2    5.30    1.20
   3   7   2    7.70    1.90
   3   7   2    7.20    1.60
  -4  -7  -2   43.50    2.60
   4   7   2   40.60    3.60
   4   7   2   38.90    3.20
  -5  -7  -2   46.80    2.60
   5   7   2   38.90    3.20
  -3   8   2    4.20    2.70
  -3   8   2    4.20    1.70
  -2   8   2    3.50    1.30
  -2   8   2    3.00    3.80
  -1   8   2  120.79    6.70
  -1   8   2  126.89    6.40
   0   8   2   33.70    2.90
   0   8   2   33.60    3.10
   1   8   2   55.99    3.70
   1   8   2   51.19    3.60
   1   8   2   53.89    4.10
   2   8   2   84.69    4.80
   2   8   2   85.09    5.00
   2   8   2   83.09    4.60
   3   8   2    7.30    2.20
   3   8   2    6.30    1.90
  -4  -8  -2  185.78    6.90
   4   8   2  185.88    7.50
   4   8   2  192.58    8.20
  -5  -8  -2   25.10    1.70
   5   8   2   22.00    2.40
  -2   9   2   -0.20    1.30
  -2   9   2    2.00    2.90
  -1   9   2   12.40    2.50
  -1   9   2   12.50    1.90
   0   9   2  138.09    6.90
   0   9   2  139.79    6.70
   1   9   2  268.77   10.00
   1   9   2  262.77   10.40
   1   9   2  262.27   10.80
   2   9   2    0.70    1.00
   2   9   2    0.50    2.10
   3   9   2   86.89    5.50
   3   9   2   83.79    5.10
   4   9   2   22.30    2.40
   4   9   2   21.70    2.50
   5   9   2    8.40    1.40
  -1  10   2    3.00    2.40
  -1  10   2    2.90    1.30
   0  10   2  160.08    7.40
   1  10   2   26.70    3.70
   1  10   2   23.90    2.30
   1  10   2   26.40    2.70
   2  10   2   42.20    3.40
   2  10   2   45.10    4.60
   3  10   2   21.70    3.00
   3  10   2   17.10    2.20
   4  10   2    7.30    1.40
   0  11   2   13.30    2.30
   1  11   2   22.10    2.70
   2  11   2   20.20    2.20
   2  11   2   16.70    2.80
   3  11   2   17.90    1.90
   2  11  -3   -0.20    0.90
   1  11  -3    0.30    0.80
   3  10  -3    1.00    1.00
   2  10  -3    3.20    1.40
   1  10  -3    1.30    1.00
   0  10  -3  118.89    5.00
  -1  10  -3    0.40    0.90
   4   9  -3    0.00    1.20
   3   9  -3   14.50    2.00
   3   9  -3   14.50    2.10
   2   9  -3   49.40    3.40
   1   9  -3  310.47   11.30
   0   9  -3    3.10    1.00
   0   9  -3    2.20    1.30
  -1   9  -3  105.89    4.80
  -2   9  -3   23.50    1.90
  -2   9  -3   25.50    3.00
   5   8  -3    5.80    1.30
  -5  -8   3    6.10    0.90
   4   8  -3    2.20    1.20
  -4  -8   3    2.20    0.80
   3   8  -3  270.37   10.60
   3   8  -3  249.48    9.60
   2   8  -3  853.81   26.70
   2   8  -3  815.02   27.20
   1   8  -3  185.98    7.40
   1   8  -3  185.08    7.60
   0   8  -3  201.08    7.90
   0   8  -3  199.08    8.00
  -1   8  -3    1.70    0.90
  -1   8  -3    1.00    0.80
  -2   8  -3    2.00    3.10
  -2   8  -3    1.10    0.90
  -3   8  -3    6.00    1.00
  -3   8  -3    6.60    3.10
   5   7  -3   47.70    3.20
  -5  -7   3   45.90    2.50
   4   7  -3  334.27   12.80
  -4  -7   3  341.07   11.40
   3   7  -3  391.36   13.60
   3   7  -3  404.76   14.70
   2   7  -3  292.57   11.30
   2   7  -3  303.87   10.80
   2   7  -3  292.87   10.60
   1   7  -3  223.48    8.30
   1   7  -3  221.68    8.60
   0   7  -3   22.90    2.20
   0   7  -3   21.40    2.30
  -1   7  -3  113.79    6.00
  -1   7  -3  118.09    5.20
  -1   7  -3  114.09    5.20
  -2   7  -3   31.10    2.70
  -2   7  -3   27.90    3.50
  -3   7  -3    6.50    1.40
  -3   7  -3   11.00    2.90
  -4   7  -3    0.30    0.60
  -4   7  -3    0.60    1.40
   5   6  -3   46.50    3.70
  -5  -6   3   51.59    2.80
  -4  -6   3    6.90    1.30
   3   6  -3  386.46   13.00
   3   6  -3  371.66   13.90
  -3  -6   3  391.96   12.70
   2   6  -3  315.07   10.70
   2   6  -3  299.87   10.50
   2   6  -3  288.47   11.10
   1   6  -3   23.20    2.10
   1   6  -3   22.80    2.00
   0   6  -3  152.68    6.00
   0   6  -3  153.38    6.30
  -1   6  -3   34.60    2.30
  -1   6  -3   34.60    3.00
  -1   6  -3   36.20    2.50
  -2   6  -3   79.69    5.40
  -2   6  -3   79.29    4.00
  -3   6  -3   82.79    6.50
  -3   6  -3   82.39    4.20
  -4   6  -3   17.70    3.40
  -4   6  -3   17.60    1.70
   6   5  -3    7.70    1.30
  -6  -5   3   10.10    1.20
  -5  -5   3   20.70    2.20
  -4  -5   3   69.39    3.60
  -3  -5   3    9.80    1.40
  -1  -5   3  175.18    6.20
   0  -5   3  778.12   23.70
  -1   5  -3  159.08    5.90
  -1   5  -3  163.68    5.90
  -1   5  -3  126.49    6.50
  -2   5  -3    2.80    1.00
  -2   5  -3    2.70    1.40
  -3   5  -3   74.09    5.80
  -3   5  -3   77.59    4.10
  -4   5  -3   58.89    3.50
  -4   5  -3   56.19    5.10
  -5   5  -3   28.10    1.80
  -6  -4   3    6.30    0.90
  -5  -4   3  151.68    6.10
  -4  -4   3  113.69    4.90
  -3  -4   3  174.88    6.50
  -2  -4   3   26.80    1.60
  -1  -4   3  245.18    8.00
  -2   4  -3  113.29    5.60
  -2   4  -3  111.59    4.70
  -3   4  -3   -1.00    2.10
  -3   4  -3   -0.30    0.80
  -4   4  -3  204.18    7.90
  -4   4  -3  203.48    9.00
  -5   4  -3   37.70    2.40
   5  -4   3   36.90    2.10
  -6  -3   3   39.50    2.20
  -5  -3   3   46.70    2.80
  -5  -3   3   47.60    2.80
   4   3  -3   32.10    2.50
  -4  -3   3   38.80    2.60
  -3  -3   3    5.00    1.10
  -3  -3   3    5.30    0.80
  -2  -3   3   15.00    1.20
  -1  -3   3   91.59    3.40
  -3   3  -3   97.29    5.60
  -3   3  -3   93.29    3.70
  -3   3  -3   99.79    4.50
   3  -3   3  109.79    5.00
  -4   3  -3   21.20    2.30
  -4   3  -3   20.60    3.10
  -4   3  -3   23.40    1.60
   4  -3   3   22.10    2.10
  -5   3  -3    6.60    1.10
   5  -3   3    6.30    1.20
  -6  -2   3    0.90    0.90
  -6  -2   3    1.10    0.90
   5   2  -3    7.40    1.40
  -5  -2   3    7.30    1.30
  -5  -2   3    6.90    1.20
   4   2  -3   74.59    3.70
  -4  -2   3   77.19    3.80
  -4  -2   3   73.79    3.60
   3   2  -3   62.39    2.80
  -3  -2   3   58.99    2.90
  -2  -2   3   85.99    3.20
  -1  -2   3 1062.19   31.40
   0  -2   3  611.34   19.30
  -3   2  -3  302.57   10.50
  -3   2  -3  328.97   11.70
  -3   2  -3  318.97   10.10
   3  -2   3  307.27   10.30
  -4   2  -3   10.00    1.90
  -4   2  -3    8.80    1.10
  -4   2  -3    8.70    1.50
   4  -2   3    8.60    1.40
  -5   2  -3    1.90    0.80
  -5   2  -3    1.90    1.10
   5  -2   3    1.60    1.10
   6  -2   3   30.80    1.90
  -6  -1   3   13.80    1.30
  -6  -1   3   11.90    1.30
   5   1  -3   26.40    2.40
  -5  -1   3   22.80    2.20
   4   1  -3    1.10    0.90
  -4  -1   3    1.10    0.70
  -4  -1   3    2.20    1.00
   3   1  -3  681.33   23.00
  -3  -1   3  781.12   23.20
   2   1  -3  354.86   15.40
  -2  -1   3  345.27   10.70
   1   1  -3   77.39    5.00
  -1  -1   3   76.29    2.70
   0   1  -3    4.70    0.90
   0  -1   3    4.80    0.90
  -3   1  -3  275.97   10.20
  -3   1  -3  267.07    8.80
  -4   1  -3   23.10    2.20
  -4   1  -3   28.40    1.80
  -4   1  -3   23.60    2.40
   4  -1   3   23.90    1.90
  -5   1  -3   82.29    3.70
   5  -1   3   93.39    4.30
  -6   1  -3   17.60    1.20
   6  -1   3   18.20    1.50
   6   0  -3    3.80    0.80
  -6   0   3    7.70    0.90
  -6   0   3    6.10    1.00
   5   0  -3   10.50    1.70
  -5   0   3   12.60    1.50
   4   0  -3  179.08    7.00
  -4   0   3  186.18    6.80
   3   0  -3   35.50    2.20
  -3   0   3   36.30    2.10
   2   0  -3  352.06   15.40
   1   0  -3  107.29    6.10
  -1   0   3  109.59    3.50
   0   0  -3  378.26   12.70
   0   0   3  359.46   12.60
  -1   0  -3  118.39    4.30
  -4   0  -3    4.10    1.00
   4   0   3    3.60    1.00
  -5   0  -3    5.40    1.00
   5   0   3    6.30    1.50
  -6   0  -3  164.08    5.80
   6   0   3  175.48    6.30
   6  -1  -3   11.60    1.20
  -6   1   3   12.20    1.20
  -6   1   3   13.90    1.20
   5  -1  -3   57.39    3.20
  -5   1   3   55.09    2.90
   4  -1  -3   64.39    3.40
  -4   1   3   62.19    3.10
   3  -1  -3  107.69    4.40
  -3   1   3  107.59    4.30
   2  -1  -3    0.00    1.40
   1  -1  -3  270.57   11.60
  -1   1   3  263.67    7.90
  -1   1   3  271.07    7.90
   0  -1  -3  147.19    6.60
   0   1   3  143.29    4.50
  -1  -1  -3  279.57   10.10
  -2  -1  -3  495.05   15.10
  -4  -1  -3    2.40    0.80
  -4  -1  -3    1.40    0.90
   4   1   3    1.30    0.90
  -5  -1  -3  189.38    6.90
   5   1   3  191.28    7.20
  -6  -1  -3    3.60    0.80
   6   1   3    4.10    0.90
   5  -2  -3   43.30    2.90
  -5   2   3   41.10    2.70
  -5   2   3   40.20    2.40
   4  -2  -3   12.40    1.60
  -4   2   3   12.40    1.40
   3  -2  -3    2.40    0.90
  -3   2   3    1.50    0.80
  -3   2   3    1.00    1.40
   2  -2  -3  357.36   16.20
   1  -2  -3   69.89    5.30
   0  -2  -3  941.81   31.10
   0   2   3  948.01   27.70
  -1  -2  -3  350.36   13.30
  -1  -2  -3  364.06   10.90
  -2  -2  -3   28.50    1.50
  -3  -2  -3    0.10    0.60
  -4  -2  -3   21.30    1.90
  -4  -2  -3   19.00    1.80
   4   2   3   18.60    1.80
  -5  -2  -3   62.79    3.30
  -5  -2  -3   65.49    3.20
   5   2   3   66.89    3.50
  -6  -2  -3   83.49    3.60
   6   2   3   84.49    3.80
   5  -3  -3    3.50    0.90
  -5   3   3    4.20    0.70
  -5   3   3    3.90    1.10
   4  -3  -3    0.90    1.00
  -4   3   3    0.40    0.60
  -4   3   3    0.60    1.00
   3  -3  -3    6.70    1.20
  -3   3   3    7.80    1.20
  -3   3   3    7.20    1.90
   2  -3  -3  201.78   11.60
  -2   3   3  207.68    8.60
   1  -3  -3  658.03   24.50
   0  -3  -3  409.96   16.30
  -1  -3  -3  115.79    6.60
  -1  -3  -3  115.59    3.90
  -2  -3  -3   20.30    1.30
  -3  -3  -3    0.00    0.80
  -4  -3  -3  177.88    6.60
  -4  -3  -3  176.38    6.60
   4   3   3  173.18    6.50
  -5  -3  -3    1.10    1.00
  -5  -3  -3    3.30    1.00
   5   3   3    4.20    1.00
  -6  -3  -3   28.60    1.90
   6   3   3   27.30    1.80
   5  -4  -3    0.10    0.60
  -5   4   3    0.70    0.80
   4  -4  -3    6.50    1.30
  -4   4   3    7.80    0.90
  -4   4   3    7.30    1.60
   3  -4  -3  272.77    9.60
  -3   4   3  276.57   11.40
  -3   4   3  272.37   10.50
  -3   4   3  278.57    9.10
  -3   4   3  285.37   10.20
  -2   4   3  112.39    4.10
  -2   4   3  112.99    5.10
  -2   4   3  112.29    5.80
   1  -4  -3   94.49    7.10
   0  -4  -3  187.28   10.20
  -1  -4  -3  128.39    4.40
  -1  -4  -3  135.49    8.10
  -2  -4  -3  123.39    4.40
  -3  -4  -3    9.50    1.30
   3   4   3    6.20    1.20
  -4  -4  -3   15.00    1.80
  -5  -4  -3    5.80    1.30
  -5  -4  -3    6.60    1.20
  -6  -4  -3   13.30    1.30
  -6  -4  -3   13.70    1.40
   4  -5  -3   58.59    3.20
  -4   5   3   58.29    3.30
  -3   5   3  179.68    7.60
  -3   5   3  165.18    8.70
  -3   5   3  164.18    7.00
  -2   5   3    5.20    1.20
  -2   5   3    3.60    2.10
  -1   5   3   61.49    3.90
  -1   5   3   71.29    3.60
   0  -5  -3   89.39    7.40
  -1  -5  -3   37.20    4.70
  -2  -5  -3   15.00    1.30
   2   5   3   13.40    1.60
  -3  -5  -3   14.40    1.60
   3   5   3   13.20    1.70
  -5  -5  -3    5.50    1.30
   5   5   3   10.70    1.30
  -6  -5  -3   81.79    3.40
  -4   6   3  105.09    4.50
  -3   6   3    8.80    2.90
  -3   6   3   11.30    1.60
  -3   6   3    9.80    1.80
  -2   6   3   41.60    3.20
  -2   6   3   44.20    4.10
  -1   6   3  219.68    8.90
  -1   6   3  219.48    9.20
   0   6   3  393.26   13.90
   0   6   3  398.66   14.10
   1   6   3  150.98    6.50
   1   6   3  154.48    6.50
   1   6   3  149.29    6.00
   2   6   3    2.80    1.30
  -3  -6  -3   26.80    2.10
   3   6   3   29.90    2.80
  -4  -6  -3   41.60    2.90
   4   6   3   51.89    3.40
  -5  -6  -3  293.37    9.80
   5   6   3  267.07   10.40
  -6  -6  -3   24.10    1.60
  -3   7   3   73.89    4.50
  -3   7   3   82.79    6.70
  -2   7   3   37.00    5.30
  -2   7   3   32.20    3.10
  -1   7   3  171.68    7.80
  -1   7   3  171.78    8.10
   0   7   3   13.10    2.30
   0   7   3   11.40    1.70
   1   7   3   82.69    4.30
   1   7   3   86.39    4.80
   1   7   3   84.09    4.90
   2   7   3   69.89    4.10
   2   7   3   70.19    4.00
   2   7   3   71.19    4.30
  -3  -7  -3  122.29    5.10
   3   7   3  131.59    6.10
   3   7   3  118.99    6.00
   3   7   3  122.89    6.00
  -4  -7  -3   62.29    3.20
   4   7   3   60.89    4.10
  -5  -7  -3  123.09    4.90
   5   7   3  112.49    5.40
  -3   8   3    2.60    1.40
  -2   8   3    4.40    3.90
  -2   8   3    4.30    1.60
  -1   8   3  147.59    7.50
  -1   8   3  139.79    6.90
   0   8   3   53.99    3.90
   0   8   3   57.89    4.30
   1   8   3    4.20    2.00
   1   8   3    4.20    1.70
   1   8   3    4.40    1.50
   2   8   3  357.06   12.70
   2   8   3  327.67   12.60
   2   8   3  338.37   13.00
  -3  -8  -3   52.39    3.10
   3   8   3   58.09    4.20
   3   8   3   60.29    4.00
  -4  -8  -3   59.89    3.10
   4   8   3   56.59    4.00
  -5  -8  -3    0.70    0.80
   5   8   3    0.40    1.10
  -2   9   3   11.70    3.10
  -2   9   3   10.50    1.60
  -1   9   3   45.70    5.00
  -1   9   3   44.10    3.30
   0   9   3   -0.60    1.10
   0   9   3    0.90    1.50
   1   9   3  338.37   12.60
   1   9   3  315.57   11.80
   1   9   3  344.07   13.00
   2   9   3    4.60    1.50
   2   9   3    5.70    2.10
   2   9   3    6.80    1.70
   3   9   3    1.30    1.50
   3   9   3    1.90    2.50
  -4  -9  -3   31.60    2.00
   4   9   3   31.60    2.90
  -1  10   3   18.70    3.10
  -1  10   3   13.60    1.90
   0  10   3   98.19    5.30
   0  10   3   88.69    4.80
   1  10   3   42.40    3.30
   1  10   3   49.70    3.80
   2  10   3    5.90    2.20
   2  10   3    7.60    1.70
   3  10   3    7.60    1.60
   4  10   3   26.20    2.20
   1  11   3   18.70    2.20
   2  11   3   54.39    3.30
   3  10  -4   13.70    1.60
   2  10  -4    2.70    1.10
   1  10  -4    0.30    0.90
   0  10  -4  386.46   13.10
   0  10  -4  397.66   12.90
  -1  10  -4  164.88    7.10
   3   9  -4   26.10    2.20
   2   9  -4   25.40    2.30
   1   9  -4  289.47   10.20
   1   9  -4  276.17   10.40
   0   9  -4   19.80    2.40
   0   9  -4   19.10    2.00
  -1   9  -4   88.99    4.20
  -2   9  -4   13.90    1.50
   4   8  -4   32.90    2.80
  -4  -8   4   34.30    2.10
   3   8  -4  208.88    8.10
   2   8  -4   41.80    3.20
   2   8  -4   39.80    3.40
   1   8  -4  237.98    9.30
   1   8  -4  241.68    9.20
   0   8  -4   59.49    3.60
   0   8  -4   57.49    3.80
  -1   8  -4   12.50    1.90
  -1   8  -4   12.20    1.80
  -2   8  -4   -0.10    0.80
  -2   8  -4    0.70    2.10
  -3   8  -4    9.00    1.30
  -3   8  -4    3.40    1.90
   5   7  -4   49.70    3.20
  -5  -7   4   58.39    2.90
   4   7  -4  145.39    6.70
  -4  -7   4  150.38    5.90
   3   7  -4   18.90    2.60
   3   7  -4   24.50    2.00
  -3  -7   4   20.40    2.00
   2   7  -4  156.58    6.80
   2   7  -4  160.38    6.80
   1   7  -4    1.00    0.80
   1   7  -4    1.00    1.00
   0   7  -4   74.19    3.90
   0   7  -4   76.39    4.10
  -1   7  -4    0.20    1.00
  -1   7  -4   -0.60    0.70
  -2   7  -4    3.40    3.20
  -2   7  -4    1.60    1.20
  -3   7  -4    4.00    3.30
  -3   7  -4    1.70    0.90
   5   6  -4    6.50    1.70
  -5  -6   4   10.70    1.40
   4   6  -4   45.60    3.40
  -4  -6   4   47.10    3.00
   3   6  -4   10.70    2.10
  -3  -6   4   11.50    1.40
   2   6  -4  128.09    5.50
   2   6  -4  118.99    5.50
   1   6  -4   23.80    2.10
   1   6  -4   23.20    2.30
   0   6  -4    7.70    1.50
   0   6  -4    6.60    1.30
  -1   6  -4   50.99    3.10
  -1   6  -4   48.60    2.90
  -2   6  -4   25.90    2.50
  -2   6  -4   28.50    3.60
  -3   6  -4    7.70    1.30
  -3   6  -4    7.50    2.70
  -4   6  -4    2.30    1.80
  -4   6  -4    2.70    0.90
  -5  -5   4    0.00    0.80
  -4  -5   4  218.58    8.20
  -3  -5   4   74.89    3.70
   2   5  -4   31.00    2.30
  -2  -5   4   29.70    2.10
   1   5  -4    8.50    1.20
   1   5  -4   13.70    1.30
   0   5  -4    0.30    0.80
   0   5  -4    1.10    0.60
  -1   5  -4    1.80    0.80
  -1   5  -4    0.90    0.70
  -2   5  -4  217.78    8.10
  -2   5  -4  215.58    9.50
  -3   5  -4   28.90    3.80
  -3   5  -4   29.40    2.40
  -4   5  -4   18.90    3.00
  -4   5  -4   18.20    1.80
  -5  -4   4  166.38    6.50
  -4  -4   4   36.50    2.70
  -3  -4   4    3.70    1.10
   2   4  -4    9.90    1.30
   2   4  -4   10.60    1.20
  -1  -4   4  429.06   13.50
  -1   4  -4  512.35   16.70
  -2   4  -4   47.80    3.00
  -2   4  -4   50.89    4.30
  -2   4  -4   51.69    2.80
  -3   4  -4   45.90    3.10
  -3   4  -4   52.59    4.20
  -4   4  -4  100.69    5.60
  -4   4  -4   96.59    4.50
  -5  -3   4   17.60    2.00
  -5  -3   4   16.70    1.80
  -4  -3   4   68.89    3.70
   3   3  -4    0.60    0.60
  -3  -3   4    1.10    0.80
  -2  -3   4  165.58    5.80
  -1  -3   4  595.64   18.20
  -2   3  -4  126.59    5.10
  -2   3  -4  132.69    6.00
  -3   3  -4   24.80    2.20
  -3   3  -4   24.80    1.60
  -3   3  -4   26.60    2.90
   3  -3   4   24.30    1.70
  -4   3  -4   68.09    2.80
  -4   3  -4   63.09    3.40
  -4   3  -4   61.29    4.30
   4  -3   4   64.39    3.40
  -5   3  -4   13.50    1.70
   5  -3   4   16.90    1.70
  -6  -2   4    9.10    1.40
  -6  -2   4    9.50    1.10
   5   2  -4    3.90    1.30
  -5  -2   4    5.70    1.10
  -5  -2   4    6.20    1.30
   4   2  -4   13.50    1.70
  -4  -2   4   14.00    1.80
  -4  -2   4   14.70    1.80
   3   2  -4   12.20    1.30
   3   2  -4   12.80    1.60
  -3  -2   4   11.70    1.50
  -3  -2   4   11.30    1.30
  -2  -2   4 2061.29   60.59
  -1  -2   4 1364.16   40.30
  -3   2  -4   27.60    2.90
  -3   2  -4   28.20    1.80
  -3   2  -4   29.10    2.00
   3  -2   4   28.60    2.00
  -4   2  -4    2.60    0.90
  -4   2  -4    0.40    1.30
  -4   2  -4    2.60    0.80
   4  -2   4    2.70    0.90
  -5   2  -4    0.70    0.70
   5  -2   4    1.00    1.00
  -6  -1   4   18.10    1.40
  -6  -1   4   26.30    2.00
   5   1  -4   44.30    2.70
  -5  -1   4   44.00    2.60
   4   1  -4    1.00    1.00
  -4  -1   4    1.20    1.00
  -4  -1   4    2.10    1.10
   3   1  -4  242.28    8.30
   3   1  -4  239.68    8.50
  -3  -1   4  246.68    8.40
  -3  -1   4  234.98    8.30
   2   1  -4   45.40    4.90
   1   1  -4   10.20    2.10
  -1  -1   4    9.10    0.80
   0   1  -4   49.90    3.10
  -3   1  -4  129.99    4.70
  -3   1  -4  129.69    6.00
   3  -1   4  127.19    5.00
  -4   1  -4   16.50    1.60
   4  -1   4   14.90    1.80
  -5   1  -4   15.90    1.50
   5  -1   4   15.70    2.00
  -6   1  -4   -0.30    0.60
   6  -1   4   -0.50    0.50
   5   0  -4    3.90    1.30
  -5   0   4    5.70    1.30
   4   0  -4    7.40    1.50
  -4   0   4   11.20    1.60
  -4   0   4    7.70    1.40
   3   0  -4  525.95   16.40
   3   0  -4  500.45   16.10
  -3   0   4  499.45   16.00
  -3   0   4  512.25   16.20
   2   0  -4   98.69    7.50
   1   0  -4  105.99    6.40
  -1   0   4  104.59    3.50
   0   0  -4 1146.89   36.00
  -1   0  -4    6.50    0.80
  -3   0  -4  213.08    7.30
   3   0   4  214.38    7.50
  -4   0  -4    4.50    0.90
   4   0   4    4.60    1.20
  -5   0  -4   47.50    2.60
   5   0   4   44.80    2.90
  -6   0  -4   79.59    3.30
   6   0   4   85.09    3.50
   5  -1  -4    1.00    0.90
  -5   1   4    1.10    0.80
   4  -1  -4  187.38    7.30
  -4   1   4  181.98    6.90
   3  -1  -4  278.47    9.70
  -3   1   4  281.67    9.40
   2  -1  -4  196.38   11.20
   1  -1  -4    0.60    1.00
   0  -1  -4 1983.90   61.09
  -1  -1  -4  841.62   27.00
  -3  -1  -4   40.30    2.20
   3   1   4   41.50    2.20
  -4  -1  -4   -0.10    0.90
  -4  -1  -4    1.10    0.90
   4   1   4    0.50    0.60
  -5  -1  -4   13.30    1.50
   5   1   4    9.50    1.50
  -6  -1  -4   36.60    2.00
   6   1   4   32.90    2.10
   5  -2  -4    2.50    1.10
  -5   2   4    1.70    0.90
  -5   2   4    2.90    1.00
   4  -2  -4  161.08    6.40
  -4   2   4  149.29    5.90
   3  -2  -4  401.56   13.10
  -3   2   4  387.86   12.70
   2  -2  -4   76.49    6.90
   1  -2  -4 1022.90   35.30
   0  -2  -4  215.18   10.00
  -1  -2  -4  494.25   17.90
  -2  -2  -4   56.09    2.50
  -3  -2  -4   31.00    2.10
   3   2   4   30.90    2.00
  -4  -2  -4   15.00    1.50
  -4  -2  -4   14.40    1.70
   4   2   4   15.70    1.60
  -5  -2  -4  103.39    4.50
   5   2   4   98.49    4.50
  -6  -2  -4    7.10    1.00
   6   2   4    6.00    1.00
   5  -3  -4   14.90    1.50
  -5   3   4   10.40    1.40
  -5   3   4   12.50    1.00
   4  -3  -4   47.30    3.10
  -4   3   4   48.50    2.50
  -4   3   4   43.70    3.30
   3  -3  -4    1.50    1.00
  -3   3   4    1.30    0.70
  -3   3   4   -0.70    1.50
   2  -3  -4  574.74   18.90
  -2   3   4  610.14   18.60
  -2   3   4  634.64   20.50
   1  -3  -4   73.09    6.20
   0  -3  -4  897.01   31.40
  -1  -3  -4   23.30    3.00
  -1  -3  -4   21.50    1.20
  -2  -3  -4   88.79    3.50
  -3  -3  -4    4.10    1.00
   3   3   4    4.30    1.00
  -4  -3  -4   88.19    4.10
  -4  -3  -4   85.49    4.00
   4   3   4   85.49    4.00
  -5  -3  -4   47.40    2.90
  -5  -3  -4   49.90    2.80
   5   3   4   46.60    2.90
  -6  -3  -4   -0.50    0.60
   6   3   4   -0.10    1.10
   5  -4  -4    5.20    0.90
  -5   4   4    2.20    0.80
   4  -4  -4    0.50    0.80
  -4   4   4   -0.90    0.80
  -4   4   4    0.50    0.50
   3  -4  -4  351.76   12.20
  -3   4   4  367.36   14.20
  -3   4   4  366.86   12.70
   2  -4  -4   37.50    2.40
  -2   4   4   37.70    3.40
  -2   4   4   40.20    2.10
   0  -4  -4   15.90    3.20
  -1  -4  -4   19.10    3.50
  -1  -4  -4   20.10    1.70
  -2  -4  -4   29.00    3.80
  -2  -4  -4   29.80    1.70
  -3  -4  -4  329.17   11.00
  -4  -4  -4  168.88    6.60
  -5  -4  -4    7.60    1.40
  -5  -4  -4    7.60    1.30
  -6  -4  -4    0.00    0.60
  -6  -4  -4    0.20    0.60
   4  -5  -4   14.90    1.50
  -4   5   4   12.70    1.60
   3  -5  -4   36.30    2.40
  -3   5   4   39.60    2.90
  -3   5   4   36.90    3.90
  -2   5   4    3.60    2.30
  -1   5   4   46.20    3.50
  -1   5   4   41.40    2.10
  -1   5   4   47.10    2.90
   0   5   4   20.60    1.50
   0   5   4   15.90    1.60
  -2  -5  -4  208.38    7.40
   2   5   4  220.88    8.10
   2   5   4  210.08    8.10
  -4  -5  -4    0.60    1.10
  -5  -5  -4   70.39    3.60
  -6  -5  -4   92.89    3.80
  -4   6   4   27.90    1.80
  -3   6   4    1.90    3.10
  -3   6   4    3.40    0.80
  -2   6   4   27.10    2.50
  -2   6   4   21.50    3.30
  -1   6   4   11.90    1.70
   0   6   4  151.28    6.80
   0   6   4  154.78    6.80
   1   6   4   18.70    2.00
   1   6   4   18.20    2.30
  -2  -6  -4   72.79    3.50
   2   6   4   74.99    4.00
   2   6   4   74.09    4.00
  -3  -6  -4   45.30    2.70
   3   6   4   47.20    3.20
   3   6   4   50.49    3.20
  -4  -6  -4  165.38    6.50
   4   6   4  167.98    7.20
  -5  -6  -4  145.79    5.80
  -6  -6  -4    7.10    1.00
  -3   7   4   30.60    3.80
  -3   7   4   25.80    2.40
  -2   7   4   58.69    3.90
  -2   7   4   61.59    5.10
  -1   7   4   33.20    3.70
  -1   7   4   33.80    3.20
   0   7   4  132.59    6.40
   0   7   4  138.69    6.80
   1   7   4   27.70    3.40
   1   7   4   34.30    2.90
   1   7   4   25.90    2.80
  -2  -7  -4  101.89    5.00
   2   7   4  110.89    5.50
   2   7   4  110.69    5.80
   2   7   4  112.79    5.70
  -3  -7  -4   41.30    2.70
   3   7   4   52.69    3.40
   3   7   4   41.50    3.40
   3   7   4   39.60    3.20
  -4  -7  -4   87.39    4.10
   4   7   4   90.79    4.80
  -5  -7  -4    0.10    0.70
  -2   8   4    3.40    2.70
  -2   8   4    1.60    1.00
  -1   8   4   31.20    4.20
  -1   8   4   28.90    2.70
   0   8   4    4.40    1.60
   0   8   4    3.80    1.50
   1   8   4   93.49    5.30
   1   8   4   92.59    5.30
   1   8   4   92.99    5.50
   2   8   4   32.30    3.00
   2   8   4   31.90    2.90
   2   8   4   34.60    4.10
  -3  -8  -4   65.19    3.40
   3   8   4   62.19    4.00
   3   8   4   66.19    4.60
   3   8   4   67.69    4.40
  -4  -8  -4   96.39    4.10
   4   8   4   91.99    4.90
  -5  -8  -4   18.60    1.50
  -2   9   4   32.60    2.40
  -2   9   4   31.60    3.70
  -1   9   4  222.08    9.40
  -1   9   4  212.98    8.80
   0   9   4   58.19    4.40
   0   9   4   53.49    3.70
   1   9   4    0.30    0.90
   1   9   4    0.60    1.10
   2   9   4    4.00    1.30
   2   9   4    6.90    2.20
   2   9   4    4.30    1.70
   3   9   4  147.09    6.90
  -4  -9  -4   42.20    2.20
   4   9   4   41.20    2.80
  -1  10   4    4.50    2.30
  -1  10   4    2.70    0.90
   0  10   4   10.30    2.20
   0  10   4    9.70    1.80
   1  10   4    1.70    1.00
   1  10   4    2.20    1.50
   2  10   4   18.80    1.90
   2  10   4   18.40    2.50
   3  10   4   76.89    4.10
   2  10  -5   27.30    2.00
   1  10  -5    3.60    1.10
   1  10  -5    3.50    1.00
   0  10  -5   64.89    3.40
   0  10  -5   76.19    3.40
   3   9  -5   40.30    2.50
   2   9  -5    0.80    1.20
   1   9  -5   37.90    2.80
   1   9  -5   36.60    2.90
   0   9  -5   69.89    3.80
   0   9  -5   72.49    3.80
  -1   9  -5    5.60    1.10
  -1   9  -5    6.90    1.30
  -2   9  -5   41.30    2.30
  -4  -8   5    4.30    1.00
   3   8  -5   26.50    2.10
   2   8  -5   83.69    4.40
   2   8  -5   88.39    4.50
   1   8  -5    0.10    0.80
   1   8  -5    0.80    1.20
   0   8  -5   36.70    3.10
   0   8  -5   35.90    2.70
  -1   8  -5    0.20    0.90
  -1   8  -5   -0.20    1.00
  -2   8  -5   30.30    2.30
  -3   8  -5   -0.10    0.60
  -5  -7   5   13.20    1.30
  -4  -7   5    0.60    0.70
   2   7  -5   44.20    3.30
   2   7  -5   49.30    3.70
   1   7  -5  316.87   11.70
   1   7  -5  310.57   11.30
   0   7  -5   37.60    2.90
   0   7  -5   36.20    2.90
  -1   7  -5   12.80    1.90
  -1   7  -5   10.90    1.70
  -2   7  -5    2.50    2.30
  -2   7  -5    0.60    1.10
  -3   7  -5   58.79    3.30
   5   6  -5    3.40    1.00
  -5  -6   5    2.00    1.00
   4   6  -5    7.50    1.60
  -4  -6   5    6.80    1.50
  -3  -6   5   79.49    4.00
   2   6  -5   18.90    1.70
   2   6  -5   11.60    1.70
   1   6  -5   80.49    4.20
   1   6  -5   74.79    4.30
   0   6  -5    3.50    1.30
   0   6  -5    3.00    0.90
  -1   6  -5    2.50    1.10
  -1   6  -5    2.80    1.10
  -2   6  -5   58.19    3.40
  -2   6  -5   58.19    5.40
  -2   6  -5   60.99    3.70
  -3   6  -5   16.60    3.60
  -3   6  -5   19.20    2.20
  -4   6  -5   -0.20    0.50
  -5  -5   5   47.50    2.60
  -4  -5   5   29.10    2.60
  -3  -5   5   22.30    2.00
   2   5  -5    9.20    1.10
   2   5  -5    9.60    1.60
  -2  -5   5   11.40    1.60
   1   5  -5    2.20    0.90
   1   5  -5    4.30    1.10
   0   5  -5    3.60    1.00
   0   5  -5    1.30    1.00
  -1   5  -5   48.50    3.10
  -1   5  -5   50.69    2.90
  -2   5  -5  157.38    6.40
  -2   5  -5  155.28    7.50
  -2   5  -5  148.49    6.50
  -3   5  -5   25.10    2.20
  -3   5  -5   23.60    3.40
  -4   5  -5    1.50    0.70
  -5  -4   5    1.90    0.90
  -4  -4   5   19.60    2.30
   3   4  -5    0.80    0.90
  -3  -4   5    0.90    0.90
   2   4  -5   48.70    2.40
   2   4  -5   49.40    3.00
  -2  -4   5   49.20    2.80
   1   4  -5   20.10    1.70
   1   4  -5   17.80    1.70
   0   4  -5  196.88    7.20
   0   4  -5  192.78    7.30
  -1   4  -5  374.76   12.60
  -1   4  -5  382.46   12.90
  -2   4  -5   20.20    1.80
  -2   4  -5   22.00    3.50
  -2   4  -5   22.00    2.30
  -3   4  -5   10.20    1.50
  -3   4  -5    9.50    2.30
  -4   4  -5    7.60    1.40
  -5  -3   5   27.70    2.00
  -5  -3   5   26.20    2.10
  -4  -3   5    8.40    1.60
   3   3  -5    0.90    0.90
  -3  -3   5    1.90    1.00
   2   3  -5  189.18    7.10
   2   3  -5  184.58    6.60
  -2  -3   5  188.38    6.80
  -1  -3   5  786.42   23.90
  -2   3  -5   24.10    2.90
  -2   3  -5   21.60    1.50
  -2   3  -5   23.40    1.90
  -3   3  -5   22.70    1.60
  -3   3  -5   20.70    3.20
  -3   3  -5   21.00    2.10
   3  -3   5   22.70    1.90
  -4   3  -5   -0.40    0.90
  -4   3  -5   -0.20    0.50
   4  -3   5    0.20    0.90
   5  -3   5    1.60    0.70
   5   2  -5   19.20    2.20
  -5  -2   5   14.70    1.70
   4   2  -5   24.90    2.10
  -4  -2   5   26.20    2.40
  -4  -2   5   26.90    2.40
   3   2  -5   95.89    4.00
   3   2  -5   88.49    4.20
  -3  -2   5   88.19    4.20
  -3  -2   5   89.99    4.20
   2   2  -5  172.28    6.20
  -2  -2   5  174.68    6.40
  -1  -2   5    3.90    0.70
  -2   2  -5   65.79    2.80
  -2   2  -5   68.69    3.90
  -3   2  -5   49.99    2.50
  -3   2  -5   52.49    3.70
  -3   2  -5   46.50    2.80
   3  -2   5   48.80    2.70
  -4   2  -5   33.60    2.10
   4  -2   5   36.10    2.50
  -5   2  -5   20.30    1.40
   5  -2   5   18.50    1.70
   5   1  -5   24.00    1.90
  -5  -1   5   22.00    2.10
   4   1  -5  156.08    6.30
  -4  -1   5  147.19    6.00
  -4  -1   5  150.98    6.10
   3   1  -5  113.79    4.90
   3   1  -5  119.69    4.80
  -3  -1   5  113.59    4.80
  -3  -1   5  121.09    5.00
   2   1  -5  126.99    9.00
   1   1  -5   44.60    4.40
  -1  -1   5   44.00    1.90
  -3   1  -5  352.76   11.20
   3  -1   5  340.47   11.50
  -4   1  -5   -0.30    0.70
   4  -1   5    0.10    0.70
  -5   1  -5   34.60    2.00
   5  -1   5   36.30    2.40
   5   0  -5   36.10    2.60
  -5   0   5   34.80    2.20
   4   0  -5   45.50    3.10
  -4   0   5   42.00    2.60
   3   0  -5   34.50    2.40
   3   0  -5   31.70    2.20
  -3   0   5   31.50    2.30
  -3   0   5   32.60    2.30
   2   0  -5  250.77    8.90
   2   0  -5  222.88   12.80
   1   0  -5    7.00    2.00
   0   0  -5  727.33   24.40
  -3   0  -5    1.00    0.70
   3   0   5    1.60    0.80
  -4   0  -5   14.80    1.70
   4   0   5   15.60    1.90
  -5   0  -5    8.40    1.20
   5   0   5    8.80    1.50
  -6   0  -5    1.60    0.50
   6   0   5    0.70    0.60
   5  -1  -5    3.60    1.00
  -5   1   5    1.00    1.00
   4  -1  -5  156.68    6.40
  -4   1   5  150.78    6.00
   3  -1  -5  192.48    7.20
  -3   1   5  189.98    6.90
   2  -1  -5  607.04   19.10
  -2   1   5  611.44   18.90
   1  -1  -5  956.60   33.50
   0  -1  -5 1763.62   55.59
  -3  -1  -5   13.80    1.40
  -3  -1  -5   14.10    1.30
   3   1   5   12.80    1.50
  -4  -1  -5   78.99    3.70
   4   1   5   79.09    3.90
  -5  -1  -5    8.00    1.20
   5   1   5   10.10    1.60
  -6  -1  -5   11.10    1.10
   6   1   5   10.70    1.20
   5  -2  -5   13.80    1.80
  -5   2   5   10.10    1.40
  -5   2   5    9.70    1.10
   4  -2  -5    1.10    0.90
  -4   2   5    1.10    0.80
   3  -2  -5  268.27    9.60
  -3   2   5  272.07    9.30
   2  -2  -5  378.36   12.70
  -2   2   5  401.46   14.00
  -2   2   5  380.46   12.40
   1  -2  -5  877.31   31.90
   0  -2  -5   78.39    5.80
  -1  -2  -5 1561.34   49.90
  -3  -2  -5   38.00    2.30
  -3  -2  -5   39.90    2.40
   3   2   5   37.60    2.40
  -4  -2  -5   -0.70    0.50
  -4  -2  -5    0.30    0.90
   4   2   5    0.60    0.70
  -5  -2  -5   90.89    4.10
   5   2   5   85.79    4.00
  -6  -2  -5    1.10    0.60
   6   2   5    1.50    0.90
  -5   3   5   64.29    3.00
   4  -3  -5   12.50    1.70
  -4   3   5   12.70    1.40
  -4   3   5   10.80    1.70
   3  -3  -5   63.69    3.50
  -3   3   5   61.79    3.20
   2  -3  -5  952.10   29.10
  -2   3   5  937.11   28.60
  -2   3   5  950.70   30.50
   0  -3  -5  133.19    8.30
  -1  -3  -5    6.10    2.10
  -3  -3  -5  196.38    7.10
  -3  -3  -5  200.18    7.20
   3   3   5  197.48    7.10
  -4  -3  -5  519.95   17.00
  -4  -3  -5  534.35   17.20
   4   3   5  533.45   17.10
  -5  -3  -5   10.20    1.40
  -5  -3  -5   10.70    1.60
   5   3   5   12.20    1.70
  -6  -3  -5    8.30    1.00
   4  -4  -5    0.70    1.00
  -4   4   5    2.60    0.60
  -4   4   5    1.70    1.10
   3  -4  -5  117.29    5.00
  -3   4   5  110.69    5.20
  -3   4   5  116.19    4.50
  -3   4   5  116.89    6.60
   2  -4  -5   72.29    3.70
  -2   4   5   70.09    4.90
  -2   4   5   71.69    3.20
  -2   4   5   86.29    4.00
   0  -4  -5   20.20    4.40
   0   4   5   33.60    2.10
  -1  -4  -5  182.88   10.60
  -2  -4  -5   15.90    1.40
  -3  -4  -5  130.59    5.30
  -4  -4  -5   22.80    2.00
  -4  -4  -5   25.30    2.30
  -5  -4  -5    3.60    1.00
  -5  -4  -5    2.00    1.20
  -6  -4  -5    3.60    0.80
   4  -5  -5   -0.20    0.80
  -4   5   5    0.60    0.70
   3  -5  -5    0.20    0.90
  -3   5   5   -0.40    1.50
  -3   5   5    0.80    1.10
   2  -5  -5    0.10    0.60
  -2   5   5    0.80    2.20
  -2   5   5   -0.20    0.60
   1  -5  -5   35.80    2.30
  -1   5   5   37.90    2.10
  -1   5   5   39.50    3.40
   0   5   5   24.50    1.80
   0   5   5   18.20    1.90
  -1  -5  -5   29.50    2.20
   1   5   5   40.80    2.50
  -2  -5  -5   17.10    1.50
  -3  -5  -5   93.29    4.20
  -4  -5  -5   12.50    1.60
  -5  -5  -5  107.19    4.70
  -2   6   5  102.09    5.20
  -2   6   5  105.59    6.20
  -1   6   5    6.00    1.70
  -1   6   5   11.40    1.70
   0   6   5   62.99    4.00
   0   6   5   58.29    3.80
  -1  -6  -5  160.18    6.20
   1   6   5  160.68    7.30
   1   6   5  166.08    7.00
  -2  -6  -5  226.38    8.10
   2   6   5  220.98    8.80
  -3  -6  -5  238.28    8.60
  -4  -6  -5   73.29    3.90
  -5  -6  -5   19.80    2.10
  -2   7   5   13.40    3.10
  -2   7   5   10.20    1.90
  -1   7   5  264.77   10.70
  -1   7   5  283.37   11.30
   0   7   5   75.69    4.60
   0   7   5   77.39    4.90
   1   7   5  616.94   21.20
   1   7   5  636.24   21.40
  -2  -7  -5  270.97    9.70
   2   7   5  281.67   11.00
   2   7   5  277.97   10.70
  -3  -7  -5   37.10    2.50
   3   7   5   36.80    3.40
   3   7   5   47.60    3.20
  -4  -7  -5   17.80    2.10
   4   7   5   14.70    2.20
  -5  -7  -5    3.80    0.90
  -2   8   5  143.69    6.90
  -2   8   5  119.99    5.70
  -1   8   5    3.80    2.20
  -1   8   5    3.80    1.30
   0   8   5  588.14   20.20
   0   8   5  591.54   20.50
   1   8   5   13.10    2.10
   1   8   5   13.00    2.30
   2   8   5   42.50    3.30
   2   8   5   38.90    3.40
  -3  -8  -5   16.20    1.90
   3   8   5   16.70    2.30
  -4  -8  -5   82.29    3.70
  -5  -8  -5    2.30    0.70
  -1   9   5  309.17   12.20
  -1   9   5  312.27   11.40
   0   9   5   63.59    4.30
   0   9   5   61.09    4.10
   1   9   5    5.70    1.60
   1   9   5    5.20    1.40
   2   9   5   26.60    2.70
   2   9   5   22.80    2.40
   3   9   5  117.09    5.50
   3   9   5  110.79    5.40
  -4  -9  -5   10.40    1.10
   0  10   5    4.90    2.00
   0  10   5    4.80    1.40
   1  10   5   39.50    3.40
   1  10   5   44.10    3.00
   2  10   5  100.69    4.80
   2  10   5   97.69    4.70
   3  10   5   33.70    2.80
   2   9  -6   -0.10    0.70
   1   9  -6   59.59    3.40
   1   9  -6   60.09    3.50
   0   9  -6    2.40    1.50
   0   9  -6    4.90    1.20
  -1   9  -6    0.90    0.80
  -1   9  -6    2.10    0.90
   3   8  -6    7.80    0.90
   2   8  -6   24.00    2.20
   1   8  -6   49.90    3.40
   1   8  -6   53.09    3.90
   0   8  -6  234.58    9.00
   0   8  -6  236.18    9.10
  -1   8  -6    9.80    1.80
  -1   8  -6    8.80    1.60
  -2   8  -6    1.70    0.80
  -4  -7   6    4.40    0.90
  -3  -7   6  123.79    5.10
   2   7  -6   46.60    3.60
   2   7  -6   42.40    3.20
   1   7  -6  119.69    5.70
   1   7  -6  116.59    5.50
   0   7  -6   23.40    2.70
   0   7  -6   25.70    2.60
  -1   7  -6   16.30    1.90
  -1   7  -6   13.70    2.10
  -2   7  -6   85.29    4.20
  -3   7  -6   74.09    3.60
  -4  -6   6   63.89    3.40
  -3  -6   6   31.10    2.60
   1   6  -6   11.50    2.00
   1   6  -6   11.10    1.70
   0   6  -6  156.98    6.50
   0   6  -6  157.18    7.00
  -1   6  -6   68.09    3.80
  -1   6  -6   70.59    4.20
  -2   6  -6    0.10    0.90
  -2   6  -6   -1.10    0.90
  -3   6  -6   92.39    4.40
  -5  -5   6    2.40    0.80
  -4  -5   6   38.60    2.90
  -3  -5   6   17.80    2.10
   1   5  -6   12.60    1.70
   1   5  -6   13.70    1.30
   1   5  -6   14.50    1.80
   0   5  -6   25.60    2.30
   0   5  -6   22.30    2.20
  -1   5  -6   64.89    3.90
  -1   5  -6   61.79    3.60
  -2   5  -6  283.87   10.50
  -2   5  -6  288.07   10.20
  -2   5  -6  270.77   11.00
  -3   5  -6    0.10    0.70
  -4   5  -6    4.50    1.10
  -5  -4   6   17.30    1.60
  -4  -4   6   33.50    2.80
   3   4  -6   32.80    2.40
  -3  -4   6   35.70    2.50
   2   4  -6   13.20    1.90
   2   4  -6   16.50    1.70
  -2  -4   6   13.80    1.70
   1   4  -6  290.37   10.20
   1   4  -6  276.47    9.40
   1   4  -6  293.77   10.20
  -1  -4   6  286.57    9.80
   0   4  -6  112.89    4.20
   0   4  -6  113.89    5.00
   0   4  -6  116.19    5.20
  -1   4  -6   12.50    1.80
  -1   4  -6   10.80    1.40
  -2   4  -6   56.79    3.40
  -2   4  -6   56.19    4.40
  -2   4  -6   61.99    3.80
  -3   4  -6    5.70    1.30
  -4   4  -6    6.40    1.20
  -5  -3   6   58.69    2.90
  -4  -3   6   36.80    2.60
   3   3  -6    1.10    0.80
  -3  -3   6    0.50    1.00
   2   3  -6   78.09    3.50
  -2  -3   6   78.19    3.80
  -1  -3   6    3.50    1.00
   0   3  -6  365.76   12.40
   0   3  -6  346.07   11.50
   0   3  -6  355.96   12.20
   0  -3   6  392.56   12.20
  -1   3  -6  152.28    5.20
  -1   3  -6  150.68    5.90
   1  -3   6  142.29    5.50
  -2   3  -6    1.40    0.60
  -2   3  -6    0.60    0.60
   2  -3   6    1.40    0.80
  -3   3  -6   60.49    3.50
  -3   3  -6   64.89    2.80
  -3   3  -6   65.79    3.80
   3  -3   6   62.99    3.30
   4  -3   6    0.40    0.90
  -5  -2   6   31.20    1.90
  -5  -2   6   36.00    2.20
   4   2  -6    1.40    1.10
  -4  -2   6    2.50    1.20
  -4  -2   6    4.40    1.40
   3   2  -6   51.99    3.00
   3   2  -6   52.59    3.10
  -3  -2   6   51.79    3.00
  -3  -2   6   52.79    3.20
   2   2  -6  112.49    4.60
  -2  -2   6  115.69    4.80
   1   2  -6   17.90    1.50
   1   2  -6   17.60    1.80
  -1  -2   6   22.70    1.50
  -1  -2   6   17.50    1.60
  -1   2  -6  119.59    4.40
  -2   2  -6  281.27    9.30
   2  -2   6  285.17    9.60
  -3   2  -6   33.30    2.00
   3  -2   6   30.20    2.30
  -4   2  -6  359.76   11.60
   4  -2   6  365.66   12.30
   5  -2   6    4.50    1.00
   5   1  -6   46.50    2.50
  -5  -1   6   49.00    2.50
   4   1  -6  127.79    5.50
  -4  -1   6  122.29    5.20
  -4  -1   6  130.29    5.50
   3   1  -6  262.87    9.30
   3   1  -6  266.27    9.40
  -3  -1   6  262.37    9.30
  -3  -1   6  262.37    9.40
   2   1  -6    2.50    1.00
   2   1  -6    2.80    0.90
  -2  -1   6    2.70    0.90
  -2  -1   6    3.20    1.00
  -2   1  -6   11.50    1.10
   2  -1   6   10.90    1.20
  -3   1  -6  369.86   12.10
   3  -1   6  377.36   12.40
  -4   1  -6    4.20    0.90
   4  -1   6    5.20    1.30
  -5   1  -6   29.80    1.80
   5  -1   6   32.90    2.20
   5   0  -6    1.30    0.90
  -5   0   6    3.60    0.90
   4   0  -6  151.88    6.40
  -4   0   6  168.48    6.40
   3   0  -6  325.97   11.40
   3   0  -6  329.37   11.30
  -3   0   6  342.47   11.30
  -3   0   6  327.07   11.30
   2   0  -6  231.68    8.20
   2   0  -6  231.48    8.30
  -2   0   6  244.98    8.30
  -2   0   6  236.28    8.30
   1   0  -6   37.90    4.60
  -2   0  -6  260.57    8.70
   2   0   6  261.87    8.90
  -3   0  -6   30.70    2.10
   3   0   6   29.70    2.20
  -4   0  -6   13.00    1.40
   4   0   6   14.60    1.80
  -5   0  -6   10.30    1.20
   5   0   6   10.70    1.40
   5  -1  -6   31.00    2.00
  -5   1   6   31.40    2.00
   4  -1  -6  107.09    5.00
  -4   1   6  111.59    4.60
   3  -1  -6   18.20    2.10
  -3   1   6   18.70    1.90
   2  -1  -6    1.60    0.90
   2  -1  -6    1.60    0.90
  -2   1   6    1.60    0.90
  -2   1   6    2.30    0.80
   1  -1  -6   99.59    4.20
   1  -1  -6  110.39    7.80
  -2  -1  -6   50.69    2.70
  -2  -1  -6   47.80    2.40
   2   1   6   47.90    2.60
  -3  -1  -6   27.20    2.00
  -3  -1  -6   24.80    2.10
   3   1   6   27.20    2.10
  -4  -1  -6   29.90    2.10
   4   1   6   29.10    2.40
  -5  -1  -6   18.80    1.70
   5   1   6   16.80    2.00
   5  -2  -6   26.00    1.70
  -5   2   6   22.70    1.70
  -5   2   6   29.00    1.60
   4  -2  -6  100.19    4.70
  -4   2   6   95.79    4.10
   3  -2  -6   22.30    2.30
  -3   2   6   20.00    1.70
   2  -2  -6   59.49    3.10
  -2   2   6   56.19    4.00
  -2   2   6   56.39    2.80
   1  -2  -6   19.10    1.50
   0  -2  -6   47.40    4.90
  -2  -2  -6   26.90    2.00
  -2  -2  -6   23.20    1.80
   2   2   6   24.80    1.80
  -3  -2  -6   51.99    2.70
  -3  -2  -6   50.59    2.90
   3   2   6   53.99    2.90
  -4  -2  -6    9.80    1.50
  -4  -2  -6   11.10    1.40
   4   2   6    9.30    1.50
  -5  -2  -6    7.20    1.30
   5   2   6    7.70    1.30
  -6  -2  -6    0.90    0.50
   4  -3  -6   41.60    2.60
  -4   3   6   39.60    2.30
   3  -3  -6    9.10    1.50
  -3   3   6    5.20    1.00
   2  -3  -6    1.20    0.70
  -2   3   6    1.10    1.20
  -2   3   6    0.60    0.80
   1  -3  -6   99.69    4.20
   0  -3  -6  237.28    8.30
   0  -3  -6  245.38   12.90
  -1  -3  -6   27.00    1.90
  -2  -3  -6   18.30    1.80
  -2  -3  -6   16.80    1.70
   2   3   6   17.60    1.70
  -3  -3  -6    2.20    1.00
  -3  -3  -6    3.30    0.90
  -4  -3  -6    2.20    0.90
  -4  -3  -6    1.10    0.90
   4   3   6    1.10    0.80
  -5  -3  -6    1.40    1.00
  -5  -3  -6    2.40    0.90
  -6  -3  -6   28.70    1.60
   4  -4  -6   48.50    2.60
  -4   4   6   41.90    1.90
  -4   4   6   42.10    2.40
   3  -4  -6   15.20    1.80
  -3   4   6   14.10    1.60
  -3   4   6   16.60    1.90
   2  -4  -6   27.60    2.20
  -2   4   6   26.90    3.20
  -2   4   6   27.50    2.00
   1  -4  -6   23.50    2.00
  -1   4   6   23.20    2.90
   0  -4  -6  115.19    4.80
   0   4   6  128.79    5.40
  -1  -4  -6   12.10    1.50
  -2  -4  -6  299.97   10.30
  -3  -4  -6  278.97    9.90
  -4  -4  -6   16.60    1.70
  -4  -4  -6   16.80    2.10
  -5  -4  -6   53.39    2.90
  -5  -4  -6   53.39    2.90
   4  -5  -6   18.10    1.40
   3  -5  -6    3.80    1.10
   2  -5  -6   13.40    1.80
  -2   5   6   13.60    1.20
  -2   5   6   12.40    2.60
   1  -5  -6  392.66   13.30
  -1   5   6  407.56   14.90
  -1   5   6  430.76   13.00
  -1   5   6  388.66   14.10
   0  -5  -6    0.80    0.80
   0   5   6    2.70    1.10
  -1  -5  -6  239.08    8.60
  -2  -5  -6  389.66   13.00
  -3  -5  -6  275.87    9.80
  -4  -5  -6  114.69    5.10
  -5  -5  -6   56.49    2.90
   3  -6  -6    0.50    0.70
   2  -6  -6   21.20    2.00
  -2   6   6   19.10    3.00
  -2   6   6   28.00    2.00
  -1   6   6    6.60    1.30
  -1   6   6    6.60    2.30
   0  -6  -6  421.96   14.10
   0   6   6  445.86   15.50
   0   6   6  421.26   15.30
  -1  -6  -6  148.39    6.00
   1   6   6  149.79    7.00
  -2  -6  -6 1124.99   34.50
  -3  -6  -6  412.16   13.80
  -4  -6  -6   26.90    2.40
  -5  -6  -6   55.39    2.80
  -2   7   6    0.00    2.10
  -1   7   6  363.06   13.70
  -1   7   6  335.77   12.70
   0   7   6  127.29    6.20
   0   7   6  127.79    6.40
  -1  -7  -6  765.72   24.00
   1   7   6  796.32   25.60
   1   7   6  740.43   25.20
  -2  -7  -6   60.59    3.20
   2   7   6   58.09    4.00
  -3  -7  -6   75.39    3.80
   3   7   6   70.99    4.40
  -4  -7  -6   50.09    3.00
   4   7   6   44.10    3.10
  -5  -7  -6    3.70    0.80
  -2   8   6   56.99    3.00
  -2   8   6   64.09    4.20
  -1   8   6   26.50    2.50
  -1   8   6   33.10    3.70
   0   8   6  220.08    9.20
   0   8   6  217.18    9.00
   1   8   6   10.20    2.00
   1   8   6   12.60    1.90
  -2  -8  -6   61.59    3.30
   2   8   6   63.29    4.10
   2   8   6   63.59    4.00
  -3  -8  -6   14.00    1.80
   3   8   6   12.10    1.80
  -4  -8  -6    1.60    0.90
   4   8   6    1.40    0.80
  -1   9   6   12.40    2.50
  -1   9   6   10.70    1.40
   0   9   6    0.00    0.80
   0   9   6   -0.30    1.70
   1   9   6    0.30    0.80
   1   9   6    0.20    1.50
   2   9   6    1.90    1.00
   2   9   6    2.80    1.10
  -3  -9  -6    2.30    0.70
   3   9   6    2.30    1.20
   1  10   6    0.20    1.80
   1  10   6   -0.10    1.00
   2  10   6    3.30    0.80
   2   9  -7    5.80    1.00
   1   9  -7   -0.20    0.80
   1   9  -7   -0.50    0.70
   0   9  -7    3.40    0.90
   0   9  -7    4.10    1.10
   2   8  -7    2.20    0.90
   1   8  -7   14.50    2.10
   1   8  -7   11.70    2.10
   0   8  -7    0.60    1.30
   0   8  -7    1.30    1.20
  -1   8  -7   10.20    1.50
  -1   8  -7   11.00    1.60
  -2   8  -7    0.00    0.70
  -4  -7   7    5.20    0.90
  -3  -7   7   19.60    1.90
   2   7  -7  145.29    6.30
   1   7  -7   17.20    2.40
   1   7  -7   14.40    2.30
   0   7  -7   14.70    1.90
   0   7  -7   18.40    2.20
  -1   7  -7   19.40    2.40
  -1   7  -7   19.70    2.40
  -2   7  -7   14.20    1.70
  -2   7  -7   16.50    1.70
  -4  -6   7   10.50    1.30
  -3  -6   7  421.36   13.90
   2   6  -7   36.90    2.30
   1   6  -7   37.20    2.90
   1   6  -7   38.40    3.00
   0   6  -7   82.69    4.70
   0   6  -7   85.29    4.60
  -1   6  -7   35.40    2.80
  -1   6  -7   36.60    2.90
  -2   6  -7    2.20    1.20
  -2   6  -7    3.30    1.40
  -3   6  -7   16.90    1.60
  -4  -5   7  216.88    7.80
  -3  -5   7  177.18    6.90
   2   5  -7  388.46   12.50
   2   5  -7  385.26   13.20
  -2  -5   7  385.46   13.10
   1   5  -7  125.39    5.90
   1   5  -7  135.29    5.90
   1   5  -7  121.79    4.70
  -1  -5   7  126.59    5.30
   0   5  -7    0.60    0.80
   0   5  -7    0.50    1.10
  -1   5  -7   56.29    3.60
  -1   5  -7   58.99    3.50
  -2   5  -7   55.09    3.30
  -2   5  -7   58.89    3.60
  -3   5  -7   20.30    1.90
  -5  -4   7  331.47   11.10
  -4  -4   7  152.58    6.00
   3   4  -7   62.79    3.20
  -3  -4   7   63.19    3.70
   2   4  -7   70.59    3.40
  -2  -4   7   71.79    3.80
   1   4  -7   10.30    1.30
   1   4  -7    7.60    1.50
  -1  -4   7   11.70    1.60
   0   4  -7  621.94   19.10
   0   4  -7  626.04   20.40
   0   4  -7  630.74   20.10
   0  -4   7  600.74   19.50
  -1   4  -7  513.85   15.90
  -1   4  -7  518.45   16.90
  -1   4  -7  526.15   17.40
   1  -4   7  495.85   16.40
  -2   4  -7   18.10    2.10
  -2   4  -7   16.00    2.00
   2  -4   7   15.80    1.70
  -3   4  -7    3.00    1.40
  -3   4  -7    1.30    1.10
   3  -4   7    2.40    1.00
   4  -4   7    2.00    0.70
  -5  -3   7   22.00    1.40
  -4  -3   7    4.20    1.30
   3   3  -7  185.68    6.90
  -3  -3   7  173.38    7.00
   2   3  -7  124.89    5.20
  -2  -3   7  129.89    5.40
   1   3  -7  448.86   14.70
   1   3  -7  434.16   14.00
   1   3  -7  429.76   14.60
  -1  -3   7  442.86   14.30
   0   3  -7  129.99    5.50
   0   3  -7  129.29    5.70
   0   3  -7  129.09    4.90
   0  -3   7  127.29    5.10
  -1   3  -7   97.59    4.90
  -1   3  -7   97.09    4.40
  -1   3  -7  101.79    3.90
   1  -3   7   96.69    4.20
  -2   3  -7   15.50    2.00
  -2   3  -7   15.80    2.30
  -2   3  -7   13.70    1.40
   2  -3   7   17.10    1.70
  -3   3  -7   11.20    1.20
  -3   3  -7   12.30    1.70
  -5  -2   7    0.30    0.70
  -4  -2   7   57.99    3.40
  -4  -2   7   58.39    3.10
   3   2  -7    0.80    1.00
  -3  -2   7    1.50    1.20
  -3  -2   7    0.40    1.10
   2   2  -7  121.79    4.90
  -2  -2   7  110.49    4.80
   0   2  -7  496.15   16.30
   0   2  -7  496.95   15.80
   0  -2   7  517.65   16.10
  -1   2  -7   49.99    3.70
  -1   2  -7   40.30    2.30
   1  -2   7   44.20    2.50
  -2   2  -7  398.26   12.60
   2  -2   7  388.26   12.90
  -3   2  -7   15.10    1.50
   3  -2   7   14.40    1.70
  -4   2  -7   76.09    3.20
   5  -2   7    5.10    0.90
  -5  -1   7    4.10    0.80
   4   1  -7    0.20    1.00
  -4  -1   7    0.70    1.00
  -4  -1   7    0.50    0.80
   3   1  -7  165.28    6.30
   3   1  -7  155.28    6.40
  -3  -1   7  169.38    6.40
  -3  -1   7  160.88    6.50
   2   1  -7   32.40    2.30
   2   1  -7   30.90    2.10
  -2  -1   7   30.80    2.50
  -2  -1   7   30.70    2.30
   1   1  -7   14.70    1.40
   1   1  -7   15.80    1.70
  -1  -1   7   14.20    1.60
   0   1  -7    6.70    1.00
   0  -1   7    6.20    1.10
  -1   1  -7  388.96   12.60
   1  -1   7  395.36   12.80
  -2   1  -7    7.10    1.10
   2  -1   7    5.90    1.10
  -3   1  -7   15.00    1.60
   3  -1   7    8.80    1.50
  -4   1  -7   -0.20    0.80
   4  -1   7    0.00    1.00
  -5   1  -7   14.30    1.10
  -5   0   7    3.80    0.80
   4   0  -7    2.90    1.30
  -4   0   7    1.80    0.90
   3   0  -7    0.20    1.10
   3   0  -7    0.30    1.00
  -3   0   7    1.00    1.00
  -3   0   7   -0.70    1.00
   2   0  -7  199.78    7.40
   2   0  -7  207.98    7.50
  -2   0   7  201.18    7.50
  -2   0   7  205.28    7.50
   1   0  -7   16.70    1.70
   1   0  -7   17.50    1.60
  -1   0   7   17.60    1.80
   0   0  -7    1.00    0.70
   0   0  -7    1.40    0.80
   0   0   7    1.00    0.70
  -1   0  -7   13.20    1.60
  -1   0  -7   14.60    1.30
   1   0   7   15.10    1.50
  -2   0  -7    3.40    0.90
   2   0   7    4.20    1.00
  -3   0  -7   35.10    2.20
   3   0   7   35.50    2.30
  -4   0  -7   25.60    2.10
   4   0   7   24.40    2.40
  -5   0  -7   34.20    1.90
   4  -1  -7  124.79    5.30
  -4   1   7  131.59    5.20
   3  -1  -7  111.99    5.20
   3  -1  -7  118.39    5.20
  -3   1   7  124.39    4.90
   2  -1  -7   20.70    1.80
   2  -1  -7   21.00    1.80
  -2   1   7   21.10    2.00
  -2   1   7   23.20    2.00
   1  -1  -7   17.40    1.70
   1  -1  -7   16.60    1.70
  -1   1   7   17.10    1.70
   0  -1  -7   11.00    1.40
   0  -1  -7   10.60    1.20
   0   1   7   10.50    1.30
  -1  -1  -7  264.57    9.10
  -1  -1  -7  261.67    8.90
   1   1   7  270.97    9.10
  -2  -1  -7  253.37    8.50
  -2  -1  -7  241.28    8.60
   2   1   7  244.88    8.60
  -3  -1  -7   77.79    3.50
  -3  -1  -7   71.69    3.70
  -4  -1  -7   37.10    2.50
   4   1   7   38.20    2.50
  -5  -1  -7   13.60    1.40
   4  -2  -7   75.39    3.80
  -4   2   7   78.99    3.40
   3  -2  -7  294.17   10.50
  -3   2   7  299.57   10.10
   2  -2  -7   99.89    4.60
  -2   2   7  102.59    4.40
   1  -2  -7    9.80    1.30
  -1   2   7    8.20    1.20
   0  -2  -7  387.36   12.80
   0  -2  -7  404.86   13.00
   0   2   7  400.16   12.90
  -1  -2  -7   77.99    3.50
  -1  -2  -7   74.59    3.50
   1   2   7   74.59    3.50
  -2  -2  -7   40.80    2.60
  -2  -2  -7   36.90    2.40
   2   2   7   43.10    2.40
  -3  -2  -7  188.98    7.00
  -3  -2  -7  186.68    7.10
   3   2   7  185.18    7.00
  -4  -2  -7   76.39    3.60
  -4  -2  -7   71.69    3.70
  -5  -2  -7  256.37    8.80
   5   2   7  265.07    9.00
   4  -3  -7  280.57    9.10
  -4   3   7  249.48    8.50
   3  -3  -7   37.20    2.60
  -3   3   7   38.80    2.30
   2  -3  -7    2.60    0.90
  -2   3   7    5.00    1.00
   1  -3  -7  186.58    7.00
  -1  -3  -7   77.19    3.60
   1   3   7   75.99    3.50
  -2  -3  -7  163.68    6.40
  -2  -3  -7  161.38    6.20
   2   3   7  171.98    6.30
  -3  -3  -7   12.20    1.50
  -3  -3  -7   17.00    2.00
   3   3   7   14.30    1.50
  -4  -3  -7  620.84   19.80
  -4  -3  -7  620.74   20.00
   4   3   7  638.64   19.90
  -5  -3  -7   55.89    2.70
   5   3   7   48.50    2.50
   4  -4  -7   13.50    1.30
   3  -4  -7    0.60    0.80
  -3   4   7   -0.20    0.80
   2  -4  -7  208.48    7.50
  -2   4   7  197.38    8.50
  -2   4   7  193.18    7.00
   1  -4  -7   16.00    1.80
  -1  -4  -7   22.10    2.00
  -2  -4  -7    5.80    1.30
  -3  -4  -7 1152.68   35.30
  -4  -4  -7    4.80    1.10
  -4  -4  -7    6.10    1.30
  -5  -4  -7  354.36   11.50
  -5  -4  -7  347.97   11.50
   3  -5  -7    2.90    0.80
   2  -5  -7   30.50    2.40
  -2   5   7   30.70    1.80
  -2   5   7   25.20    3.00
   1  -5  -7   18.10    2.00
  -1   5   7   16.10    1.50
   0  -5  -7   68.19    3.60
   0   5   7   70.49    3.90
  -1  -5  -7   65.49    3.40
   1   5   7   67.99    4.10
  -2  -5  -7  428.56   14.30
  -3  -5  -7  293.17   10.40
  -4  -5  -7  329.77   11.40
  -5  -5  -7    5.30    1.00
   3  -6  -7   44.20    2.30
   2  -6  -7   15.30    1.80
  -2   6   7   10.60    2.20
   1  -6  -7   12.10    1.50
  -1   6   7   14.30    1.40
  -1   6   7    9.80    2.30
   0  -6  -7  149.09    6.00
   0   6   7  146.29    6.70
  -1  -6  -7  126.79    5.30
   1   6   7  125.39    6.30
  -2  -6  -7  336.77   11.70
   2   6   7  336.87   12.70
  -3  -6  -7   61.19    3.50
  -4  -6  -7    5.00    1.20
  -5  -6  -7   15.30    1.40
   5   6   7   23.30    1.80
   1  -7  -7   92.49    4.00
  -1   7   7   88.89    4.70
  -1   7   7   87.09    5.40
   0  -7  -7   81.69    3.80
   0   7   7   80.19    4.50
   0   7   7   69.99    4.80
  -1  -7  -7   31.90    2.50
   1   7   7   31.10    3.00
  -2  -7  -7   63.29    3.30
   2   7   7   61.89    4.00
  -3  -7  -7   10.80    1.60
   3   7   7   12.70    1.90
  -4  -7  -7    1.30    0.80
   4   7   7    1.00    0.90
  -1   8   7    0.60    1.80
  -1   8   7    0.30    0.70
   0   8   7    5.20    2.40
   0   8   7   10.20    1.60
  -1  -8  -7    4.20    1.10
   1   8   7    3.40    1.40
  -2  -8  -7    0.70    0.90
   2   8   7    1.50    1.00
  -3  -8  -7   16.80    1.50
   3   8   7   15.50    1.90
   4   8   7    2.80    0.80
   0   9   7   34.30    4.30
   0   9   7   26.70    2.30
   1   9   7   97.99    4.80
   2   9   7    3.50    1.10
   3   9   7    6.10    1.10
   2   8  -8   35.40    2.10
   1   8  -8   57.59    3.10
   0   8  -8   50.59    3.30
   0   8  -8   43.50    2.70
  -1   8  -8   32.00    2.20
  -1   8  -8   27.00    2.00
  -3  -7   8    0.30    0.60
   2   7  -8  144.79    5.70
   1   7  -8   11.50    1.70
   1   7  -8   12.60    1.90
   0   7  -8    6.30    1.80
   0   7  -8    8.30    1.60
  -1   7  -8   19.00    2.50
  -1   7  -8   18.30    2.20
  -2   7  -8   -0.10    0.70
  -2   7  -8    0.30    1.00
  -3  -6   8   59.99    3.00
   1   6  -8   34.30    2.70
   1   6  -8   33.40    2.70
   0   6  -8    1.60    1.10
   0   6  -8    1.90    1.30
  -1   6  -8    6.20    1.70
  -1   6  -8    4.90    1.20
  -2   6  -8   10.80    1.50
  -2   6  -8   11.00    1.60
  -4  -5   8   44.10    2.40
  -3  -5   8   37.50    2.50
   2   5  -8   15.80    1.60
  -2  -5   8   13.40    1.80
   1   5  -8    8.40    1.40
   1   5  -8    5.40    1.50
   1   5  -8    4.60    0.80
  -1  -5   8    7.60    1.40
   0   5  -8   36.30    3.00
   0   5  -8   35.30    3.00
   0  -5   8   35.70    2.30
  -1   5  -8   20.00    2.20
  -1   5  -8   17.80    2.00
  -2   5  -8  225.68    8.50
  -2   5  -8  214.08    8.10
  -4  -4   8    6.00    1.10
  -3  -4   8    1.90    1.20
   2   4  -8   -0.50    0.80
  -2  -4   8    0.70    1.10
   1   4  -8  263.67    8.80
   1   4  -8  263.67    9.70
   1   4  -8  256.27    9.50
  -1  -4   8  249.88    9.20
   0   4  -8   76.39    3.30
   0   4  -8   71.99    3.90
   0   4  -8   80.69    4.20
   0  -4   8   72.49    3.60
  -1   4  -8  231.98    8.80
  -1   4  -8  249.48    9.30
  -1   4  -8  233.18    7.80
   1  -4   8  232.28    8.40
  -2   4  -8    0.70    1.00
  -2   4  -8    1.70    1.40
   2  -4   8    0.40    0.90
  -3   4  -8   37.80    2.80
   3  -4   8   40.70    2.40
  -4  -3   8   13.30    1.40
   3   3  -8    6.20    1.20
  -3  -3   8    4.50    1.40
   2   3  -8  272.07    9.40
  -2  -3   8  269.77    9.70
   1   3  -8   22.10    2.30
   1   3  -8   23.30    1.70
  -1  -3   8   22.10    2.10
   0   3  -8  118.89    5.30
   0   3  -8  109.99    5.40
   0   3  -8  119.69    4.60
   0  -3   8  117.49    4.90
  -1   3  -8   65.49    3.70
  -1   3  -8   65.49    3.10
  -1   3  -8   68.29    3.90
   1  -3   8   66.39    3.40
  -2   3  -8   55.39    2.60
  -2   3  -8   58.39    3.60
   2  -3   8   55.89    3.00
  -3   3  -8   47.60    2.30
  -3   3  -8   46.90    3.30
   3  -3   8   48.40    2.80
   4  -3   8   18.40    1.70
  -4  -2   8   48.70    2.70
  -4  -2   8   51.29    2.80
   3   2  -8  114.19    4.80
  -3  -2   8  104.29    4.70
   2   2  -8    2.30    1.10
  -2  -2   8    3.90    1.20
   1   2  -8   39.80    2.50
  -1  -2   8   39.70    2.50
   0   2  -8  127.19    5.10
   0   2  -8  124.29    5.50
   0   2  -8  135.69    5.70
   0  -2   8  130.29    5.30
  -1   2  -8   81.19    3.60
   1  -2   8   83.99    3.90
  -2   2  -8  126.79    4.80
   2  -2   8  123.99    5.20
  -3   2  -8   24.80    2.50
  -3   2  -8   25.40    1.70
   3  -2   8   25.90    2.00
  -4   2  -8   19.30    1.40
   4  -2   8   20.70    1.70
  -4  -1   8   25.70    1.90
  -4  -1   8   23.30    1.70
   3   1  -8   64.49    3.40
  -3  -1   8   60.49    3.20
  -3  -1   8   59.69    3.20
   2   1  -8  156.38    6.20
   2   1  -8  165.18    6.20
  -2  -1   8  157.98    6.30
  -2  -1   8  158.68    6.30
   1   1  -8 1301.77   39.50
  -1  -1   8 1320.97   39.80
   0   1  -8    0.80    0.60
   0  -1   8    0.00    0.80
  -1   1  -8   20.90    1.80
   1  -1   8   20.60    1.90
  -2   1  -8   60.39    3.10
   2  -1   8   60.89    3.20
  -3   1  -8    5.00    1.00
   3  -1   8    4.90    1.20
  -4   1  -8   19.00    1.70
  -4   1  -8   18.50    1.80
   4  -1   8   20.80    1.80
   5  -1   8   21.60    1.50
  -4   0   8  155.38    5.70
   3   0  -8  117.89    5.10
   3   0  -8  127.29    5.20
  -3   0   8  116.19    5.00
  -3   0   8  117.89    5.10
   2   0  -8  598.74   19.30
   2   0  -8  608.24   19.40
  -2   0   8  612.84   19.30
  -2   0   8  617.64   19.50
   1   0  -8   18.00    1.90
   1   0  -8   17.70    1.60
  -1   0   8   18.30    1.90
   0   0  -8  154.18    5.80
   0   0  -8  152.18    5.90
   0   0   8  152.58    5.90
  -1   0  -8  146.29    5.50
  -1   0  -8  136.79    5.50
   1   0   8  138.29    5.50
  -2   0  -8    0.70    0.60
   2   0   8    0.40    0.90
  -3   0  -8   33.80    2.40
   3   0   8   35.70    2.50
  -4   0  -8   19.70    1.70
   4   0   8   21.50    1.90
  -5   0  -8    0.10    0.50
   5   0   8    0.20    0.60
   4  -1  -8   68.49    3.40
  -4   1   8   88.99    3.60
   3  -1  -8  190.68    7.20
   3  -1  -8  181.58    7.00
  -3   1   8  192.68    6.90
   2  -1  -8  426.76   14.30
   2  -1  -8  431.56   14.30
  -2   1   8  451.35   14.20
  -2   1   8  420.46   14.20
   1  -1  -8   91.99    4.30
   1  -1  -8   91.69    4.10
  -1   1   8   93.59    4.20
   0  -1  -8   23.10    2.10
   0  -1  -8   25.50    2.00
   0   1   8   25.00    2.00
  -1  -1  -8   20.10    1.60
  -1  -1  -8   17.90    1.80
   1   1   8   18.10    1.90
  -2  -1  -8    9.50    1.40
  -2  -1  -8    5.00    1.10
   2   1   8    9.20    1.40
  -3  -1  -8    0.70    0.90
   3   1   8   -0.40    0.90
  -4  -1  -8    6.00    1.10
   4   1   8    5.30    1.20
  -5  -1  -8   13.50    1.20
   5   1   8    9.90    1.20
   4  -2  -8   -0.10    0.70
  -4   2   8    0.50    0.80
   3  -2  -8  143.89    5.90
  -3   2   8  147.89    5.60
   2  -2  -8    0.20    0.80
  -2   2   8    0.10    0.90
   1  -2  -8    4.30    1.00
   1  -2  -8    3.40    1.10
  -1   2   8    2.70    1.00
   0  -2  -8   18.00    1.90
   0  -2  -8   14.90    1.80
   0   2   8   17.60    1.80
  -1  -2  -8  209.58    7.70
  -1  -2  -8  209.48    7.70
   1   2   8  219.88    7.80
  -2  -2  -8   30.80    2.20
  -2  -2  -8   32.20    2.30
   2   2   8   31.80    2.20
  -3  -2  -8   49.70    3.00
  -3  -2  -8   48.10    2.90
   3   2   8   49.70    3.00
  -4  -2  -8   38.00    2.60
   4   2   8   36.10    2.40
  -5  -2  -8  150.68    5.30
   5   2   8  142.69    5.30
  -4   3   8   29.20    1.80
   3  -3  -8   34.30    2.60
  -3   3   8   32.90    2.10
   2  -3  -8  101.89    4.60
  -2   3   8  105.39    4.30
   1  -3  -8   22.30    2.00
   0  -3  -8   89.09    4.10
  -1  -3  -8   12.60    1.50
  -1  -3  -8   12.80    1.60
   1   3   8   10.30    1.40
  -2  -3  -8   34.00    2.50
  -2  -3  -8   36.50    2.40
   2   3   8   35.00    2.30
  -3  -3  -8   27.00    2.20
  -3  -3  -8   23.90    1.90
   3   3   8   22.60    2.10
  -4  -3  -8  226.88    8.30
  -4  -3  -8  238.58    8.30
   4   3   8  236.88    8.30
  -5  -3  -8    0.40    0.60
   3  -4  -8   24.70    1.90
  -3   4   8   24.60    1.50
   2  -4  -8   -0.70    1.10
  -2   4   8    0.30    0.60
   1  -4  -8  185.98    7.10
  -1   4   8  182.18    6.70
   0  -4  -8  173.08    6.70
   0   4   8  160.38    6.90
  -1  -4  -8   12.60    1.60
  -2  -4  -8    2.70    1.20
  -3  -4  -8  117.99    5.20
  -3  -4  -8  109.49    4.90
  -4  -4  -8   11.90    1.60
  -4  -4  -8   13.30    1.60
  -5  -4  -8   17.60    1.70
   3  -5  -8    0.80    0.60
   2  -5  -8    8.20    1.30
  -2   5   8   10.50    1.20
   1  -5  -8   32.70    2.40
  -1   5   8   34.90    2.20
   0  -5  -8    4.60    1.40
  -1  -5  -8   38.90    2.60
   1   5   8   45.20    3.20
  -2  -5  -8    0.30    1.10
  -3  -5  -8   13.60    1.70
  -4  -5  -8   19.90    1.80
   2  -6  -8    0.40    0.60
   1  -6  -8   23.00    1.90
  -1   6   8   23.10    1.50
   0  -6  -8    6.90    1.20
  -1  -6  -8    0.50    1.10
   1   6   8    1.40    1.00
  -2  -6  -8   66.19    3.50
   2   6   8   54.49    3.70
  -3  -6  -8  132.99    5.50
  -4  -6  -8  106.39    4.40
  -1   7   8   13.40    1.10
   0  -7  -8    2.50    0.80
   0   7   8    4.90    1.30
  -1  -7  -8  149.19    5.80
   1   7   8  153.08    6.80
  -2  -7  -8   64.19    3.20
   2   7   8   63.19    3.90
  -3  -7  -8   33.60    2.20
   3   7   8   31.70    2.60
  -4  -7  -8    0.80    0.60
   4   7   8    0.50    0.70
   0  -8  -8   13.80    1.30
   0   8   8   12.80    1.50
  -1  -8  -8    2.60    0.70
   1   8   8    2.00    1.00
  -2  -8  -8   19.00    1.70
   2   8   8   17.50    2.20
  -3  -8  -8    0.20    0.60
   3   8   8    0.70    1.00
   1   7  -9   23.50    1.80
   0   7  -9    1.40    1.20
   0   7  -9    1.70    0.90
  -1   7  -9    9.70    1.30
  -1   7  -9    9.90    1.40
  -3  -6   9    0.60    0.60
  -2  -6   9   20.80    1.70
   1   6  -9   48.20    2.90
  -1  -6   9   49.90    2.60
   0   6  -9    0.80    0.90
   0   6  -9    0.50    0.90
  -1   6  -9    2.90    1.10
  -1   6  -9    2.40    1.30
  -2   6  -9   24.20    2.10
  -2   6  -9   18.70    1.70
  -3  -5   9   65.59    3.10
  -2  -5   9   31.50    2.40
   1   5  -9    0.80    1.10
  -1  -5   9    0.30    0.70
   0   5  -9    4.40    1.50
   0   5  -9    5.70    1.20
   0  -5   9    7.50    1.30
  -1   5  -9    0.70    0.90
  -1   5  -9   -0.10    1.10
  -2   5  -9   68.09    3.50
  -3  -4   9    3.80    1.00
   2   4  -9   21.00    1.90
  -2  -4   9   21.10    2.20
   1   4  -9   24.70    1.70
  -1  -4   9   26.70    2.30
   0   4  -9   42.50    3.20
   0   4  -9   46.20    2.40
   0  -4   9   40.90    2.60
  -1   4  -9  104.49    5.20
  -1   4  -9   98.89    4.70
   1  -4   9  106.79    4.60
  -2   4  -9   45.00    3.00
   2  -4   9   45.80    2.50
  -3   4  -9  138.69    5.50
   3  -4   9  136.09    5.00
  -4  -3   9    0.60    0.60
   3   3  -9    0.90    0.70
  -3  -3   9   -0.20    1.00
   2   3  -9   16.90    1.60
  -2  -3   9   13.60    1.80
   1   3  -9  133.89    5.30
   1   3  -9  142.29    5.60
  -1  -3   9  140.79    5.70
   0   3  -9  196.58    7.80
   0   3  -9  201.88    8.20
   0   3  -9  210.88    7.30
   0  -3   9  213.18    7.70
  -1   3  -9  501.05   16.60
  -1   3  -9  491.25   15.40
   1  -3   9  475.75   15.90
  -2   3  -9  115.79    5.40
  -2   3  -9  121.59    4.50
   2  -3   9  119.39    5.00
  -3   3  -9   95.99    4.50
   3  -3   9   90.89    3.90
  -4  -2   9    1.00    0.70
   3   2  -9   -0.40    0.60
  -3  -2   9   -0.60    1.00
   2   2  -9  279.37    9.50
  -2  -2   9  267.37    9.60
   1   2  -9    1.40    1.00
  -1  -2   9    0.80    1.10
   0   2  -9 1378.66   42.90
   0   2  -9 1426.46   42.20
   0  -2   9 1402.16   42.50
  -1   2  -9   14.10    2.00
  -1   2  -9   13.10    1.60
   1  -2   9   14.00    1.80
  -2   2  -9  175.88    7.30
  -2   2  -9  179.38    6.50
   2  -2   9  184.98    6.90
  -3   2  -9    6.70    1.40
  -3   2  -9    6.80    0.90
   3  -2   9    5.60    1.10
   4  -2   9    4.70    0.80
  -4  -1   9   12.30    1.30
   3   1  -9  377.66   12.20
  -3  -1   9  368.26   12.20
  -3  -1   9  361.86   12.20
   2   1  -9  114.29    4.90
  -2  -1   9  120.09    5.10
  -2  -1   9  118.89    5.00
   1   1  -9 1146.49   34.30
  -1  -1   9 1105.69   34.50
   0   1  -9   11.20    1.50
   0  -1   9   15.00    1.80
  -1   1  -9  254.17    8.90
   1  -1   9  255.37    9.10
  -2   1  -9  124.49    5.00
   2  -1   9  130.39    5.40
  -3   1  -9    9.10    1.20
   3  -1   9   13.70    1.60
  -4   1  -9   22.40    2.00
  -4   1  -9   26.10    1.70
   4  -1   9   26.80    1.90
  -4   0   9  129.99    4.70
   3   0  -9   12.90    1.50
   3   0  -9    8.40    1.30
  -3   0   9   13.60    1.50
  -3   0   9   17.50    2.20
   2   0  -9  250.87    9.00
   2   0  -9  246.38    8.90
  -2   0   9  249.68    8.90
  -2   0   9  253.57    8.90
   1   0  -9  435.96   14.40
   1   0  -9  447.06   14.40
  -1   0   9  438.36   14.50
   0   0  -9  122.29    5.00
   0   0   9  118.99    5.10
  -1   0  -9   23.60    1.80
   1   0   9   21.80    2.10
  -2   0  -9   30.80    2.10
   2   0   9   29.60    2.20
  -3   0  -9   72.79    3.50
   3   0   9   72.09    3.60
  -4   0  -9   12.10    1.30
   4   0   9   13.90    1.50
   3  -1  -9   -0.10    0.80
   3  -1  -9   -0.60    0.70
  -3   1   9    0.50    1.00
   2  -1  -9   74.19    3.80
   2  -1  -9   74.99    3.90
  -2   1   9   78.39    3.80
  -2   1   9   72.79    3.70
   1  -1  -9   10.60    1.60
   1  -1  -9   12.10    1.50
  -1   1   9   12.40    1.60
   0  -1  -9    2.20    1.00
   0  -1  -9    3.30    1.20
   0   1   9    2.60    1.10
  -1  -1  -9    0.30    0.80
  -1  -1  -9    0.20    0.70
   1   1   9    0.20    0.70
  -2  -1  -9  198.98    7.10
   2   1   9  181.58    7.00
  -3  -1  -9   53.39    2.80
   3   1   9   49.80    2.90
  -4  -1  -9    0.10    0.90
   4   1   9    0.10    1.00
   3  -2  -9   27.20    2.20
  -3   2   9   23.10    2.00
   2  -2  -9  108.49    4.90
  -2   2   9  114.49    4.60
   1  -2  -9   31.10    2.50
   1  -2  -9   26.80    2.10
   0  -2  -9    2.60    1.00
   0  -2  -9    2.80    0.90
   0   2   9    1.30    1.00
  -1  -2  -9    0.80    0.70
  -1  -2  -9    0.40    0.70
   1   2   9    1.50    1.00
  -2  -2  -9   10.80    1.70
  -2  -2  -9    7.10    1.30
   2   2   9   12.10    1.50
  -3  -2  -9    2.40    1.20
  -3  -2  -9    1.40    1.00
   3   2   9    3.20    1.00
  -4  -2  -9    4.20    1.00
   4   2   9    3.60    0.90
   3  -3  -9   98.29    4.10
  -3   3   9  100.79    3.80
   2  -3  -9    2.00    1.20
  -2   3   9    1.40    0.80
   1  -3  -9   31.30    2.30
  -1   3   9   30.40    2.10
   0  -3  -9   26.10    2.40
  -1  -3  -9  110.29    4.70
  -1  -3  -9  109.59    4.80
  -2  -3  -9   19.40    2.00
  -2  -3  -9   18.20    2.10
   2   3   9   17.90    2.00
  -3  -3  -9   26.20    2.10
  -3  -3  -9   27.40    2.20
   3   3   9   22.80    2.10
  -4  -3  -9   47.20    2.70
   4   3   9   46.00    2.40
   3  -4  -9   -0.20    0.50
   2  -4  -9   20.70    1.80
  -2   4   9   16.10    1.40
   1  -4  -9   26.50    2.40
  -1   4   9   24.90    1.80
   0  -4  -9    0.30    1.10
  -1  -4  -9  190.38    7.10
   1   4   9  182.18    7.60
  -2  -4  -9    0.20    0.80
  -3  -4  -9    5.20    1.40
  -3  -4  -9    5.60    1.10
  -4  -4  -9    0.70    0.70
  -4  -4  -9    0.00    0.60
   2  -5  -9    4.00    0.90
  -2   5   9    2.30    0.50
   1  -5  -9   66.19    3.40
  -1   5   9   62.69    2.90
   0  -5  -9  215.48    7.60
   0   5   9  187.78    7.80
  -1  -5  -9   23.50    2.00
   1   5   9   26.40    2.20
  -2  -5  -9   38.50    2.70
   2   5   9   34.50    3.00
  -3  -5  -9   -1.20    1.00
  -4  -5  -9  113.19    4.40
   1  -6  -9   25.70    1.80
   0  -6  -9   16.70    1.90
   0   6   9   21.90    1.70
   0   6   9   18.60    1.40
  -1  -6  -9   55.09    3.10
   1   6   9   48.40    3.30
  -2  -6  -9   60.69    3.10
   2   6   9   56.59    3.50
  -3  -6  -9   70.49    3.30
   3   6   9   64.89    3.70
  -4  -6  -9   28.00    1.70
   4   6   9   27.50    2.00
   1  -7  -9    9.60    1.20
   0  -7  -9   11.80    1.30
   0   7   9   17.10    1.40
  -1  -7  -9   35.80    2.10
   1   7   9   30.50    2.50
  -2  -7  -9   63.19    3.10
   2   7   9   52.99    3.30
  -3  -7  -9    1.60    0.70
   3   7   9    0.60    0.70
   1   8   9    3.90    0.90
  -2  -8  -9   31.20    1.80
   2   8   9   31.00    2.10
   1   6 -10    4.30    0.90
  -1  -6  10    3.80    1.40
   0   6 -10    5.60    1.10
  -1   6 -10    0.50    0.70
  -2  -5  10   27.80    1.90
   1   5 -10    2.20    0.80
  -1  -5  10    0.20    0.70
   0   5 -10   39.60    2.60
   0  -5  10   40.90    2.40
  -1   5 -10   16.80    1.70
   1  -5  10   16.10    1.60
  -2   5 -10   81.19    3.60
  -3  -4  10    0.60    0.60
   2   4 -10   34.40    2.00
  -2  -4  10   41.00    2.40
   1   4 -10   11.90    1.10
  -1  -4  10   11.40    1.50
   0   4 -10    7.00    0.90
   0   4 -10    5.10    1.20
   0  -4  10    6.30    1.30
  -1   4 -10  150.68    6.20
   1  -4  10  150.28    5.70
  -2   4 -10  170.18    6.60
   2  -4  10  168.48    6.00
  -3  -3  10  139.39    5.10
   2   3 -10    8.20    1.10
   1   3 -10   50.49    2.70
  -1  -3  10   48.90    2.80
   0   3 -10   84.99    4.30
   0   3 -10   90.99    3.80
   0  -3  10   98.59    4.30
  -1   3 -10  144.59    6.30
  -1   3 -10  148.39    5.30
   1  -3  10  144.69    5.80
  -2   3 -10   77.49    3.00
  -2   3 -10   79.99    4.10
   2  -3  10   76.59    3.50
  -3   3 -10    0.70    0.80
   3  -3  10    1.90    0.60
  -3  -2  10    0.50    0.70
   2   2 -10   22.80    1.80
  -2  -2  10   22.00    2.10
   1   2 -10   13.00    1.50
  -1  -2  10   13.60    1.60
   0   2 -10   38.80    2.40
   0   2 -10   41.50    2.60
   0  -2  10   40.10    2.70
  -1   2 -10    2.60    1.10
  -1   2 -10    2.20    1.00
   1  -2  10    3.10    1.20
  -2   2 -10   20.30    2.30
  -2   2 -10   22.80    1.70
   2  -2  10   22.30    2.10
  -3   2 -10   20.10    2.00
  -3   2 -10   21.40    1.40
   3  -2  10   22.80    1.70
   3   1 -10   12.50    1.40
  -3  -1  10   17.50    1.50
  -3  -1  10   16.20    1.30
   2   1 -10    5.50    1.10
  -2  -1  10    3.00    0.90
  -2  -1  10    2.50    1.20
   1   1 -10   17.80    1.90
  -1  -1  10   17.00    2.00
   0   1 -10   66.39    3.50
   0   1 -10   86.09    3.70
   0  -1  10   66.99    3.70
  -1   1 -10   12.30    1.70
  -1   1 -10   12.50    1.40
   1  -1  10   11.40    1.50
  -2   1 -10    4.40    1.10
   2  -1  10    7.30    1.20
  -3   1 -10   -0.10    0.90
  -3   1 -10    0.30    0.80
   3  -1  10    0.50    0.70
   4  -1  10    0.40    0.50
   3   0 -10    4.60    0.90
   2   0 -10   45.90    2.80
  -2   0  10   44.50    2.50
  -2   0  10   44.40    2.50
   1   0 -10   30.60    2.10
  -1   0  10   29.60    2.40
  -1   0  10   30.30    2.20
   0   0 -10    2.10    1.00
   0   0  10    1.00    1.00
  -1   0 -10    1.10    1.00
   1   0  10    0.70    1.00
  -2   0 -10   22.70    1.80
   2   0  10   21.80    1.90
  -3   0 -10    5.10    1.10
   3   0  10    6.50    1.10
  -4   0 -10   -0.10    0.60
  -4   0 -10    0.10    0.50
   4   0  10   -0.20    0.60
   3  -1 -10    1.80    0.80
   3  -1 -10    1.80    0.70
  -3   1  10    2.70    0.80
   2  -1 -10   35.90    2.30
   2  -1 -10   32.10    2.30
  -2   1  10   32.90    2.10
   1  -1 -10    8.60    1.30
   1  -1 -10    7.80    1.20
  -1   1  10    6.20    1.30
  -1   1  10    5.80    1.30
   0  -1 -10   25.50    2.20
   0  -1 -10   27.50    2.20
   0   1  10   25.80    2.00
  -1  -1 -10   20.20    1.80
  -1  -1 -10   20.00    2.00
   1   1  10   18.10    1.70
  -2  -1 -10    0.60    1.00
   2   1  10    0.80    1.00
  -3  -1 -10    4.00    0.90
   3   1  10    6.00    1.10
  -4  -1 -10    0.10    0.50
   4   1  10    0.00    0.60
   3  -2 -10   30.10    1.80
  -3   2  10   29.00    1.70
   2  -2 -10   29.00    2.20
  -2   2  10   29.60    2.20
   1  -2 -10    8.20    1.50
   1  -2 -10    7.20    1.40
  -1   2  10   12.30    1.50
   0  -2 -10  135.69    5.50
   0  -2 -10  136.99    5.50
   0   2  10  132.29    5.30
  -1  -2 -10    8.10    1.40
  -1  -2 -10    6.00    1.30
   1   2  10    6.60    1.20
  -2  -2 -10   28.60    2.30
  -2  -2 -10   25.90    2.00
   2   2  10   26.90    2.30
  -3  -2 -10   31.40    2.10
   3   2  10   31.40    2.20
  -4  -2 -10   -0.10    0.60
   4   2  10    0.10    0.80
   2  -3 -10    1.50    1.00
  -2   3  10    1.50    0.90
   1  -3 -10    1.20    0.90
  -1   3  10    0.80    1.00
   0  -3 -10   38.70    2.50
  -1  -3 -10    2.10    1.10
  -1  -3 -10    2.00    1.20
  -2  -3 -10  105.09    4.60
  -2  -3 -10  105.49    4.50
  -3  -3 -10    0.60    0.70
  -3  -3 -10   -0.40    0.90
  -4  -3 -10    0.40    0.60
   2  -4 -10   21.50    1.80
  -2   4  10   20.00    1.30
   1  -4 -10   -0.50    0.60
  -1   4  10    0.10    0.60
   0  -4 -10   51.29    3.10
  -1  -4 -10  243.48    8.70
  -2  -4 -10   41.50    2.50
   2   4  10   43.10    2.90
  -3  -4 -10    0.60    0.70
  -3  -4 -10    0.50    0.70
   1  -5 -10    0.80    0.70
  -1   5  10    0.30    0.50
   0  -5 -10   43.50    2.70
   0   5  10   42.50    2.30
  -2  -5 -10    9.20    1.40
   2   5  10   10.10    1.40
  -3  -5 -10    8.20    1.10
   3   5  10    4.50    1.10
   0  -6 -10    3.90    0.80
   1   6  10   11.00    1.00
  -2  -6 -10   16.90    1.50
   2   6  10   11.20    1.60
  -3  -6 -10    4.10    0.80
   3   6  10    1.70    0.70
  -1  -7 -10    4.70    0.80
  -1  -4  11    4.00    0.90
   0   4 -11   98.09    4.20
   0  -4  11  103.89    4.10
   1  -4  11   62.39    2.80
   2   3 -11   49.50    2.30
  -2  -3  11   57.59    2.80
   1   3 -11   78.09    3.20
  -1  -3  11   75.79    3.50
   0   3 -11    3.30    1.20
   0   3 -11    4.50    0.80
   0  -3  11    2.80    1.10
  -1   3 -11    0.70    0.60
  -1   3 -11    1.20    0.80
   1  -3  11    1.80    0.80
  -2   3 -11   18.30    1.60
   2  -3  11   17.30    1.40
   2   2 -11    2.40    0.80
  -2  -2  11    3.70    0.80
   1   2 -11   19.70    1.60
  -1  -2  11   17.30    1.90
   0   2 -11    0.00    0.80
   0  -2  11   -0.10    1.00
  -1   2 -11   98.89    4.70
  -1   2 -11  107.79    4.10
   1  -2  11  108.59    4.50
  -2   2 -11   22.70    1.40
  -2   2 -11   23.00    1.90
   2  -2  11   24.20    1.90
   2   1 -11   29.70    1.80
  -2  -1  11   26.20    1.70
   1   1 -11  120.79    4.70
  -1  -1  11  114.69    4.70
   0   1 -11   26.50    1.90
   0  -1  11   25.70    2.20
  -1   1 -11  146.99    6.20
  -1   1 -11  162.88    5.80
   1  -1  11  161.18    6.00
  -2   1 -11   62.99    3.40
  -2   1 -11   69.99    3.10
   2  -1  11   72.09    3.20
  -3   1 -11    1.50    1.10
  -3   1 -11    1.70    0.70
   3  -1  11    1.20    0.70
  -2   0  11  107.79    4.10
   1   0 -11    9.30    1.20
  -1   0  11   10.40    1.30
  -1   0  11    6.90    1.00
   0   0 -11   36.50    2.20
   0   0  11   36.10    2.30
  -1   0 -11   48.90    2.70
  -1   0 -11   45.80    2.80
   1   0  11   45.60    2.60
  -2   0 -11    9.00    1.50
  -2   0 -11    7.40    1.20
   2   0  11   10.50    1.30
  -3   0 -11    3.90    0.70
  -3   0 -11    5.90    1.20
   3   0  11    6.40    1.00
   2  -1 -11    1.30    0.70
  -2   1  11    1.20    0.60
   1  -1 -11    7.20    1.10
  -1   1  11    7.60    1.20
   0  -1 -11    0.10    0.60
   0   1  11    0.30    0.70
  -1  -1 -11    5.60    1.10
   1   1  11    2.70    0.80
  -2  -1 -11   -0.20    0.60
   2   1  11    0.70    0.70
  -3  -1 -11   32.60    1.90
   3   1  11   30.30    1.90
   2  -2 -11   27.40    2.00
  -2   2  11   39.20    1.90
   1  -2 -11    7.40    1.10
   1  -2 -11    6.60    1.10
  -1   2  11    5.40    1.00
   0  -2 -11   18.40    1.90
   0  -2 -11   19.70    1.90
  -1  -2 -11   51.19    2.90
  -1  -2 -11   52.79    2.80
   1   2  11   51.99    2.60
  -2  -2 -11    7.00    1.00
  -3  -2 -11  102.69    4.00
   1  -3 -11    6.50    1.20
  -1   3  11    7.90    1.00
   0  -3 -11   24.90    2.10
  -1  -3 -11  128.99    5.00
  -1  -3 -11  121.59    5.00
  -2  -3 -11   55.09    2.70
  -2  -3 -11   58.09    3.00
  -3  -3 -11   20.70    1.50
   1  -4 -11    3.20    0.80
  -1   4  11    1.90    0.60
   0  -4 -11   77.99    3.40
   0   4  11   78.79    3.30
  -1  -4 -11    8.40    1.20
  -2  -4 -11   71.09    3.20
   0  -5 -11  145.39    5.20
   0   5  11  139.19    4.80
  -1  -5 -11   85.59    3.50
  -2  -5 -11    0.80    0.60
   0   2 -12   50.49    2.40
   0  -2  12   67.79    2.80
   1  -2  12   19.10    1.40
   1   1 -12  134.19    4.70
   0   1 -12    8.70    1.00
   0  -1  12    8.20    1.10
  -1   1 -12    7.20    0.90
  -1   1 -12    2.50    1.10
   1  -1  12    5.80    0.90
   1   0 -12   27.80    1.60
   0   0 -12    6.50    0.90
   0   0  12    8.10    1.00
  -1   0 -12    3.60    0.70
  -1   0 -12    3.90    0.70
   1   0  12    5.40    0.90
  -2   0 -12    0.60    0.70
  -2   0 -12    0.20    0.50
   2   0  12    0.10    0.50
   0  -1 -12   51.29    2.40
   0   1  12   46.10    2.40
  -1  -1 -12    1.90    0.60
   1   1  12    3.70    0.90
  -2  -1 -12    2.20    0.70
   0  -2 -12   -0.10    0.60
   0   2  12   -0.80    0.80
  -1  -2 -12    1.80    0.70
  -2  -2 -12    3.30    0.70
   0   0   0    0.00    0.00

_computing_structure_solution     'SHELXT 2014/5 (Sheldrick, 2014)'
;
_shelx_hkl_checksum              23501
loop_
_space_group_symop_operation_xyz
'x, y, z'
'-x, -y, -z'
loop_
_atom_site_type_symbol
_atom_site_label
_atom_site_fract_x
_atom_site_fract_y
_atom_site_fract_z
_atom_site_U_iso_or_equiv
_atom_site_adp_type
_atom_site_calc_flag
_atom_site_refinement_flags_adp
_atom_site_refinement_flags_posn
_atom_site_occupancy
N N1 0.1985(2) 0.63980(13) 0.47687(12) 0.0180(3) Uani d . . 1
H H1 0.116(3) 0.608(2) 0.540(2) 0.020(4) Uiso d . . 1
O O1 0.1131(2) 0.48465(12) 0.33516(10) 0.0254(3) Uani d . . 1
O O2 0.31231(19) 0.64937(11) 0.26164(10) 0.0215(3) Uani d . . 1
O O3 0.3671(2) 0.91325(12) 0.65559(11) 0.0289(3) Uani d . . 1
O O4 0.2241(2) 0.71778(12) 0.70984(10) 0.0229(3) Uani d . . 1
C C1 0.3126(3) 0.75971(16) 0.49019(14) 0.0173(3) Uani d . . 1
C C2 0.5675(3) 0.72764(17) 0.41248(15) 0.0201(3) Uani d . . 1
H H2A 0.6773 0.7917 0.4305 0.024 Uiso calc U R 1
H H2B 0.655 0.6275 0.4148 0.024 Uiso calc U R 1
C C3 0.4177(3) 0.76956(16) 0.29414(15) 0.0204(3) Uani d . . 1
C C4 0.2261(3) 0.86912(16) 0.38321(14) 0.0194(3) Uani d . . 1
H H4A 0.0527 0.8771 0.3629 0.023 Uiso calc U R 1
H H4B 0.2641 0.9629 0.395 0.023 Uiso calc U R 1
C C5 0.5335(3) 0.81654(19) 0.17052(16) 0.0284(4) Uani d . . 1
H H5A 0.6644 0.7394 0.1358 0.043 Uiso calc U R 1
H H5B 0.6039 0.8982 0.1867 0.043 Uiso calc U R 1
H H5C 0.4078 0.8427 0.1082 0.043 Uiso calc U R 1
C C6 0.2012(3) 0.58486(16) 0.35933(15) 0.0191(3) Uani d . . 1
C C7 0.3040(3) 0.80719(16) 0.62752(14) 0.0184(3) Uani d . . 1
C C8 0.2027(3) 0.74954(18) 0.84795(14) 0.0250(4) Uani d . . 1
H H8 0.3432 0.7921 0.8691 0.03 Uiso calc U R 1
C C9 0.2201(4) 0.6102(2) 0.91529(17) 0.0387(5) Uani d . . 1
H H9A 0.0902 0.5652 0.8888 0.058 Uiso calc U R 1
H H9B 0.1994 0.6245 1.0086 0.058 Uiso calc U R 1
H H9C 0.382 0.5495 0.8926 0.058 Uiso calc U R 1
C C10 -0.0360(4) 0.8520(2) 0.87826(19) 0.0469(5) Uani d . . 1
H H10A -0.0351 0.94 0.8302 0.07 Uiso calc U R 1
H H10B -0.0564 0.8715 0.9708 0.07 Uiso calc U R 1
H H10C -0.1729 0.8118 0.8537 0.07 Uiso calc U R 1
loop_
_atom_site_aniso_label
_atom_site_aniso_U_11
_atom_site_aniso_U_22
_atom_site_aniso_U_33
_atom_site_aniso_U_12
_atom_site_aniso_U_13
_atom_site_aniso_U_23
N1 0.0201(6) 0.0197(7) 0.0158(6) -0.0091(5) 0.0015(5) 0.0001(5)
O1 0.0321(6) 0.0268(6) 0.0215(6) -0.0171(5) 0.0041(4) -0.0060(5)
O2 0.0276(6) 0.0227(6) 0.0171(5) -0.0131(5) 0.0035(4) -0.0022(4)
O3 0.0425(7) 0.0280(7) 0.0214(6) -0.0203(5) 0.0018(5) -0.0041(5)
O4 0.0322(6) 0.0260(6) 0.0146(5) -0.0155(5) -0.0013(4) 0.0016(4)
C1 0.0173(7) 0.0174(8) 0.0181(7) -0.0062(6) -0.0001(6) -0.0002(6)
C2 0.0168(7) 0.0202(8) 0.0237(8) -0.0063(6) 0.0021(6) -0.0001(6)
C3 0.0233(7) 0.0199(8) 0.0201(7) -0.0101(6) 0.0022(6) -0.0017(6)
C4 0.0217(7) 0.0187(8) 0.0182(7) -0.0062(6) -0.0002(6) 0.0014(6)
C5 0.0373(9) 0.0276(9) 0.0227(8) -0.0152(7) 0.0070(7) -0.0023(7)
C6 0.0192(7) 0.0198(8) 0.0187(7) -0.0057(6) 0.0014(6) -0.0011(6)
C7 0.0174(7) 0.0199(8) 0.0189(8) -0.0064(6) -0.0004(6) 0.0002(6)
C8 0.0336(8) 0.0313(9) 0.0133(7) -0.0145(7) -0.0005(6) -0.0019(6)
C9 0.0638(13) 0.0356(11) 0.0175(8) -0.0124(9) -0.0034(8) 0.0026(7)
C10 0.0516(12) 0.0551(13) 0.0248(9) 0.0039(10) 0.0094(8) 0.0046(9)
loop_
_atom_type_symbol
_atom_type_description
_atom_type_scat_dispersion_real
_atom_type_scat_dispersion_imag
_atom_type_scat_source
C C 0.0181 0.0091 'International Tables Vol C Tables 4.2.6.8 and 6.1.1.4'
H H 0.0000 0.0000 'International Tables Vol C Tables 4.2.6.8 and 6.1.1.4'
N N 0.0311 0.0180 'International Tables Vol C Tables 4.2.6.8 and 6.1.1.4'
O O 0.0492 0.0322 'International Tables Vol C Tables 4.2.6.8 and 6.1.1.4'
loop_
_geom_angle_atom_site_label_1
_geom_angle_atom_site_label_2
_geom_angle_atom_site_label_3
_geom_angle
C6 N1 C1 118.96(13)
C6 N1 H1 118.3(12)
C1 N1 H1 122.4(12)
C6 O2 C3 117.65(11)
C7 O4 C8 118.54(12)
N1 C1 C7 113.31(12)
N1 C1 C4 108.42(12)
C7 C1 C4 119.84(13)
N1 C1 C2 107.73(12)
C7 C1 C2 117.69(12)
C4 C1 C2 86.66(11)
C3 C2 C1 84.91(11)
C3 C2 H2A 114.5
C1 C2 H2A 114.5
C3 C2 H2B 114.5
C1 C2 H2B 114.5
H2A C2 H2B 111.6
O2 C3 C5 106.24(12)
O2 C3 C2 107.97(12)
C5 C3 C2 121.50(13)
O2 C3 C4 108.53(11)
C5 C3 C4 123.56(14)
C2 C3 C4 87.41(11)
C3 C4 C1 84.79(11)
C3 C4 H4A 114.5
C1 C4 H4A 114.5
C3 C4 H4B 114.5
C1 C4 H4B 114.5
H4A C4 H4B 111.6
C3 C5 H5A 109.5
C3 C5 H5B 109.5
H5A C5 H5B 109.5
C3 C5 H5C 109.5
H5A C5 H5C 109.5
H5B C5 H5C 109.5
O1 C6 N1 125.48(14)
O1 C6 O2 119.01(13)
N1 C6 O2 115.51(13)
O3 C7 O4 125.74(14)
O3 C7 C1 122.52(13)
O4 C7 C1 111.73(12)
O4 C8 C10 108.41(14)
O4 C8 C9 105.36(13)
C10 C8 C9 113.99(16)
O4 C8 H8 109.6
C10 C8 H8 109.6
C9 C8 H8 109.6
C8 C9 H9A 109.5
C8 C9 H9B 109.5
H9A C9 H9B 109.5
C8 C9 H9C 109.5
H9A C9 H9C 109.5
H9B C9 H9C 109.5
C8 C10 H10A 109.5
C8 C10 H10B 109.5
H10A C10 H10B 109.5
C8 C10 H10C 109.5
H10A C10 H10C 109.5
H10B C10 H10C 109.5
loop_
_geom_bond_atom_site_label_1
_geom_bond_atom_site_label_2
_geom_bond_distance
N1 C6 1.345(2)
N1 C1 1.4543(19)
N1 H1 0.86(2)
O1 C6 1.2187(18)
O2 C6 1.3590(19)
O2 C3 1.4708(17)
O3 C7 1.2060(19)
O4 C7 1.3249(19)
O4 C8 1.4693(18)
C1 C7 1.508(2)
C1 C4 1.551(2)
C1 C2 1.552(2)
C2 C3 1.538(2)
C2 H2A 0.99
C2 H2B 0.99
C3 C5 1.500(2)
C3 C4 1.543(2)
C4 H4A 0.99
C4 H4B 0.99
C5 H5A 0.98
C5 H5B 0.98
C5 H5C 0.98
C8 C10 1.495(3)
C8 C9 1.496(3)
C8 H8 1.0
C9 H9A 0.98
C9 H9B 0.98
C9 H9C 0.98
C10 H10A 0.98
C10 H10B 0.98
C10 H10C 0.98
loop_
_geom_hbond_atom_site_label_D
_geom_hbond_atom_site_label_H
_geom_hbond_atom_site_label_A
_geom_hbond_site_symmetry_A
_geom_hbond_distance_DH
_geom_hbond_distance_HA
_geom_hbond_distance_DA
_geom_hbond_angle_DHA
N1 H1 O1 2_566 0.86(2) 2.08(2) 2.9250(17) 169.3(17)
loop_
_geom_torsion_atom_site_label_1
_geom_torsion_atom_site_label_2
_geom_torsion_atom_site_label_3
_geom_torsion_atom_site_label_4
_geom_torsion
C6 N1 C1 C7 -178.00(12)
C6 N1 C1 C4 46.38(17)
C6 N1 C1 C2 -46.02(17)
N1 C1 C2 C3 78.54(12)
C7 C1 C2 C3 -151.90(13)
C4 C1 C2 C3 -29.74(11)
C6 O2 C3 C5 178.30(13)
C6 O2 C3 C2 46.49(16)
C6 O2 C3 C4 -46.87(16)
C1 C2 C3 O2 -78.77(12)
C1 C2 C3 C5 158.30(15)
C1 C2 C3 C4 29.88(11)
O2 C3 C4 C1 78.19(12)
C5 C3 C4 C1 -156.62(15)
C2 C3 C4 C1 -29.91(10)
N1 C1 C4 C3 -77.93(12)
C7 C1 C4 C3 149.85(13)
C2 C1 C4 C3 29.65(11)
C1 N1 C6 O1 179.80(14)
C1 N1 C6 O2 -0.38(19)
C3 O2 C6 O1 -179.72(13)
C3 O2 C6 N1 0.45(19)
C8 O4 C7 O3 1.6(2)
C8 O4 C7 C1 -179.45(12)
N1 C1 C7 O3 -172.42(13)
C4 C1 C7 O3 -42.3(2)
C2 C1 C7 O3 60.7(2)
N1 C1 C7 O4 8.59(17)
C4 C1 C7 O4 138.68(13)
C2 C1 C7 O4 -118.31(14)
C7 O4 C8 C10 81.86(18)
C7 O4 C8 C9 -155.73(14)
