#------------------------------------------------------------------------------
#$Date: 2019-11-04 08:51:18 +0200 (Mon, 04 Nov 2019) $
#$Revision: 222276 $
#$URL: file:///home/coder/svn-repositories/cod/cif/4/03/37/4033701.cif $
#------------------------------------------------------------------------------
#
# This file is available in the Crystallography Open Database (COD),
# http://www.crystallography.net/
#
# All data on this site have been placed in the public domain by the
# contributors.
#
data_4033701
loop_
_publ_author_name
'Kaleta, Ji\<r\'i'
'Ron\<cevi\'c, Igor'
'C\'isa\<rov\'a, Ivana'
'Dra\<c\'insk\'y, Martin'
'\<Sol\'inov\'a, Veronika'
'Ka\<si\<cka, V\'aclav'
'Michl, Josef'
_publ_section_title
;
 Bridge-Chlorinated Bicyclo[1.1.1]pentane-1,3-dicarboxylic Acids.
;
_journal_issue                   5
_journal_name_full               'The Journal of organic chemistry'
_journal_page_first              2448
_journal_page_last               2461
_journal_paper_doi               10.1021/acs.joc.8b02780
_journal_volume                  84
_journal_year                    2019
_chemical_compound_source        'Synthesized by Dr. Jiri Kaleta'
_chemical_formula_moiety         'C7 H5 Cl3 O4'
_chemical_formula_sum            'C7 H5 Cl3 O4'
_chemical_formula_weight         259.46
_space_group_crystal_system      triclinic
_space_group_IT_number           2
_space_group_name_Hall           '-P 1'
_space_group_name_H-M_alt        'P -1'
_atom_sites_solution_hydrogens   difmap
_audit_creation_method           SHELXL-2018/1
_cell_angle_alpha                102.337(3)
_cell_angle_beta                 112.745(3)
_cell_angle_gamma                95.285(3)
_cell_formula_units_Z            1
_cell_length_a                   5.8299(5)
_cell_length_b                   6.6662(6)
_cell_length_c                   7.1505(6)
_cell_measurement_reflns_used    3767
_cell_measurement_temperature    150(2)
_cell_measurement_theta_max      27.5573
_cell_measurement_theta_min      3.1887
_cell_volume                     245.61(4)
_computing_cell_refinement       'SAINT V8.38A (Bruker AXS Inc., 2017)'
_computing_data_collection       'Bruker Instrument Service vV6.2.9'
_computing_data_reduction        'SAINT V8.38A (Bruker AXS Inc., 2017)'
_computing_structure_refinement  'SHELXL-2018/1 (Sheldrick, 2018)'
_computing_structure_solution    'SHELXT 2014/5 (Sheldrick, 2014)'
_diffrn_ambient_temperature      150(2)
_diffrn_measured_fraction_theta_full 0.995
_diffrn_measured_fraction_theta_max 0.996
_diffrn_measurement_device_type  'Bruker D8 VENTURE Kappa Duo PHOTON 100 CMOS'
_diffrn_measurement_method       '\f and \w scans'
_diffrn_radiation_monochromator  'Quazar Mo multilayer optic'
_diffrn_radiation_type           MoK\a
_diffrn_radiation_wavelength     0.71073
_diffrn_reflns_av_R_equivalents  0.0169
_diffrn_reflns_av_unetI/netI     0.0179
_diffrn_reflns_Laue_measured_fraction_full 0.995
_diffrn_reflns_Laue_measured_fraction_max 0.996
_diffrn_reflns_limit_h_max       5
_diffrn_reflns_limit_h_min       -7
_diffrn_reflns_limit_k_max       8
_diffrn_reflns_limit_k_min       -8
_diffrn_reflns_limit_l_max       9
_diffrn_reflns_limit_l_min       -8
_diffrn_reflns_number            3956
_diffrn_reflns_point_group_measured_fraction_full 0.995
_diffrn_reflns_point_group_measured_fraction_max 0.996
_diffrn_reflns_theta_full        25.242
_diffrn_reflns_theta_max         27.616
_diffrn_reflns_theta_min         3.189
_diffrn_source                   'I\mS  micro-focus sealed tube'
_exptl_absorpt_coefficient_mu    0.915
_exptl_absorpt_correction_T_max  0.94
_exptl_absorpt_correction_T_min  0.84
_exptl_absorpt_correction_type   multi-scan
_exptl_absorpt_process_details
;
SADABS-2016/2 - Bruker AXS area detector scaling and absorption correction
;
_exptl_crystal_colour            colourless
_exptl_crystal_density_diffrn    1.754
_exptl_crystal_description       prism
_exptl_crystal_F_000             130
_exptl_crystal_size_max          0.365
_exptl_crystal_size_mid          0.161
_exptl_crystal_size_min          0.067
_refine_diff_density_max         0.537
_refine_diff_density_min         -0.338
_refine_diff_density_rms         0.054
_refine_ls_extinction_method     none
_refine_ls_goodness_of_fit_ref   1.062
_refine_ls_hydrogen_treatment    constr
_refine_ls_matrix_type           full
_refine_ls_number_parameters     84
_refine_ls_number_reflns         1134
_refine_ls_number_restraints     1
_refine_ls_restrained_S_all      1.061
_refine_ls_R_factor_all          0.0402
_refine_ls_R_factor_gt           0.0372
_refine_ls_shift/su_max          0.000
_refine_ls_shift/su_mean         0.000
_refine_ls_structure_factor_coef Fsqd
_refine_ls_weighting_details
'w=1/[\s^2^(Fo^2^)+(0.0405P)^2^+0.1956P] where P=(Fo^2^+2Fc^2^)/3'
_refine_ls_weighting_scheme      calc
_refine_ls_wR_factor_gt          0.0920
_refine_ls_wR_factor_ref         0.0939
_reflns_Friedel_coverage         0.000
_reflns_number_gt                1047
_reflns_number_total             1134
_reflns_threshold_expression     'I > 2\s(I)'
_cod_data_source_file            jo8b02780_si_004.cif
_cod_data_source_block           JK771
_cod_database_code               4033701
_shelx_shelxl_version_number     2018/1
_shelx_space_group_comment
;
The symmetry employed for this shelxl refinement is uniquely defined
by the following loop, which should always be used as a source of
symmetry information in preference to the above space-group names.
They are only intended as comments.
;
_shelx_estimated_absorpt_t_min   0.731
_shelx_estimated_absorpt_t_max   0.941
_shelx_res_file
;
TITL jk762b_kaleta_0m_a.res in P-1
    jk762b_kaleta.res
    created by SHELXL-2018/1 at 20:46:50 on 19-Sep-2018
REM Old TITL jk762b_kaleta_0m in P-1
REM SHELXT solution in P-1
REM R1 0.219,  Rweak 0.016,  Alpha 0.046,  Orientation as input
REM Formula found by SHELXT:  C5 Cl2 O2
CELL  0.71073   5.8299   6.6662   7.1505  102.337  112.745   95.285
ZERR    1.000   0.0005   0.0006   0.0006    0.003    0.003    0.003
LATT  1
SFAC C H CL O
UNIT 7 5 3 4
TEMP -123.150
SIZE 0.067 0.161 0.365
L.S. 10
BOND $H
EQIV $1 -x+1, -y+2, -z+2
HTAB O1 O2_$1
LIST 4
HTAB
ACTA
FMAP 2
SUMP 1.50 0.0001 1.0 2 1.0 3
PLAN -20
WGHT    0.040500    0.195600
FVAR       2.21119   0.82769   0.67231
CL1   3    0.277890    0.215707    0.617067    21.00000    0.05949    0.03149 =
         0.05126   -0.00325    0.03755   -0.00730

CL2   3    0.798691    0.326662    0.774651    31.00000    0.05326    0.04967 =
         0.03279    0.00039    0.00766    0.02888
O1    4    0.725672    0.885167    0.910864    11.00000    0.02463    0.03872 =
         0.03838   -0.02539    0.01156    0.00008
AFIX   3
H1    2    0.718826    1.000858    1.004528    11.00000   -1.20000
AFIX   0
O2    4    0.307201    0.800932    0.805195    11.00000    0.02579    0.03542 =
         0.03424   -0.01901    0.01421    0.00108
C1    1    0.501284    0.606230    0.611835    11.00000    0.02158    0.02101 =
         0.02354   -0.01098    0.01051    0.00066
C2    1    0.517499    0.384878    0.596650    10.50000    0.02442    0.01796 =
         0.02175   -0.00331    0.01044    0.00333
C4    1    0.692578    0.612325    0.500689    10.50000    0.02708    0.01916 =
         0.02371   -0.00899    0.01353   -0.00047
AFIX   3
H4    2    0.862732    0.590714    0.592742    10.50000   -1.20000
AFIX   0
C5    1    0.280330    0.528490    0.374101    10.50000    0.02402    0.02168 =
         0.01879   -0.00602    0.00719    0.00715
AFIX   3
H5A   2    0.115746    0.454107    0.357570    10.50000   -1.20000
H5AB  2    0.262407    0.629126    0.287958    10.50000   -1.20000
AFIX   0
C6    1    0.501747    0.775489    0.787215    11.00000    0.02377    0.01821 =
         0.02026   -0.00618    0.01014    0.00217
HKLF 4




REM  jk762b_kaleta_0m_a.res in P-1
REM R1 =  0.0372 for    1047 Fo > 4sig(Fo)  and  0.0402 for all    1134 data
REM     84 parameters refined using      1 restraints

END

WGHT      0.0405      0.1956

REM Instructions for potential hydrogen bonds
HTAB O1 O2_$1
EQIV $3 x+1, y, z
HTAB C4 O2_$3
EQIV $4 -x, -y+1, -z+1
HTAB C5 O2_$4
EQIV $2 -x+1, -y+1, -z+1
HTAB C5 Cl2_$2

REM Highest difference peak  0.537,  deepest hole -0.338,  1-sigma level  0.054
Q1    1   0.3284  0.8925  0.7422  11.00000  0.05    0.54
Q2    1   0.6885  0.7938  0.9849  11.00000  0.05    0.41
Q3    1   0.6631  0.2804  0.7538  11.00000  0.05    0.37
Q4    1   0.3126  0.3072  0.5527  11.00000  0.05    0.31
Q5    1   0.5029  0.6840  0.6982  11.00000  0.05    0.31
Q6    1   0.4856  0.3427  0.4847  11.00000  0.05    0.21
Q7    1   0.8100  0.2565  0.8733  11.00000  0.05    0.21
Q8    1   0.4505  0.2331  0.7093  11.00000  0.05    0.20
Q9    1   0.2644  0.1405  0.7174  11.00000  0.05    0.20
Q10   1   0.5975  0.4014  0.4852  11.00000  0.05    0.16
Q11   1   0.7368  0.2015  0.9489  11.00000  0.05    0.15
Q12   1   0.5153  0.5111  0.6384  11.00000  0.05    0.14
Q13   1   0.7671  0.9571  1.1198  11.00000  0.05    0.13
Q14   1   0.2136  0.0829  0.7903  11.00000  0.05    0.13
Q15   1   0.8234  0.3596  0.7001  11.00000  0.05    0.12
Q16   1   0.1989  0.7465  0.7336  11.00000  0.05    0.11
Q17   1   0.8230  0.8586  0.9144  11.00000  0.05    0.11
Q18   1   0.7343  0.9793  0.7906  11.00000  0.05    0.11
Q19   1   1.0940  0.3758  0.9825  11.00000  0.05    0.11
Q20   1   0.9075  0.9576  0.8806  11.00000  0.05    0.11
;
_shelx_res_checksum              86934
_shelx_hkl_file
;
  -1   0   0 5408.16  131.09
   1   0   0 5500.95  131.19
  -2   0   0 6585.64  163.58
   2   0   0 6955.80  164.08
  -3   0   0    4.80    0.90
  -3   0   0    4.50    0.70
  -3   0   0    4.70    0.60
   3   0   0    2.20    0.70
  -4   0   0 2303.37   56.69
  -4   0   0 2378.26   56.69
  -4   0   0 2300.47   56.99
  -4   0   0 2391.36   56.29
   4   0   0 2337.37   56.59
  -5   0   0  867.31   21.70
  -5   0   0  851.61   22.00
  -5   0   0  851.11   21.10
  -6   0   0   87.09    4.80
  -6   0   0   84.19    4.30
  -6   1   0  253.47    8.30
  -6   1   0  236.68    7.70
  -5   1   0   32.50    2.60
  -5   1   0   30.70    2.30
   4  -1   0  293.77    8.20
  -4   1   0  311.37    8.20
  -4   1   0  302.97    8.20
  -4   1   0  314.47    7.60
  -4   1   0  306.07    8.50
   3  -1   0  286.37    7.50
  -3   1   0  294.47    7.50
  -3   1   0  294.37    7.10
  -3   1   0  279.07    7.50
   2  -1   0 1822.32   43.50
  -2   1   0 1783.32   43.50
  -2   1   0 1849.91   43.60
   1  -1   0  345.87    8.60
   1  -1   0  358.76    8.40
  -1   1   0  341.17    8.50
  -1   1   0  349.87    8.40
  -1   1   0  354.36    8.40
   0  -1   0  376.06    9.30
   0  -1   0  389.96    9.30
   0   1   0  383.96    9.30
   0   1   0  383.66    9.30
   0   1   0  377.56    9.40
  -1  -1   0   21.00    0.90
  -1  -1   0   22.10    0.90
  -1  -1   0   20.30    0.70
  -1  -1   0   18.90    0.90
   1   1   0   21.30    1.00
   1   1   0   20.10    0.80
   1   1   0   20.20    0.80
   1   1   0   19.70    0.70
  -2  -1   0   27.50    1.20
  -2  -1   0   27.70    0.90
  -2  -1   0   27.10    1.40
  -2  -1   0   27.50    1.30
   2   1   0   28.70    1.10
   2   1   0   27.00    1.40
   2   1   0   27.70    0.80
  -3  -1   0 1381.76   33.90
  -3  -1   0 1412.86   33.70
  -3  -1   0 1379.26   33.40
   3   1   0 1369.66   33.80
   3   1   0 1360.76   33.50
  -4  -1   0  281.57    8.10
  -4  -1   0  291.87    7.90
  -4  -1   0  286.17    7.60
   4   1   0  266.57    7.50
  -5  -1   0  151.38    4.90
  -5  -1   0  157.68    5.70
  -5  -1   0  153.68    5.30
  -6  -1   0    1.30    2.40
  -7   2   0   -1.20    3.00
  -7   2   0   -0.10    2.70
  -6   2   0    5.40    2.20
  -6   2   0    8.60    3.40
  -5   2   0  230.78    7.10
  -5   2   0  228.98    6.60
  -5   2   0  224.28    5.70
  -5   2   0  232.58    6.70
   4  -2   0  816.92   19.40
  -4   2   0  780.92   19.70
  -4   2   0  773.22   19.10
  -4   2   0  785.02   19.50
   3  -2   0  740.73   18.10
  -3   2   0  732.63   18.00
  -3   2   0  741.93   18.30
  -3   2   0  733.53   18.00
   2  -2   0 2268.57   53.99
  -2   2   0 2245.38   53.59
  -2   2   0 2225.58   53.89
   0  -2   0 6368.16  155.58
   0   2   0 6393.76  155.28
  -1  -2   0  831.12   20.40
  -1  -2   0  827.32   20.50
  -1  -2   0  827.02   20.30
  -1  -2   0  845.12   20.30
   1   2   0  835.92   20.40
   1   2   0  823.62   20.50
   1   2   0  825.42   20.50
   1   2   0  853.81   20.20
  -2  -2   0  533.05   13.70
  -2  -2   0  546.75   13.30
  -2  -2   0  532.25   13.60
  -2  -2   0  528.75   13.50
   2   2   0  540.45   13.40
   2   2   0  562.34   13.20
   2   2   0  540.25   13.70
   2   2   0  541.35   13.50
  -3  -2   0  320.87    8.60
  -3  -2   0  327.37    8.20
  -3  -2   0  329.87    8.80
  -3  -2   0  325.87    9.00
   3   2   0  333.87    8.00
   3   2   0  320.87    8.90
   3   2   0  331.77    8.60
  -4  -2   0   61.99    3.00
  -4  -2   0   54.79    2.80
  -4  -2   0   63.79    3.30
  -5  -2   0    0.60    1.80
  -5  -2   0    2.30    2.00
  -6  -2   0    3.80    2.80
  -6  -2   0    7.10    2.80
  -6   3   0   28.60    3.50
  -6   3   0   21.90    1.80
  -6   3   0   24.80    2.90
  -5   3   0  310.17    8.60
  -5   3   0  293.17    8.10
  -5   3   0  318.47    7.90
   4  -3   0    8.20    1.20
  -4   3   0    6.60    1.10
  -4   3   0    7.70    1.00
  -4   3   0    8.50    1.00
   3  -3   0 1396.96   33.50
  -3   3   0 1395.36   33.40
  -3   3   0 1334.87   33.50
   2  -3   0  268.27    7.00
   2  -3   0  253.77    6.60
  -2   3   0  260.37    6.80
  -2   3   0  264.87    7.20
  -2   3   0  258.47    6.50
   1  -3   0  410.56   10.40
   1  -3   0  414.16   10.20
   1  -3   0  388.26    9.80
   1  -3   0  414.96   10.50
  -1   3   0  406.96   10.30
  -1   3   0  401.86   10.50
  -1   3   0  406.06   10.10
   0  -3   0  376.16    9.40
   0  -3   0  359.06    9.50
   0  -3   0  375.16    9.50
   0   3   0  368.96    9.50
   0   3   0  369.26    9.30
   0   3   0  362.56    9.30
  -1  -3   0  128.99    4.00
  -1  -3   0  129.59    3.80
  -1  -3   0  125.89    3.80
  -1  -3   0  128.19    3.70
   1   3   0  128.79    3.90
   1   3   0  125.99    3.60
   1   3   0  126.69    4.00
   1   3   0  125.99    3.70
  -2  -3   0  405.96   10.50
  -2  -3   0  410.56   10.30
  -2  -3   0  404.66   10.40
   2   3   0  403.46   10.30
   2   3   0  393.26   10.60
   2   3   0  397.46   10.00
   2   3   0  395.46   10.40
  -3  -3   0  723.53   19.50
  -3  -3   0  782.32   19.30
  -3  -3   0  770.52   19.60
  -3  -3   0  779.52   18.80
   3   3   0  735.23   19.00
   3   3   0  773.52   18.50
  -4  -3   0   93.59    4.00
  -4  -3   0   96.09    4.30
  -5  -3   0  302.57    9.30
  -5  -3   0  301.57    9.90
  -6   4   0  138.79    5.30
  -6   4   0  135.69    4.20
   5  -4   0   26.00    2.50
  -5   4   0   22.50    2.40
  -5   4   0   20.00    1.80
   4  -4   0  171.48    5.30
  -4   4   0  174.68    5.00
   3  -4   0  537.95   13.70
   3  -4   0  530.95   13.00
  -3   4   0  507.95   13.90
  -3   4   0  545.15   13.50
  -3   4   0  529.05   12.90
   2  -4   0  345.77    8.80
   2  -4   0  337.97    9.20
  -2   4   0  330.67    9.30
  -2   4   0  350.06    8.70
  -2   4   0  348.97    9.00
   1  -4   0  425.06   10.80
   1  -4   0  411.66   11.00
  -1   4   0  413.06   11.10
  -1   4   0  430.76   10.80
  -1   4   0  426.66   10.60
   0  -4   0   15.40    1.50
   0  -4   0   15.10    1.50
   0  -4   0   15.70    1.50
   0   4   0   15.80    1.50
   0   4   0   14.30    1.70
   0   4   0   16.60    1.20
   0   4   0   16.50    1.20
  -1  -4   0  371.46   10.00
  -1  -4   0  385.26   10.00
  -1  -4   0  384.96   10.30
   1   4   0  378.36    9.90
   1   4   0  380.76    9.70
   1   4   0  367.16   10.00
  -2  -4   0    0.80    1.00
  -2  -4   0    1.80    1.10
  -2  -4   0    1.70    1.10
   2   4   0    1.30    1.00
   2   4   0    1.80    0.70
   2   4   0    0.80    0.80
  -3  -4   0    2.00    1.40
  -3  -4   0    1.90    1.30
  -3  -4   0    0.30    1.20
   3   4   0    1.40    0.70
  -4  -4   0   24.00    2.60
  -4  -4   0   17.40    3.20
  -4  -4   0   17.10    2.30
   4   4   0   15.70    1.20
  -5  -4   0    8.40    2.80
  -5  -4   0    6.90    2.90
  -6   5   0  200.48    7.00
  -6   5   0  199.38    6.00
  -5   5   0  396.16   11.10
  -5   5   0  391.56   10.50
  -4   5   0    4.20    1.20
  -4   5   0    3.40    1.30
   3  -5   0    1.60    1.00
  -3   5   0    3.30    0.60
  -3   5   0    0.90    0.90
   2  -5   0  258.97    7.10
  -2   5   0  260.07    6.90
  -2   5   0  258.87    7.20
   1  -5   0  100.89    3.30
   1  -5   0  103.39    3.50
   1  -5   0   99.99    3.80
  -1   5   0  104.49    3.50
  -1   5   0  105.19    3.30
   0  -5   0  700.63   18.50
   0  -5   0  730.53   18.50
   0   5   0  685.03   18.30
   0   5   0  729.83   18.00
   0   5   0  729.43   18.00
  -1  -5   0 1014.80   26.00
   1   5   0 1055.29   25.40
   1   5   0 1013.40   25.50
  -2  -5   0    5.20    1.50
   2   5   0    4.00    1.20
   2   5   0    1.60    1.00
  -3  -5   0   39.90    3.20
  -3  -5   0   47.60    3.70
  -3  -5   0   40.30    3.30
   3   5   0   42.70    2.20
  -4  -5   0  196.88    7.70
  -4  -5   0  196.08    7.10
   4   5   0  186.38    5.30
  -5   6   0  217.78    7.40
  -5   6   0  224.88    6.80
  -4   6   0   14.70    1.90
  -4   6   0   14.60    1.70
   3  -6   0  113.49    3.80
  -3   6   0  115.59    4.10
   2  -6   0  163.98    5.20
  -2   6   0  172.38    5.00
  -2   6   0  175.88    5.40
   1  -6   0  495.55   12.20
   1  -6   0  493.35   13.40
   1  -6   0  483.55   12.30
  -1   6   0  491.35   12.70
  -1   6   0  490.15   12.90
   0  -6   0   13.60    1.90
   0  -6   0    9.10    1.30
   0   6   0   14.70    1.70
   0   6   0   13.70    1.70
  -1  -6   0    2.10    1.50
   1   6   0    1.20    1.20
   1   6   0    3.10    1.10
  -2  -6   0   19.30    2.70
   2   6   0   21.80    2.00
   2   6   0   21.80    2.40
  -3  -6   0   75.69    5.10
   3   6   0   77.89    3.30
  -5   7   0   12.10    2.30
  -5   7   0   16.30    3.00
  -4   7   0   48.70    3.30
  -3   7   0  165.28    5.70
  -2   7   0   55.29    2.80
  -2   7   0   47.70    3.00
   1  -7   0   88.09    5.60
   1  -7   0   92.29    3.00
  -1   7   0   98.89    4.40
  -1   7   0   98.79    3.70
   0  -7   0  498.65   14.10
   0   7   0  476.15   14.00
   0   7   0  495.45   13.30
  -1  -7   0  451.75   13.00
   1   7   0  451.45   12.10
   1   7   0  432.46   12.20
  -2  -7   0   52.79    4.70
   2   7   0   47.00    3.10
  -3   8   0    2.80    1.80
  -2   8   0  118.19    4.90
  -1   8   0   54.69    3.50
   0  -8   0    5.80    3.10
   0   8   0    1.60    1.70
  -1  -8   0   -2.10    2.70
   1   8   0    2.30    1.90
   1   8  -1    3.50    1.70
  -1  -8   1    5.70    2.70
  -1  -8   1    4.30    1.80
   0   8  -1    7.00    1.80
   0  -8   1    7.70    1.50
   0  -8   1    7.10    2.50
  -1   8  -1   82.99    4.00
  -2   8  -1   44.70    3.20
  -3   8  -1    1.10    1.90
   3   7  -1    4.20    1.90
  -3  -7   1    7.20    3.30
   2   7  -1  147.09    6.90
  -2  -7   1  152.48    6.50
   1   7  -1   92.19    4.30
  -1  -7   1   94.69    4.90
   0   7  -1    0.30    1.10
   0  -7   1    0.90    1.00
  -1   7  -1   78.09    4.00
   1  -7   1   81.69    2.60
  -2   7  -1    2.70    1.70
  -3   7  -1  247.28    7.40
  -4   7  -1   44.10    3.90
  -4   7  -1   39.70    3.10
   4   6  -1   65.69    2.80
  -4  -6   1   62.79    5.50
   3   6  -1  506.55   13.10
  -3  -6   1  510.25   14.50
   2   6  -1   37.60    2.20
  -2  -6   1   35.30    3.20
   1   6  -1  419.16   11.10
  -1  -6   1  423.16   11.90
   0   6  -1   71.19    2.90
   0  -6   1   67.79    2.60
   0  -6   1   66.89    3.60
  -1   6  -1 1337.37   33.00
   1  -6   1 1344.37   32.40
  -2   6  -1   26.70    2.00
   2  -6   1   26.60    2.00
  -3   6  -1  100.49    3.70
   3  -6   1   96.39    3.20
  -4   6  -1   35.40    2.50
  -4   6  -1   35.10    3.00
  -5   6  -1   31.70    2.70
  -5   6  -1   32.30    3.80
  -5  -5   1   94.39    6.20
  -5  -5   1  108.49    6.30
   4   5  -1  388.16   10.10
  -4  -5   1  393.76   11.80
  -4  -5   1  391.86   11.20
   3   5  -1    0.70    1.00
  -3  -5   1   -1.80    1.40
  -3  -5   1   -0.40    1.30
   2   5  -1  473.55   11.80
   2   5  -1  451.55   12.10
  -2  -5   1  463.05   12.60
  -2  -5   1  442.36   12.50
   1   5  -1  259.17    6.80
   1   5  -1  237.18    7.00
  -1  -5   1  245.98    7.30
  -1  -5   1  241.58    7.30
   0   5  -1  438.76   11.10
   0   5  -1  425.66   11.40
   0  -5   1  421.46   11.20
   0  -5   1  432.26   11.90
   0  -5   1  432.76   11.70
  -1   5  -1 1288.57   31.50
   1  -5   1 1291.97   31.50
   1  -5   1 1275.97   31.00
  -2   5  -1  105.99    3.50
   2  -5   1   99.79    3.30
  -3   5  -1  852.21   21.60
  -3   5  -1  864.01   21.40
  -4   5  -1   47.20    2.30
  -4   5  -1   43.80    2.80
  -5   5  -1  152.48    4.80
  -5   5  -1  154.48    5.70
  -6   5  -1   22.00    2.60
  -6   5  -1   20.50    2.90
  -5  -4   1   75.99    4.50
  -5  -4   1   72.89    5.10
   4   4  -1  186.18    5.20
  -4  -4   1  189.48    5.70
  -4  -4   1  205.38    6.40
  -4  -4   1  198.58    6.70
   3   4  -1  438.06   11.00
   3   4  -1  425.76   11.40
  -3  -4   1  442.16   11.70
  -3  -4   1  433.06   11.30
  -3  -4   1  451.45   12.10
   2   4  -1 1079.89   25.10
   2   4  -1 1038.50   25.40
   2   4  -1  996.90   25.80
  -2  -4   1 1047.70   25.80
  -2  -4   1 1040.10   25.30
  -2  -4   1  966.60   25.50
   1   4  -1 2182.68   52.69
   1   4  -1 2181.08   52.89
   1   4  -1 2226.78   53.09
  -1  -4   1 2155.48   52.79
  -1  -4   1 2229.18   53.19
  -1  -4   1 2136.39   52.79
   0   4  -1  750.72   19.20
   0   4  -1  771.72   18.80
   0  -4   1  755.12   19.20
   0  -4   1  761.02   19.00
   0  -4   1  769.22   18.80
  -1   4  -1  987.40   23.80
  -1   4  -1  982.30   24.20
   1  -4   1  950.30   23.90
   1  -4   1  989.20   23.70
   1  -4   1  944.81   23.40
  -2   4  -1  419.46   10.30
  -2   4  -1  401.76   10.80
   2  -4   1  383.56   10.60
   2  -4   1  402.46    9.90
   2  -4   1  407.36   10.60
  -3   4  -1  131.49    3.60
  -3   4  -1  134.09    4.30
  -3   4  -1  135.19    4.00
   3  -4   1  133.89    4.30
  -4   4  -1    2.00    1.10
  -4   4  -1    2.80    0.80
   4  -4   1    1.30    1.20
  -5   4  -1   22.10    3.20
  -5   4  -1   23.00    1.70
  -5   4  -1   17.10    2.10
  -6   4  -1    7.10    2.50
  -6  -3   1   21.00    3.00
  -6  -3   1   21.20    3.40
  -5  -3   1   37.50    3.20
   4   3  -1    2.60    0.90
  -4  -3   1    4.10    1.40
  -4  -3   1    5.00    1.60
  -4  -3   1    2.70    1.30
   3   3  -1  161.18    5.20
   3   3  -1  173.08    4.50
   3   3  -1  174.88    4.90
  -3  -3   1  168.48    5.00
  -3  -3   1  167.88    4.70
  -3  -3   1  166.28    5.00
  -3  -3   1  174.18    5.40
   2   3  -1  521.65   13.50
   2   3  -1  535.95   13.00
   2   3  -1  531.55   13.20
  -2  -3   1  517.65   13.20
  -2  -3   1  531.75   13.10
  -2  -3   1  522.15   13.20
  -2  -3   1  516.95   13.50
   1   3  -1  566.64   13.50
   1   3  -1  557.74   13.90
  -1  -3   1  527.35   13.50
  -1  -3   1  543.45   13.60
  -1  -3   1  535.35   13.90
   0   3  -1  136.79    3.70
   0   3  -1  136.09    4.10
   0  -3   1  135.29    3.80
   0  -3   1  134.29    3.70
   0  -3   1  136.79    3.60
   0  -3   1  132.59    4.00
  -1   3  -1   27.20    1.70
  -1   3  -1   27.60    1.20
   1  -3   1   27.80    1.40
   1  -3   1   28.90    1.20
   1  -3   1   29.00    1.10
  -2   3  -1 1691.23   41.40
  -2   3  -1 1746.43   41.80
  -2   3  -1 1769.92   41.60
   2  -3   1 1700.33   41.40
   2  -3   1 1765.62   41.80
   2  -3   1 1688.63   41.30
  -3   3  -1   27.00    1.60
  -3   3  -1   28.00    1.20
  -3   3  -1   26.30    1.40
   3  -3   1   28.10    1.70
  -4   3  -1  232.98    6.70
  -4   3  -1  235.68    6.00
  -4   3  -1  226.98    6.30
   4  -3   1  227.68    6.40
  -5   3  -1  201.68    6.20
  -5   3  -1  193.08    5.10
  -5   3  -1  186.98    5.90
   5  -3   1  200.48    5.50
  -6   3  -1  236.08    8.40
  -6   3  -1  237.08    7.80
  -6  -2   1  172.58    7.00
  -6  -2   1  173.18    6.30
  -5  -2   1   25.80    2.90
  -5  -2   1   27.00    2.60
   4   2  -1  790.62   19.50
  -4  -2   1  808.62   20.20
  -4  -2   1  762.12   19.60
  -4  -2   1  788.52   19.10
  -4  -2   1  795.92   19.80
   3   2  -1    8.40    0.90
   3   2  -1   10.70    1.50
  -3  -2   1    7.90    0.90
  -3  -2   1    8.20    1.10
  -3  -2   1    8.80    0.80
  -3  -2   1   10.60    1.30
   2   2  -1 5368.66  131.99
  -2  -2   1 5362.76  132.69
   1   2  -1  735.13   18.20
   1   2  -1  741.53   18.10
   1   2  -1  758.12   18.40
  -1  -2   1  784.82   18.40
  -1  -2   1  746.33   18.40
  -1  -2   1  728.33   18.20
   0   2  -1 2879.11   70.59
   0  -2   1 2822.92   70.79
  -1   2  -1   56.59    1.60
  -1   2  -1   55.29    1.80
  -1   2  -1   55.49    1.70
   1  -2   1   60.59    1.60
   1  -2   1   57.29    1.70
  -2   2  -1  438.76   10.20
  -2   2  -1  416.76   10.30
  -2   2  -1  433.76   10.50
   2  -2   1  378.96   10.40
   2  -2   1  401.76   10.30
  -3   2  -1   30.80    1.50
  -3   2  -1   25.80    1.00
  -3   2  -1   24.90    1.50
  -4   2  -1  106.89    2.90
  -4   2  -1  108.29    3.70
  -4   2  -1  105.69    3.70
   4  -2   1  110.69    3.20
  -5   2  -1    4.70    1.70
  -5   2  -1    9.60    1.80
  -6   2  -1   46.30    4.00
  -6   2  -1   44.70    4.40
  -6  -1   1   58.49    4.20
  -6  -1   1   58.29    3.50
  -5  -1   1  651.63   16.90
  -5  -1   1  624.34   16.20
  -5  -1   1  651.73   16.50
   4   1  -1  487.55   12.30
  -4  -1   1  480.75   12.30
  -4  -1   1  480.65   12.70
  -4  -1   1  484.15   12.20
   3   1  -1    2.70    0.80
   3   1  -1    3.70    0.60
  -3  -1   1    0.60    0.30
  -3  -1   1    1.00    0.60
  -3  -1   1    1.20    0.60
  -3  -1   1    0.90    0.50
   2   1  -1  633.94   15.40
   2   1  -1  667.23   15.90
  -2  -1   1  605.84   15.70
  -2  -1   1  619.54   15.40
  -2  -1   1  650.73   15.30
   1   1  -1 2993.70   72.69
  -1  -1   1 2973.00   72.89
   0   1  -1 1722.73   42.80
   0  -1   1 1744.43   42.90
  -1   1  -1 3773.42   93.89
   1  -1   1 3928.81   94.19
  -2   1  -1 1723.53   41.80
  -2   1  -1 1782.12   41.80
   2  -1   1 1752.92   41.80
   2  -1   1 1694.63   41.70
   2  -1   1 1711.03   41.40
  -3   1  -1  188.98    5.40
  -3   1  -1  193.18    4.90
  -3   1  -1  196.98    5.50
  -3   1  -1  193.98    5.60
   3  -1   1  202.28    5.40
  -4   1  -1    4.20    1.10
  -4   1  -1    0.70    1.10
  -4   1  -1    1.20    1.10
  -5   1  -1  703.53   18.80
  -5   1  -1  721.73   18.50
  -6   1  -1   80.19    5.20
  -6   1  -1   74.99    4.60
  -7   0   1    3.30    2.50
  -7   0   1    1.10    2.90
  -6   0   1   36.00    2.90
  -6   0   1   36.10    3.10
  -6   0   1   41.50    3.40
  -5   0   1  128.79    4.20
  -5   0   1  123.79    3.90
  -5   0   1  124.59    4.60
   4   0  -1 1471.65   36.20
  -4   0   1 1478.05   36.60
  -4   0   1 1521.05   36.00
  -4   0   1 1497.65   36.20
   3   0  -1   28.30    1.30
  -3   0   1   25.80    1.00
  -3   0   1   27.30    1.10
  -3   0   1   27.20    1.40
   2   0  -1  948.11   22.70
  -2   0   1  944.71   22.90
  -2   0   1  938.01   22.70
   1   0  -1  961.20   23.30
  -1   0   1  964.20   23.40
   0   0  -1 1442.76   36.00
   0   0   1 1452.25   36.10
  -1   0  -1  248.98    6.10
  -1   0  -1  251.57    6.20
  -1   0  -1  247.28    6.20
  -1   0  -1  238.68    6.20
   1   0   1  243.28    6.20
   1   0   1  239.08    6.00
   1   0   1  234.18    6.10
  -2   0  -1 1532.25   36.40
  -2   0  -1 1479.65   36.50
  -2   0  -1 1508.35   36.40
  -2   0  -1 1521.65   36.20
   2   0   1 1514.35   36.10
   2   0   1 1465.85   36.30
  -3   0  -1   27.10    1.50
  -3   0  -1   30.70    1.70
  -3   0  -1   29.00    1.90
  -3   0  -1   27.40    1.80
   3   0   1   34.50    1.60
   3   0   1   30.50    1.30
  -4   0  -1  244.18    7.40
  -4   0  -1  251.47    6.70
  -4   0  -1  245.68    7.10
  -5   0  -1   29.30    2.90
  -5   0  -1   28.90    2.20
  -5   0  -1   26.90    3.20
  -6   0  -1   91.79    5.20
  -6   0  -1   85.99    5.40
  -7   1   1    6.80    2.40
  -7   1   1    6.20    2.80
  -6   1   1   10.30    1.90
  -6   1   1    8.20    1.20
  -6   1   1    8.60    2.00
  -5   1   1   53.59    2.90
  -5   1   1   52.99    2.70
  -5   1   1   53.29    2.50
  -5   1   1   52.79    2.00
  -4   1   1   78.69    2.40
  -4   1   1   86.99    2.70
  -4   1   1   78.69    3.00
  -3   1   1  271.37    6.80
  -3   1   1  261.07    6.50
  -3   1   1  257.37    6.70
  -2   1   1 1993.70   47.80
   1  -1  -1 3753.32   88.89
  -1   1   1 3571.94   88.69
   0  -1  -1 3947.60   96.49
   0   1   1 3912.61   96.39
  -1  -1  -1 4454.55  109.69
   1   1   1 4410.06  109.69
  -2  -1  -1 1813.72   44.00
  -2  -1  -1 1824.22   43.80
   2   1   1 1772.42   43.50
   2   1   1 1859.81   43.90
   2   1   1 1839.42   43.80
   2   1   1 1795.92   44.00
  -3  -1  -1  454.15   11.50
  -3  -1  -1  443.76   11.90
  -3  -1  -1  427.56   11.80
  -3  -1  -1  455.05   11.80
   3   1   1  477.45   11.40
   3   1   1  454.85   11.60
  -4  -1  -1  163.18    5.50
  -4  -1  -1  160.88    5.10
  -4  -1  -1  162.18    5.30
  -5  -1  -1   12.80    2.00
  -5  -1  -1   13.80    3.10
  -5  -1  -1   11.90    2.00
  -6  -1  -1   35.90    5.00
  -6  -1  -1   31.40    4.50
  -7   2   1    0.40    2.10
  -7   2   1   -3.40    2.60
  -6   2   1  378.86   11.20
  -6   2   1  402.06   10.80
  -6   2   1  403.66   11.30
  -5   2   1    3.70    1.30
  -5   2   1    5.10    1.40
  -5   2   1    4.20    0.70
  -5   2   1    1.30    1.10
  -4   2   1  671.23   16.30
  -4   2   1  670.13   16.60
  -4   2   1  690.13   16.60
  -4   2   1  653.93   16.80
   3  -2  -1   65.69    2.30
  -3   2   1   64.79    2.20
  -3   2   1   66.59    1.90
  -3   2   1   64.79    2.20
   2  -2  -1  157.38    4.30
   2  -2  -1  162.58    4.10
  -2   2   1  138.49    4.50
  -2   2   1  159.48    4.10
   1  -2  -1 2218.98   51.49
  -1   2   1 2148.39   51.39
  -1   2   1 2165.78   51.49
  -1   2   1 2042.50   51.59
   0  -2  -1 1227.18   29.60
   0  -2  -1 1248.98   29.80
   0  -2  -1 1240.28   29.80
   0  -2  -1 1221.38   29.80
   0   2   1 1209.98   29.80
   0   2   1 1208.98   29.80
   0   2   1 1238.48   29.80
  -1  -2  -1 1329.67   33.00
  -1  -2  -1 1361.56   33.00
  -1  -2  -1 1366.76   32.90
  -1  -2  -1 1395.66   32.90
  -1  -2  -1 1348.67   32.80
   1   2   1 1340.27   32.90
   1   2   1 1364.86   33.00
   1   2   1 1370.16   32.90
   1   2   1 1322.97   32.70
  -2  -2  -1  708.73   17.90
  -2  -2  -1  737.73   17.90
  -2  -2  -1  580.24   17.80
  -2  -2  -1  711.83   17.80
  -2  -2  -1  732.83   17.70
   2   2   1  720.63   17.80
   2   2   1  762.92   17.60
   2   2   1  710.63   17.70
   2   2   1  709.93   17.20
  -3  -2  -1  530.35   13.90
  -3  -2  -1  535.15   13.60
  -3  -2  -1  549.25   14.10
   3   2   1  531.35   12.90
   3   2   1  544.35   13.50
   3   2   1  496.45   13.50
  -4  -2  -1  294.27    8.60
  -4  -2  -1  284.87    8.70
  -5  -2  -1   25.50    3.10
  -7   3   1    5.80    2.30
  -7   3   1    8.50    2.80
  -6   3   1    2.00    1.50
  -6   3   1    2.90    2.10
  -6   3   1    0.30    0.80
  -5   3   1  145.79    4.30
  -5   3   1  152.18    4.80
  -5   3   1  139.79    4.30
   4  -3  -1   20.00    1.90
  -4   3   1   20.50    1.10
  -4   3   1   20.40    0.90
  -4   3   1   20.20    1.70
  -4   3   1   22.90    1.40
  -4   3   1   18.50    1.00
   3  -3  -1 1695.03   39.50
   3  -3  -1 1434.56   39.50
  -3   3   1 1685.23   39.00
  -3   3   1 1670.53   39.40
   2  -3  -1    3.90    0.80
   2  -3  -1    3.70    0.70
  -2   3   1    6.60    1.00
   1  -3  -1 6600.54  160.78
  -1   3   1 6432.76  159.98
   0  -3  -1  228.88    6.20
   0  -3  -1  226.88    6.20
   0  -3  -1  226.68    6.00
   0  -3  -1  227.28    6.20
   0   3   1  231.98    6.10
   0   3   1  226.88    6.20
   0   3   1  225.38    6.30
   0   3   1  223.28    6.10
  -1  -3  -1 3259.57   78.39
  -1  -3  -1 3294.47   78.29
  -1  -3  -1 3228.58   78.49
  -1  -3  -1 3317.47   78.59
  -1  -3  -1 3306.57   78.29
   1   3   1 3225.78   78.49
   1   3   1 3248.07   78.49
   1   3   1 3201.88   78.29
   1   3   1 3238.18   78.19
  -2  -3  -1  182.98    5.50
  -2  -3  -1  189.08    5.70
  -2  -3  -1  178.18    5.50
  -2  -3  -1  186.98    5.70
  -2  -3  -1  191.78    5.30
   2   3   1  183.48    5.50
   2   3   1  175.78    5.60
   2   3   1  191.28    5.40
   2   3   1  190.28    5.00
  -3  -3  -1  505.75   13.50
  -3  -3  -1  507.85   13.70
   3   3   1  485.15   13.00
   3   3   1  519.45   12.50
  -4  -3  -1   83.59    4.30
  -4  -3  -1   84.29    4.30
  -5  -3  -1    6.10    3.00
  -5  -3  -1    9.00    2.90
  -6   4   1  225.08    7.20
  -6   4   1  223.18    6.50
  -5   4   1    8.80    1.30
  -5   4   1    7.20    1.50
   4  -4  -1   90.29    3.60
  -4   4   1   94.09    2.80
  -4   4   1   99.49    3.40
   3  -4  -1  648.44   16.00
   3  -4  -1  640.64   16.50
  -3   4   1  632.44   16.60
  -3   4   1  641.94   15.90
  -3   4   1  662.23   16.40
   2  -4  -1  385.46    9.90
  -2   4   1  383.76    9.80
  -2   4   1  372.86   10.20
  -2   4   1  387.46   10.10
   1  -4  -1  407.76   10.70
   1  -4  -1  436.76   11.30
   1  -4  -1  440.56   11.20
   1  -4  -1  414.26   11.30
  -1   4   1  426.96   11.30
  -1   4   1  428.26   11.20
  -1   4   1  446.26   11.00
  -1   4   1  433.86   11.40
   0  -4  -1  108.89    3.40
   0  -4  -1  108.49    3.80
   0  -4  -1  111.59    3.70
   0   4   1  107.29    3.80
   0   4   1  105.29    3.80
   0   4   1  109.59    3.50
   0   4   1  113.39    3.50
  -1  -4  -1   27.80    1.80
  -1  -4  -1   26.40    2.10
  -1  -4  -1   29.60    2.00
   1   4   1   28.60    2.00
   1   4   1   28.30    1.80
   1   4   1   28.30    2.00
   1   4   1   29.20    1.60
  -2  -4  -1  768.52   19.70
  -2  -4  -1  805.72   20.20
  -2  -4  -1  779.32   20.20
   2   4   1  777.92   19.40
   2   4   1  779.42   19.70
  -3  -4  -1  378.46   10.80
  -3  -4  -1  374.96   10.00
  -3  -4  -1  368.56   10.80
   3   4   1  369.56    9.50
   3   4   1  370.96   10.10
  -4  -4  -1   49.90    4.40
   4   4   1   39.50    1.70
  -6   5   1   13.70    1.90
  -6   5   1   12.60    2.20
  -5   5   1   48.70    2.70
  -5   5   1   43.20    3.20
   4  -5  -1  445.06   11.20
  -4   5   1  442.06   11.10
  -4   5   1  435.96   11.70
   3  -5  -1 1719.83   43.20
  -3   5   1 1815.52   43.60
  -3   5   1 1806.52   43.10
   2  -5  -1  161.98    4.90
  -2   5   1  162.78    4.80
  -2   5   1  164.88    5.10
   1  -5  -1 1025.10   25.00
   1  -5  -1 1009.60   24.20
   1  -5  -1  918.01   24.70
  -1   5   1 1004.30   24.70
  -1   5   1  994.40   24.50
   0  -5  -1  864.01   21.80
   0  -5  -1  882.01   22.40
   0   5   1  873.51   22.00
   0   5   1  901.01   22.10
  -1  -5  -1 1725.03   42.90
   1   5   1 1744.43   42.30
   1   5   1 1735.53   42.50
  -2  -5  -1   21.00    2.90
   2   5   1   21.00    2.10
   2   5   1   24.80    1.90
  -3  -5  -1   66.69    4.10
  -3  -5  -1   66.29    4.40
   3   5   1   59.59    3.50
   3   5   1   62.09    2.70
  -4  -5  -1    2.50    3.20
  -4  -5  -1    3.00    2.90
  -5   6   1   -1.30    1.90
  -4   6   1  415.96   11.30
  -4   6   1  401.06   10.50
   3  -6  -1   89.19    3.60
  -3   6   1  101.89    3.90
  -3   6   1  100.79    3.50
  -2   6   1   41.80    2.50
  -2   6   1   38.00    2.30
   1  -6  -1   62.89    3.40
   1  -6  -1   59.49    2.40
  -1   6   1   57.79    2.80
  -1   6   1   61.39    2.90
   0  -6  -1   23.50    2.70
   0  -6  -1   16.60    1.90
   0   6   1   18.70    2.00
   0   6   1   23.10    2.10
   1   6   1  192.28    5.70
   1   6   1  177.58    6.40
  -2  -6  -1  358.46   11.00
   2   6   1  359.06    9.70
   2   6   1  348.57   10.10
  -3  -6  -1   31.60    4.10
   3   6   1   27.20    3.40
   3   6   1   28.30    2.40
  -5   7   1    2.00    2.80
  -5   7   1    2.10    2.20
  -4   7   1  429.96   11.30
  -4   7   1  441.16   12.20
  -3   7   1  132.49    4.50
  -3   7   1  135.39    5.10
  -2   7   1  367.56   10.00
  -2   7   1  359.86   10.30
   1  -7  -1   27.30    3.40
  -1   7   1   31.30    2.60
  -1   7   1   35.00    2.80
   0  -7  -1  377.86   11.20
   0   7   1  360.96   10.40
   0   7   1  370.46   10.40
  -1  -7  -1  135.89    6.20
   1   7   1  119.49    5.10
   1   7   1  134.69    5.00
  -2  -7  -1    5.00    2.80
   2   7   1    7.70    2.40
   2   7   1    9.60    2.00
  -3   8   1    2.70    1.90
  -2   8   1    1.30    1.60
  -2   8   1    0.90    1.80
   1  -8  -1   23.60    3.40
  -1   8   1   25.80    3.20
  -1   8   1   28.40    3.30
   2   8  -2   24.60    3.10
  -2  -8   2   18.40    3.20
  -2  -8   2   22.70    2.70
   1   8  -2   64.99    3.70
  -1  -8   2   78.59    3.90
  -1  -8   2   69.69    5.40
   0   8  -2   52.29    3.40
   0  -8   2   67.79    5.00
   0  -8   2   65.59    3.00
  -1   8  -2    3.20    1.60
  -2   8  -2    5.70    1.90
  -3   8  -2    4.40    2.50
  -3   8  -2    0.70    1.90
   3   7  -2   26.00    2.70
  -3  -7   2   23.00    3.20
  -2  -7   2   17.80    2.70
   1   7  -2  248.88    7.80
  -1  -7   2  269.17    8.70
  -1  -7   2  265.77    7.50
   0   7  -2   20.90    2.00
   0  -7   2   17.70    2.60
   0  -7   2   19.20    1.90
  -1   7  -2   45.30    3.20
   1  -7   2   45.20    2.00
  -2   7  -2   53.59    3.10
  -3   7  -2   51.39    3.60
  -3   7  -2   51.09    3.10
  -4   7  -2   22.50    2.70
  -4   7  -2   26.00    3.00
   4   6  -2   12.10    1.60
  -4  -6   2    7.90    2.90
   3   6  -2  159.28    5.00
  -3  -6   2  161.78    6.40
   2   6  -2   14.70    2.00
   2   6  -2   17.10    1.80
  -2  -6   2   16.70    2.30
   1   6  -2  209.58    6.50
   1   6  -2  221.98    6.30
  -1  -6   2  216.98    7.00
  -1  -6   2  221.68    6.30
   0   6  -2    7.40    1.20
   0  -6   2    9.50    1.70
   0  -6   2    9.20    1.10
  -1   6  -2    1.10    0.90
   1  -6   2    1.70    0.70
   1  -6   2    1.40    1.00
  -2   6  -2    0.00    1.30
  -2   6  -2    1.00    1.00
   2  -6   2    1.00    1.10
   2  -6   2    3.40    0.80
  -3   6  -2   13.60    1.80
  -3   6  -2   20.60    2.00
   3  -6   2   14.90    1.50
  -4   6  -2   71.89    3.30
  -4   6  -2   69.79    4.00
  -5   6  -2   52.99    4.20
  -5   6  -2   52.39    3.00
  -5  -5   2    4.90    2.30
  -5  -5   2    5.50    2.80
   4   5  -2   75.39    2.90
  -4  -5   2   68.69    5.40
   3   5  -2  139.89    4.50
   3   5  -2  143.79    4.30
  -3  -5   2  142.79    5.30
   2   5  -2  142.39    4.70
   2   5  -2  146.39    4.40
  -2  -5   2  156.58    5.30
   1   5  -2  293.47    8.20
   1   5  -2  301.47    8.00
  -1  -5   2  307.57    8.00
  -1  -5   2  295.07    8.50
   0   5  -2  281.57    7.60
   0  -5   2  285.17    7.40
   0  -5   2  280.67    8.10
   0  -5   2  276.47    7.60
  -1   5  -2  121.79    3.80
   1  -5   2  119.39    3.40
   1  -5   2  119.39    3.70
  -2   5  -2  269.47    7.40
  -2   5  -2  275.97    7.60
   2  -5   2  275.97    7.00
   2  -5   2  267.07    7.10
  -3   5  -2    1.40    1.10
  -3   5  -2    0.30    0.90
   3  -5   2    0.30    0.80
  -4   5  -2   58.89    2.60
  -4   5  -2   74.09    4.20
  -4   5  -2   52.69    2.40
  -5   5  -2   30.70    3.50
  -5   5  -2   37.90    2.40
  -6  -4   2   53.69    5.70
  -6  -4   2   53.79    4.60
  -5  -4   2  368.46   10.50
  -5  -4   2  372.76   11.30
   4   4  -2   21.80    1.70
  -4  -4   2   25.80    2.70
  -4  -4   2   22.00    2.30
  -4  -4   2   20.30    2.10
   3   4  -2  157.28    4.30
   3   4  -2  151.28    4.50
  -3  -4   2  147.19    4.50
  -3  -4   2  151.68    5.20
   2   4  -2   24.50    1.60
   2   4  -2   25.80    2.00
   2   4  -2   26.30    1.40
  -2  -4   2   23.30    1.90
  -2  -4   2   22.60    1.60
  -2  -4   2   22.40    1.60
   1   4  -2  243.68    7.00
   1   4  -2  252.57    6.60
   1   4  -2  250.47    6.70
  -1  -4   2  248.18    6.60
  -1  -4   2  250.67    6.70
  -1  -4   2  249.97    7.00
  -1  -4   2  235.38    6.70
   0   4  -2 1652.33   40.20
   0   4  -2 1653.43   39.80
   0  -4   2 1666.23   39.70
   0  -4   2 1619.24   39.90
   0  -4   2 1661.03   40.20
   0  -4   2 1621.44   39.80
  -1   4  -2  623.74   16.00
  -1   4  -2  648.44   15.60
   1  -4   2  610.24   15.70
   1  -4   2  624.04   15.40
   1  -4   2  613.74   15.50
  -2   4  -2  652.13   17.50
  -2   4  -2  699.73   17.00
  -2   4  -2  678.53   17.20
   2  -4   2  680.83   16.70
   2  -4   2  697.13   17.00
   2  -4   2  694.93   17.20
  -3   4  -2  224.78    5.90
  -3   4  -2  221.18    6.40
  -3   4  -2  210.28    5.90
   3  -4   2  216.98    5.90
   3  -4   2  221.38    6.30
  -4   4  -2  479.15   12.60
  -4   4  -2  497.25   13.10
  -4   4  -2  510.35   12.50
   4  -4   2  492.65   12.80
  -5   4  -2  144.39    5.50
  -6   4  -2   18.40    3.20
  -6  -3   2   26.00    3.30
  -6  -3   2   25.00    2.70
   5   3  -2   42.40    2.40
  -5  -3   2   43.50    3.40
  -5  -3   2   45.90    2.90
  -5  -3   2   44.40    2.10
   4   3  -2  266.97    7.20
  -4  -3   2  281.67    8.10
  -4  -3   2  271.37    7.40
  -4  -3   2  271.67    7.20
   3   3  -2  327.27    8.10
   3   3  -2  310.67    8.60
   3   3  -2  327.07    8.00
  -3  -3   2  308.27    8.30
  -3  -3   2  310.77    8.40
  -3  -3   2  306.57    8.10
  -3  -3   2  312.47    8.70
   2   3  -2  647.74   16.20
   2   3  -2  655.53   15.80
   2   3  -2  644.94   15.70
  -2  -3   2  620.04   15.90
  -2  -3   2  648.24   15.90
  -2  -3   2  636.74   16.20
   1   3  -2   93.69    3.10
   1   3  -2   90.79    2.70
   1   3  -2   91.99    2.70
  -1  -3   2   89.59    2.70
  -1  -3   2   91.49    2.80
  -1  -3   2   88.19    3.00
   0   3  -2 1192.68   29.70
   0   3  -2 1208.18   29.40
   0  -3   2 1281.07   29.80
   0  -3   2 1169.68   29.40
   0  -3   2 1222.98   29.50
  -1   3  -2    7.00    0.70
  -1   3  -2    6.10    0.80
  -1   3  -2    5.80    0.70
  -1   3  -2    5.80    0.90
   1  -3   2    5.70    0.70
   1  -3   2    6.60    0.90
  -2   3  -2  128.19    3.70
  -2   3  -2  136.59    3.90
  -2   3  -2  130.39    3.60
   2  -3   2  122.49    3.70
   2  -3   2  134.29    3.40
   2  -3   2  131.09    3.30
   2  -3   2  130.49    3.80
  -3   3  -2  188.98    5.60
  -3   3  -2  201.68    5.10
  -3   3  -2  184.88    5.40
   3  -3   2  194.38    5.40
   3  -3   2  188.78    5.30
  -4   3  -2    5.00    1.40
  -4   3  -2    5.10    1.40
   4  -3   2    4.30    1.10
  -5   3  -2   26.20    3.00
  -5   3  -2   26.50    3.00
  -6   3  -2   22.90    3.20
  -6   3  -2   26.40    3.60
  -6  -2   2  314.67    9.80
  -6  -2   2  312.27    9.10
   5   2  -2  855.81   21.60
  -5  -2   2  895.81   22.40
  -5  -2   2  894.81   21.80
  -5  -2   2  841.92   21.10
   4   2  -2   55.49    2.60
   4   2  -2   63.59    2.20
  -4  -2   2   60.09    2.40
  -4  -2   2   62.09    2.30
  -4  -2   2   60.69    2.80
   3   2  -2  302.17    8.10
   3   2  -2  323.27    8.40
  -3  -2   2  304.67    7.90
  -3  -2   2  312.17    8.00
  -3  -2   2  314.47    8.40
  -3  -2   2  324.07    8.20
   2   2  -2  244.08    6.30
   2   2  -2  235.88    5.80
  -2  -2   2  231.68    6.00
  -2  -2   2  229.38    6.20
  -2  -2   2  229.08    5.90
  -1  -2   2 2859.71   68.59
   0  -2   2 9999.00  241.28
  -1   2  -2   28.40    1.30
  -1   2  -2   30.60    1.20
  -1   2  -2   30.20    1.20
   1  -2   2   26.20    1.30
   1  -2   2   30.70    1.30
   1  -2   2   28.80    1.30
  -2   2  -2 1840.22   43.60
  -2   2  -2 1841.32   43.50
  -2   2  -2 1778.22   43.30
   2  -2   2 1787.02   43.50
   2  -2   2 1825.12   43.10
   2  -2   2 1800.52   43.60
   2  -2   2 1752.02   43.50
  -3   2  -2  246.18    6.90
  -3   2  -2  248.78    6.80
   3  -2   2  249.18    6.60
   3  -2   2  248.08    6.80
  -4   2  -2  904.61   23.40
  -4   2  -2  950.00   23.80
  -4   2  -2  977.40   23.60
   4  -2   2  915.91   22.70
  -5   2  -2    1.80    2.00
  -5   2  -2   -0.40    1.80
  -6   2  -2    2.00    3.10
  -6   2  -2    4.40    2.70
  -7  -1   2   15.40    3.30
  -7  -1   2   14.70    2.50
  -6  -1   2  201.68    6.30
  -6  -1   2  193.68    6.80
   5   1  -2   31.00    1.90
  -5  -1   2   27.80    1.20
  -5  -1   2   30.00    2.50
  -5  -1   2   33.00    2.00
  -5  -1   2   30.70    1.90
   4   1  -2  750.72   18.40
  -4  -1   2  755.42   18.90
  -4  -1   2  737.03   18.40
  -4  -1   2  752.62   18.50
   3   1  -2 1306.47   31.70
   3   1  -2 1359.96   32.00
  -3  -1   2 1334.17   32.10
  -3  -1   2 1291.97   32.10
  -3  -1   2 1292.37   31.70
   2   1  -2 5339.27  130.19
  -2  -1   2 5443.76  130.69
  -1  -1   2 1817.82   43.60
   0   1  -2 5013.80  122.09
   0  -1   2 5026.80  122.39
  -1   1  -2  784.92   18.50
  -1   1  -2  720.23   18.90
  -1   1  -2  731.03   18.90
   1  -1   2  762.22   18.50
   1  -1   2  819.32   18.50
   1  -1   2  751.72   18.90
   1  -1   2  783.22   18.60
  -2   1  -2 1343.47   32.50
  -2   1  -2 1336.37   32.40
  -2   1  -2 1330.27   32.00
   2  -1   2 1313.47   32.40
   2  -1   2 1340.07   32.00
   2  -1   2 1328.07   32.40
   2  -1   2 1338.77   32.10
  -3   1  -2   15.40    1.70
  -3   1  -2   13.30    1.10
  -3   1  -2   13.40    1.60
  -3   1  -2   13.10    1.80
   3  -1   2   11.80    0.90
   3  -1   2   11.30    1.30
   3  -1   2   13.70    1.00
  -4   1  -2   33.00    2.50
  -4   1  -2   30.30    2.60
  -5   1  -2  109.89    5.30
  -5   1  -2  109.09    5.80
  -6   1  -2    2.50    3.10
  -6   1  -2   -0.30    2.60
  -7   0   2    1.30    2.60
  -7   0   2    0.10    1.90
  -6   0   2  130.19    4.40
  -6   0   2  141.09    4.70
  -6   0   2  140.69    5.20
  -5   0   2   47.30    2.30
  -5   0   2   53.29    2.20
  -5   0   2   50.09    1.80
  -5   0   2   45.40    2.70
  -5   0   2   51.69    1.70
  -4   0   2   11.50    0.90
  -4   0   2   11.00    1.30
  -4   0   2   10.70    1.00
  -3   0   2  271.87    6.60
  -3   0   2  248.48    7.00
  -2   0   2   43.50    1.40
  -2   0   2   45.40    1.50
   1   0  -2 2874.51   70.29
  -1   0   2 2874.71   70.49
   0   0  -2 1551.84   37.30
   0   0  -2 1569.64   37.30
   0   0   2 1542.85   37.30
   0   0   2 1543.45   37.40
  -1   0  -2 1472.65   35.40
  -1   0  -2 1455.15   35.40
  -1   0  -2 1463.55   35.40
   1   0   2 1473.75   35.30
   1   0   2 1483.05   35.30
   1   0   2 1432.86   35.40
  -2   0  -2   64.19    2.50
  -2   0  -2   69.59    2.60
  -2   0  -2   71.49    2.60
  -2   0  -2   72.19    2.60
   2   0   2   71.59    2.40
   2   0   2   69.79    2.50
  -3   0  -2 1183.78   30.20
  -3   0  -2 1223.68   30.40
  -3   0  -2 1231.38   30.30
  -3   0  -2 1228.68   29.80
   3   0   2 1262.27   29.70
  -4   0  -2   25.50    2.50
  -4   0  -2   28.30    2.30
  -4   0  -2   27.40    2.60
   4   0   2   27.10    1.50
  -5   0  -2   97.09    4.80
  -5   0  -2   87.89    4.90
  -6   0  -2   26.10    3.70
  -6   0  -2   32.20    4.10
  -7   1   2   47.80    5.20
  -7   1   2   46.70    4.40
  -6   1   2   59.59    2.80
  -6   1   2   53.29    2.00
  -6   1   2   54.89    2.10
  -6   1   2   52.99    2.40
  -6   1   2   61.19    3.40
  -5   1   2 1634.64   39.30
  -5   1   2 1612.04   39.60
  -5   1   2 1620.24   40.00
  -5   1   2 1644.94   39.40
  -4   1   2   41.40    1.90
  -4   1   2   40.70    1.60
  -4   1   2   42.40    1.60
  -4   1   2   40.60    1.50
   2  -1  -2  476.05   11.70
   2  -1  -2  485.75   11.80
  -2   1   2  479.85   11.70
  -2   1   2  461.95   12.30
  -2   1   2  486.95   11.80
   0   1   2 3024.20   72.49
  -1  -1  -2 1760.32   42.60
  -1  -1  -2 1770.42   42.60
  -1  -1  -2 1750.62   42.70
  -1  -1  -2 1773.62   42.70
   1   1   2 1734.73   42.70
   1   1   2 1756.22   42.60
   1   1   2 1790.32   42.50
   1   1   2 1757.12   42.60
   1   1   2 1774.82   42.60
  -2  -1  -2  659.93   16.80
  -2  -1  -2  670.03   16.80
  -2  -1  -2  678.23   16.90
  -2  -1  -2  666.93   16.60
   2   1   2  657.53   16.70
   2   1   2  661.43   16.70
   2   1   2  673.53   16.50
   2   1   2  651.53   16.30
  -3  -1  -2    1.80    1.20
  -3  -1  -2    2.30    1.10
  -3  -1  -2    2.00    1.10
   3   1   2    2.40    0.90
  -4  -1  -2  228.48    7.30
  -4  -1  -2  218.88    6.60
  -4  -1  -2  224.08    7.20
   4   1   2  228.48    6.30
  -5  -1  -2  125.89    6.00
  -5  -1  -2  123.89    5.80
  -7   2   2   36.20    4.40
  -7   2   2   30.50    3.30
  -6   2   2    3.80    0.90
  -6   2   2    3.80    1.50
  -6   2   2    1.20    1.60
  -6   2   2    4.20    1.50
  -6   2   2    4.40    1.40
  -6   2   2    4.00    1.70
  -5   2   2   13.80    1.40
  -5   2   2   11.50    1.40
  -4   2   2   38.20    1.50
  -4   2   2   38.90    1.80
  -4   2   2   43.20    1.90
  -3   2   2  113.49    3.10
  -3   2   2  117.29    3.50
   2  -2  -2   18.20    1.20
   2  -2  -2   19.00    0.80
  -2   2   2   15.60    1.30
  -2   2   2   18.00    1.00
  -2   2   2   19.20    1.10
  -2   2   2   18.80    0.80
   1  -2  -2 1644.14   40.30
   1  -2  -2 1711.83   40.70
   1  -2  -2 1677.53   40.50
   1  -2  -2 1662.43   40.60
  -1   2   2 1662.73   40.70
  -1   2   2 1674.83   40.60
  -1   2   2 1723.23   40.40
  -1   2   2 1673.33   40.50
   0  -2  -2  264.57    7.20
   0  -2  -2  268.67    7.00
   0  -2  -2  261.67    6.90
   0   2   2  259.37    7.10
   0   2   2  263.07    7.00
   0   2   2  269.67    6.90
   0   2   2  260.77    6.90
   0   2   2  269.47    7.00
  -1  -2  -2 1025.60   25.60
  -1  -2  -2 1024.10   25.70
  -1  -2  -2 1029.30   25.50
  -1  -2  -2 1028.90   25.50
   1   2   2 1064.09   25.60
   1   2   2 1038.70   25.50
   1   2   2 1061.09   25.40
  -2  -2  -2  554.84   14.20
  -2  -2  -2  556.24   14.40
  -2  -2  -2  535.65   14.30
  -2  -2  -2  558.34   14.50
   2   2   2  576.14   14.10
   2   2   2  556.04   14.30
   2   2   2  536.35   14.10
   2   2   2  553.84   13.70
  -3  -2  -2  424.46   11.60
  -3  -2  -2  419.86   11.60
   3   2   2  401.16   10.40
   3   2   2  436.76   11.10
  -4  -2  -2  131.79    5.50
  -4  -2  -2  129.49    5.60
   4   2   2  150.08    4.70
  -5  -2  -2   35.50    4.00
  -5  -2  -2   44.40    5.00
  -7   3   2    6.50    2.20
  -7   3   2    7.60    2.50
  -6   3   2  137.69    4.10
  -6   3   2  140.69    4.50
  -6   3   2  142.59    4.90
  -5   3   2 1184.68   28.80
  -5   3   2 1210.58   29.30
  -5   3   2 1169.58   28.70
  -5   3   2 1188.38   29.40
  -4   3   2    3.00    0.70
  -4   3   2    4.50    0.90
   3  -3  -2  581.14   14.50
   3  -3  -2  563.44   14.00
  -3   3   2  563.24   14.40
  -3   3   2  545.25   14.00
  -3   3   2  553.04   14.30
   2  -3  -2  617.24   14.60
   2  -3  -2  609.14   15.40
   2  -3  -2  599.84   15.10
  -2   3   2  601.64   15.30
  -2   3   2  595.44   15.10
  -2   3   2  599.04   15.10
  -2   3   2  607.24   14.70
   1  -3  -2 1497.65   35.50
   1  -3  -2 1449.85   35.80
   1  -3  -2 1456.85   36.00
   1  -3  -2 1476.25   35.80
  -1   3   2 1478.45   36.10
  -1   3   2 1489.05   35.80
  -1   3   2 1461.05   35.50
  -1   3   2 1487.65   35.90
  -1   3   2 1440.66   35.80
   0  -3  -2  256.57    7.30
   0  -3  -2  259.77    6.90
   0  -3  -2  255.97    7.10
   0  -3  -2  257.57    7.00
   0  -3  -2  253.97    7.10
   0   3   2  263.77    7.00
   0   3   2  252.77    7.00
   0   3   2  256.77    7.00
   0   3   2  254.17    7.20
  -1  -3  -2  255.67    7.30
  -1  -3  -2  262.57    7.20
  -1  -3  -2  255.17    7.20
  -1  -3  -2  270.17    7.50
  -1  -3  -2  262.47    7.30
   1   3   2  248.88    7.30
   1   3   2  244.68    7.00
   1   3   2  267.37    7.20
   1   3   2  260.97    7.30
  -2  -3  -2   48.60    2.90
  -2  -3  -2   55.19    3.10
   2   3   2   54.89    2.50
   2   3   2   51.79    2.10
  -3  -3  -2   10.80    2.10
  -3  -3  -2   12.20    2.10
   3   3   2    8.60    1.40
   3   3   2    9.40    1.10
  -4  -3  -2   35.80    4.20
  -4  -3  -2   35.50    4.40
   4   3   2   37.00    2.90
  -7   4   2   20.10    3.20
  -7   4   2   18.00    2.70
  -7   4   2   14.30    2.10
  -6   4   2   40.30    2.70
  -6   4   2   41.80    3.20
  -5   4   2  117.09    4.30
  -5   4   2  116.19    3.40
  -5   4   2  114.79    4.10
   4  -4  -2  365.76    9.40
  -4   4   2  363.06    9.40
  -4   4   2  365.56    9.90
   3  -4  -2   24.30    1.70
  -3   4   2   23.10    2.00
  -3   4   2   27.00    1.60
  -3   4   2   26.20    1.90
   2  -4  -2  291.77    7.80
   2  -4  -2  268.67    8.10
   2  -4  -2  295.67    7.20
  -2   4   2  291.67    8.00
  -2   4   2  285.87    7.90
  -2   4   2  289.77    7.80
   1  -4  -2  181.38    5.40
   1  -4  -2  172.58    5.30
   1  -4  -2  183.58    4.90
  -1   4   2  181.28    5.40
  -1   4   2  181.48    5.40
  -1   4   2  169.78    5.50
  -1   4   2  174.98    5.20
   0  -4  -2  247.08    7.00
   0  -4  -2  248.58    6.70
   0  -4  -2  231.68    7.00
   0   4   2  237.38    6.80
   0   4   2  243.28    7.00
   0   4   2  245.68    6.90
  -1  -4  -2   23.10    2.30
  -1  -4  -2   23.50    2.30
  -1  -4  -2   21.20    2.10
   1   4   2   19.70    1.70
   1   4   2   27.00    2.00
  -2  -4  -2  785.82   20.80
  -2  -4  -2  839.02   21.00
   2   4   2  787.92   20.30
   2   4   2  787.72   19.90
  -3  -4  -2   28.30    4.70
  -3  -4  -2   26.50    4.40
   3   4   2   19.70    2.50
   3   4   2   18.40    1.60
  -4  -4  -2   60.79    5.40
  -4  -4  -2   73.59    5.70
   4   4   2   62.89    4.20
  -6   5   2   28.20    3.30
  -6   5   2   20.80    2.70
  -5   5   2  192.18    6.10
  -5   5   2  189.38    5.30
   4  -5  -2   12.90    1.40
  -4   5   2   17.00    2.00
  -4   5   2   13.80    1.70
   3  -5  -2   11.00    1.30
  -3   5   2   15.60    1.70
  -3   5   2   13.30    1.40
   2  -5  -2   25.30    1.30
  -2   5   2   28.20    2.10
  -2   5   2   26.20    1.90
   1  -5  -2    1.70    1.20
   1  -5  -2    1.10    1.00
  -1   5   2    0.50    0.90
  -1   5   2    0.80    0.90
   0  -5  -2  104.79    3.80
   0  -5  -2  112.59    4.30
   0   5   2  107.39    4.00
   0   5   2  117.39    4.00
  -1  -5  -2  149.39    5.50
   1   5   2  151.58    4.90
   1   5   2  153.08    5.10
  -2  -5  -2   27.00    3.50
   2   5   2   24.00    2.70
   2   5   2   20.70    2.10
  -3  -5  -2    2.10    2.60
  -3  -5  -2    0.60    2.60
   3   5   2    2.80    1.20
   3   5   2    5.10    1.90
  -5   6   2  104.89    4.50
  -5   6   2   94.19    3.50
  -4   6   2   22.40    2.20
  -4   6   2   21.10    2.70
  -3   6   2   14.60    1.70
  -3   6   2   16.40    1.90
  -2   6   2  447.46   12.00
  -2   6   2  452.05   12.30
   1  -6  -2   10.80    1.90
   1  -6  -2   14.60    1.60
  -1   6   2   13.10    1.70
  -1   6   2   11.00    1.60
   0  -6  -2  431.16   11.90
   0   6   2  443.36   11.60
   0   6   2  379.16   13.40
  -1  -6  -2    2.50    2.20
   1   6   2    2.50    1.50
   1   6   2    3.30    1.80
  -2  -6  -2  196.68    7.60
   2   6   2  193.78    6.10
   2   6   2  187.28    6.60
  -4   7   2   21.20    2.60
  -4   7   2   20.10    2.50
  -3   7   2   10.30    2.00
  -3   7   2   10.10    1.80
  -2   7   2    3.80    1.70
   1  -7  -2   15.90    2.80
  -1   7   2   14.00    2.10
  -1   7   2   16.70    2.20
   0  -7  -2   51.19    4.50
   0   7   2   48.50    3.60
   0   7   2   50.19    3.50
  -1  -7  -2   12.20    2.90
   1   7   2    9.20    2.20
   1   7   2   11.20    2.00
   2   8  -3   17.40    2.40
  -2  -8   3   14.40    2.50
  -2  -8   3   15.70    3.60
   1   8  -3   23.70    2.90
  -1  -8   3   25.00    3.10
  -1  -8   3   23.60    3.50
   0   8  -3   74.19    3.80
   0  -8   3   74.59    3.40
  -1   8  -3  197.38    6.50
   1  -8   3  198.98    5.90
  -2   8  -3    2.50    1.70
  -2   8  -3    2.00    2.10
   3   7  -3  169.18    5.80
  -3  -7   3  180.08    6.30
  -3  -7   3  177.18    7.40
   2   7  -3   42.40    2.80
  -2  -7   3   40.40    4.10
  -2  -7   3   37.30    3.00
   1   7  -3   24.90    3.10
  -1  -7   3   28.70    2.60
  -1  -7   3   32.00    4.40
   0   7  -3   -0.20    1.50
   0  -7   3    0.60    1.30
  -1   7  -3    1.30    1.30
   1  -7   3    2.30    1.00
  -2   7  -3    1.30    1.40
  -2   7  -3    0.20    1.30
   2  -7   3    0.60    1.10
  -3   7  -3   55.79    3.80
  -3   7  -3   53.49    3.20
  -4   7  -3   -0.30    1.90
  -4   7  -3    1.40    2.50
  -4  -6   3  174.38    7.10
   3   6  -3   11.00    1.50
  -3  -6   3   15.80    2.00
  -3  -6   3   14.20    2.50
   2   6  -3  248.48    7.30
   2   6  -3  257.97    7.30
  -2  -6   3  267.87    8.20
  -2  -6   3  261.97    7.50
   1   6  -3   97.19    3.80
   1   6  -3   95.79    3.50
  -1  -6   3  103.79    4.50
  -1  -6   3  103.19    3.60
   0   6  -3  445.66   11.90
   0  -6   3  463.35   11.80
  -1   6  -3  244.58    6.80
  -1   6  -3  236.28    6.70
   1  -6   3  215.38    6.50
   1  -6   3  235.58    6.40
  -2   6  -3  173.98    5.40
  -2   6  -3  168.28    5.10
   2  -6   3  169.88    4.80
   2  -6   3  153.38    4.80
  -3   6  -3   12.10    3.00
  -3   6  -3   11.20    1.60
   3  -6   3   11.40    1.30
  -4   6  -3   90.59    3.70
  -4   6  -3   93.19    4.70
  -5  -5   3   10.10    2.90
  -4  -5   3  263.67    8.50
   3   5  -3  173.08    5.00
   3   5  -3  164.58    4.90
  -3  -5   3  163.98    5.80
   2   5  -3  244.88    6.90
   2   5  -3  251.27    6.90
  -2  -5   3  254.17    7.10
  -2  -5   3  250.67    7.50
   1   5  -3   47.20    2.10
   1   5  -3   51.69    2.50
  -1  -5   3   48.00    2.20
  -1  -5   3   48.00    2.80
   0   5  -3  250.07    6.70
   0  -5   3  252.47    6.70
   0  -5   3  234.38    6.70
  -1   5  -3   43.40    2.10
  -1   5  -3   39.80    2.00
   1  -5   3   41.50    1.90
   1  -5   3   38.70    2.00
  -2   5  -3    1.60    1.10
  -2   5  -3    0.60    0.80
  -2   5  -3    1.40    1.00
   2  -5   3    1.70    0.80
   2  -5   3   -0.20    0.80
  -3   5  -3   -0.50    1.10
  -3   5  -3    0.10    1.00
  -3   5  -3    3.00    1.30
   3  -5   3    2.50    1.00
  -4   5  -3   45.00    3.40
  -4   5  -3   36.60    2.40
  -5   5  -3    3.10    2.40
  -6  -4   3   28.60    3.70
  -6  -4   3   31.10    3.50
  -5  -4   3  185.18    6.60
  -5  -4   3  176.48    5.50
   4   4  -3  248.48    6.50
  -4  -4   3  259.87    7.80
  -4  -4   3  240.28    6.90
   3   4  -3  314.87    8.00
  -3  -4   3  326.87    9.00
  -3  -4   3  305.37    8.40
   2   4  -3 2097.59   49.60
   2   4  -3 2127.39   49.10
  -2  -4   3 2056.89   49.50
  -2  -4   3 1909.71   49.20
  -2  -4   3 2015.00   49.20
  -2  -4   3 1988.80   49.20
   1   4  -3   -0.10    1.00
   1   4  -3    1.80    0.60
  -1  -4   3    1.80    0.70
  -1  -4   3    1.70    0.80
  -1  -4   3   -0.30    0.80
  -1  -4   3    1.40    0.70
   0   4  -3 1656.63   40.00
   0   4  -3 1624.34   39.60
   0   4  -3 1668.83   39.50
   0  -4   3 1571.44   39.70
   0  -4   3 1656.73   39.60
  -1   4  -3   68.19    2.40
  -1   4  -3   68.19    2.50
  -1   4  -3   65.79    2.50
  -1   4  -3   61.19    3.00
   1  -4   3   66.99    2.40
   1  -4   3   65.09    2.40
  -2   4  -3 1062.29   25.80
  -2   4  -3 1063.29   25.50
  -2   4  -3 1050.69   25.50
   2  -4   3 1049.79   25.60
   2  -4   3 1047.70   25.20
   2  -4   3  977.10   25.30
   2  -4   3 1048.10   25.70
  -3   4  -3   -0.70    1.20
  -3   4  -3    2.20    1.10
  -3   4  -3    0.00    0.80
   3  -4   3    1.10    1.00
   3  -4   3   -0.40    1.10
  -4   4  -3   11.90    2.20
   4  -4   3   10.00    1.70
  -5   4  -3   66.79    4.50
  -6  -3   3   41.30    3.30
  -6  -3   3   60.49    4.50
   5   3  -3  103.39    3.30
  -5  -3   3  102.39    3.50
  -5  -3   3  114.69    4.60
  -5  -3   3  110.49    3.60
   4   3  -3 1143.99   27.50
  -4  -3   3 1106.59   27.20
  -4  -3   3 1131.29   27.90
  -4  -3   3 1076.29   27.20
   3   3  -3   55.29    2.60
   3   3  -3   57.99    1.70
  -3  -3   3   57.89    2.50
  -3  -3   3   56.89    2.10
   2   3  -3  305.17    8.10
   2   3  -3  297.37    7.40
  -2  -3   3  311.37    8.10
  -2  -3   3  297.97    7.90
  -2  -3   3  291.77    7.80
   1   3  -3  187.98    4.90
   1   3  -3  188.68    5.40
   1   3  -3  199.58    5.20
  -1  -3   3  189.58    5.40
  -1  -3   3  193.48    5.30
   0   3  -3  649.24   16.20
   0   3  -3  667.83   16.20
   0   3  -3  659.93   16.40
   0  -3   3  657.23   16.20
   0  -3   3  638.64   16.10
  -1   3  -3  411.46   10.20
  -1   3  -3  395.26   10.20
  -1   3  -3  406.16   10.20
   1  -3   3  391.36   10.20
   1  -3   3  411.96   10.30
  -2   3  -3  438.46   11.50
  -2   3  -3  460.75   11.30
  -2   3  -3  453.35   11.70
   2  -3   3  446.66   11.40
   2  -3   3  446.66   11.10
   2  -3   3  461.05   11.60
  -3   3  -3    3.30    1.20
  -3   3  -3    2.70    1.20
   3  -3   3    5.80    1.20
   3  -3   3    4.30    1.00
  -4   3  -3   17.70    2.60
   4  -3   3   19.40    1.80
  -5   3  -3  149.69    6.30
  -5   3  -3  155.48    6.60
  -7  -2   3   17.60    2.40
  -7  -2   3   17.00    3.30
  -6  -2   3    9.70    2.30
  -6  -2   3   13.50    1.90
  -5  -2   3   56.59    3.10
  -5  -2   3   53.89    2.20
  -5  -2   3   47.70    2.10
   4   2  -3  269.07    7.40
  -4  -2   3  269.27    6.90
  -4  -2   3  266.57    6.90
  -4  -2   3  262.57    7.40
   3   2  -3  138.19    4.00
  -3  -2   3  131.69    4.00
  -3  -2   3  131.09    3.90
  -3  -2   3  126.19    3.70
   2   2  -3  936.81   22.50
  -2  -2   3  912.11   22.30
  -2  -2   3  902.31   22.10
  -2  -2   3  885.11   22.30
   1   2  -3  293.97    7.10
   1   2  -3  296.87    7.50
   1   2  -3  282.77    7.70
  -1  -2   3  285.27    7.40
  -1  -2   3  288.57    7.40
  -1  -2   3  288.67    7.50
   0   2  -3  128.59    3.60
   0   2  -3  142.29    4.10
   0   2  -3  129.19    3.80
   0  -2   3  137.79    3.70
   0  -2   3  132.49    3.60
   0  -2   3  128.49    3.80
  -1   2  -3  688.23   16.80
  -1   2  -3  677.43   16.70
   1  -2   3  671.33   16.80
   1  -2   3  659.83   16.50
   1  -2   3  657.93   16.60
   1  -2   3  694.13   16.60
  -2   2  -3   46.40    2.30
  -2   2  -3   46.10    2.10
   2  -2   3   43.30    2.20
   2  -2   3   44.50    1.70
   2  -2   3   46.40    2.00
   2  -2   3   47.10    1.70
  -3   2  -3  244.38    7.20
   3  -2   3  262.87    7.30
   3  -2   3  253.87    6.50
   3  -2   3  265.27    6.70
  -4   2  -3  158.58    5.50
  -4   2  -3  161.98    5.70
   4  -2   3  153.78    4.50
  -5   2  -3   92.19    5.10
  -5   2  -3   96.29    5.50
  -7  -1   3   16.60    2.80
  -7  -1   3   16.50    2.30
  -6  -1   3   30.90    2.30
  -6  -1   3   25.80    1.50
  -6  -1   3   36.00    2.90
  -5  -1   3  382.96    9.60
  -5  -1   3  380.36   10.20
  -5  -1   3  362.56    9.40
  -4  -1   3  583.64   14.30
  -4  -1   3  586.14   14.20
  -4  -1   3  569.34   14.70
   3   1  -3   24.60    1.60
  -3  -1   3   25.80    1.40
  -3  -1   3   24.70    0.90
  -3  -1   3   25.60    1.50
   2   1  -3    1.80    0.50
  -2  -1   3    2.30    0.50
  -2  -1   3    1.70    0.40
   1   1  -3   42.10    1.40
   1   1  -3   44.40    1.70
   1   1  -3   42.40    1.40
  -1  -1   3   45.20    1.30
  -1  -1   3   41.40    1.60
   0   1  -3  109.59    3.20
   0   1  -3  105.49    3.10
   0  -1   3  104.69    3.10
   0  -1   3  103.09    2.90
  -1   1  -3 1508.25   36.20
  -1   1  -3 1501.95   36.10
  -1   1  -3 1456.55   35.90
   1  -1   3 1525.25   36.20
   1  -1   3 1456.25   36.00
   1  -1   3 1486.35   35.80
  -2   1  -3  401.96   10.50
  -2   1  -3  399.16   10.10
  -2   1  -3  412.76   10.60
  -2   1  -3  400.86   10.50
   2  -1   3  399.46   10.20
   2  -1   3  415.26    9.90
   2  -1   3  383.96   10.30
   2  -1   3  395.86   10.50
  -3   1  -3  189.68    5.90
  -3   1  -3  191.98    5.90
  -3   1  -3  183.38    5.10
   3  -1   3  191.18    5.00
   3  -1   3  186.08    5.80
   3  -1   3  180.18    4.90
  -4   1  -3    0.40    1.80
  -4   1  -3    2.90    1.70
  -4   1  -3    1.70    1.00
   4  -1   3    1.30    0.60
  -5   1  -3  197.58    7.60
  -5   1  -3  204.18    7.90
  -7   0   3    8.80    2.60
  -7   0   3    8.70    1.90
  -6   0   3  242.18    6.50
  -6   0   3  267.57    7.20
  -6   0   3  263.87    7.80
  -6   0   3  254.97    6.80
  -6   0   3  239.88    7.00
  -5   0   3   22.60    1.50
  -5   0   3   22.80    2.00
  -5   0   3   23.70    1.50
  -4   0   3  442.16   10.80
  -4   0   3  434.96   11.10
  -4   0   3  425.86   11.00
  -3   0   3  187.78    5.00
  -3   0   3  185.38    4.90
   2   0  -3  189.78    5.00
  -2   0   3  187.28    5.00
  -2   0   3  195.58    4.90
  -2   0   3  184.08    5.00
   1   0  -3  305.17    7.80
   1   0  -3  312.07    7.90
   1   0  -3  311.47    7.90
  -1   0   3  312.37    7.90
  -1   0   3  307.07    7.90
  -1   0   3  303.27    7.80
   0   0  -3  113.39    3.20
   0   0  -3  116.89    3.50
   0   0  -3  119.09    3.40
   0   0  -3  118.39    3.40
   0   0   3  114.19    3.30
   0   0   3  112.59    3.40
   0   0   3  114.79    3.40
  -1   0  -3  169.28    4.70
  -1   0  -3  168.58    4.80
  -1   0  -3  171.78    5.00
  -1   0  -3  166.18    4.90
   1   0   3  170.48    4.90
   1   0   3  166.58    4.70
   1   0   3  172.48    4.80
  -2   0  -3  319.47    8.60
  -2   0  -3  313.37    8.20
  -2   0  -3  295.37    8.40
  -2   0  -3  312.47    8.50
   2   0   3  299.77    8.30
   2   0   3  323.57    8.20
   2   0   3  316.37    8.50
  -3   0  -3   20.40    2.10
  -3   0  -3   24.50    2.40
  -3   0  -3   22.40    2.40
   3   0   3   23.90    1.70
   3   0   3   23.00    1.40
   3   0   3   24.00    1.10
  -4   0  -3   74.89    4.00
  -4   0  -3   64.89    3.10
  -4   0  -3   70.49    4.10
   4   0   3   71.79    2.80
  -5   0  -3    4.00    2.90
  -5   0  -3    7.10    2.90
  -7   1   3   39.80    3.00
  -7   1   3   38.20    2.40
  -7   1   3   39.40    4.80
  -7   1   3   43.50    3.00
  -6   1   3   13.10    1.90
  -6   1   3   13.40    1.50
  -6   1   3   14.30    1.70
  -6   1   3   15.00    1.90
  -6   1   3   13.40    1.40
  -5   1   3  116.09    3.60
  -5   1   3  112.99    3.70
  -5   1   3  113.49    3.60
  -5   1   3  114.39    3.90
  -5   1   3  108.49    3.50
  -4   1   3  136.09    3.90
  -4   1   3  136.89    4.00
  -4   1   3  133.49    3.90
  -4   1   3  139.29    4.20
  -4   1   3  141.79    4.00
  -3   1   3   99.79    3.00
  -3   1   3   98.79    3.20
  -3   1   3   96.19    2.80
   2  -1  -3  156.38    4.50
   2  -1  -3  164.28    4.40
  -2   1   3  159.98    4.50
  -2   1   3  161.68    4.10
  -2   1   3  162.48    4.50
   1  -1  -3 2154.88   50.99
   1  -1  -3 2147.69   51.39
   1  -1  -3 2118.09   51.29
   1  -1  -3 2109.59   51.39
  -1   1   3 2158.48   51.39
  -1   1   3 2110.79   51.39
  -1   1   3 2114.19   51.29
   0  -1  -3    5.00    0.80
   0  -1  -3    4.10    0.80
   0  -1  -3    7.10    0.90
   0  -1  -3    4.70    0.80
   0   1   3    5.10    0.80
   0   1   3    6.30    0.90
   0   1   3    5.10    0.80
   0   1   3    5.70    0.80
  -1  -1  -3 2346.37   56.29
  -1  -1  -3 2378.56   55.99
  -1  -1  -3 2234.58   55.89
  -1  -1  -3 2350.46   56.09
   1   1   3 2361.26   55.89
   1   1   3 2299.37   55.99
   1   1   3 2294.87   56.09
   1   1   3 2294.47   55.89
   1   1   3 2312.27   55.99
  -2  -1  -3    2.00    1.10
  -2  -1  -3    2.60    1.10
  -2  -1  -3    0.90    1.00
   2   1   3    1.20    0.60
   2   1   3    1.70    0.90
   2   1   3    2.20    0.90
  -3  -1  -3  681.53   17.80
  -3  -1  -3  694.03   17.90
  -3  -1  -3  662.93   17.30
   3   1   3  680.33   17.20
   3   1   3  690.73   16.70
  -4  -1  -3    1.50    2.10
  -4  -1  -3    6.20    3.80
   4   1   3    6.10    1.50
  -5  -1  -3   24.50    3.90
  -5  -1  -3   21.40    3.70
  -7   2   3  103.39    4.10
  -7   2   3  106.19    6.00
  -7   2   3  104.89    3.70
  -7   2   3  113.39    4.40
  -6   2   3   23.70    1.90
  -6   2   3   22.20    2.10
  -6   2   3   22.60    2.50
  -6   2   3   23.80    1.90
  -6   2   3   22.40    2.20
  -5   2   3  145.99    4.60
  -5   2   3  145.29    4.60
  -5   2   3  149.29    4.20
  -5   2   3  143.29    4.50
  -5   2   3  145.29    4.30
  -4   2   3  510.25   12.80
  -4   2   3  510.35   13.10
  -4   2   3  497.45   12.60
   3  -2  -3 2873.41   68.39
  -3   2   3 2804.02   68.69
  -3   2   3 2855.11   68.49
  -3   2   3 2854.91   68.19
   2  -2  -3  179.98    5.00
  -2   2   3  174.58    5.20
  -2   2   3  177.08    5.20
  -2   2   3  186.38    4.80
  -2   2   3  177.58    5.00
  -2   2   3  173.48    4.80
   1  -2  -3 1245.68   29.60
   1  -2  -3 1258.57   29.70
   1  -2  -3 1190.88   29.90
  -1   2   3 1195.18   30.00
  -1   2   3 1213.18   30.00
  -1   2   3 1208.18   30.00
  -1   2   3 1247.38   29.80
   0  -2  -3 1077.39   26.20
   0  -2  -3 1064.69   26.00
   0  -2  -3 1059.29   26.10
   0   2   3 1068.99   26.00
   0   2   3 1065.99   26.20
   0   2   3 1033.40   26.30
   0   2   3 1071.49   26.20
   0   2   3 1069.89   26.20
  -1  -2  -3 1430.66   35.50
  -1  -2  -3 1449.46   35.50
  -1  -2  -3 1404.96   35.50
  -1  -2  -3 1487.55   35.80
   1   2   3 1372.66   35.50
   1   2   3 1481.15   35.40
   1   2   3 1467.95   35.50
   1   2   3 1457.05   35.60
   1   2   3 1493.55   35.50
  -2  -2  -3   96.09    3.90
  -2  -2  -3   98.39    4.10
   2   2   3  101.59    3.60
   2   2   3   95.79    3.20
  -3  -2  -3   -0.20    1.60
  -3  -2  -3   -1.90    1.60
   3   2   3    0.70    1.20
   3   2   3    0.50    0.70
  -4  -2  -3    7.50    2.70
  -4  -2  -3   11.90    2.90
   4   2   3    7.70    1.80
  -7   3   3   74.99    4.60
  -7   3   3   72.49    3.40
  -7   3   3   73.99    4.00
  -6   3   3   45.90    2.20
  -6   3   3   49.30    2.80
  -6   3   3   47.10    2.90
  -6   3   3   41.90    2.00
  -5   3   3   83.49    3.40
  -5   3   3   83.29    3.30
  -5   3   3   82.09    3.00
  -5   3   3   78.79    2.50
  -4   3   3  921.11   23.80
  -4   3   3  966.50   23.70
  -4   3   3  986.10   24.10
  -4   3   3  961.90   23.20
   3  -3  -3  820.02   19.70
   3  -3  -3  828.82   20.20
  -3   3   3  804.62   20.20
  -3   3   3  791.32   19.80
  -3   3   3  829.42   20.30
  -3   3   3  812.12   20.60
   2  -3  -3 1469.95   35.60
   2  -3  -3 1472.65   35.20
  -2   3   3 1461.25   35.40
  -2   3   3 1429.56   35.80
  -2   3   3 1475.05   35.60
  -2   3   3 1428.36   35.80
   1  -3  -3 1774.52   42.70
   1  -3  -3 1782.72   42.60
  -1   3   3 1778.42   42.70
  -1   3   3 1784.32   42.70
  -1   3   3 1736.43   43.00
  -1   3   3 1706.43   43.10
  -1   3   3 1766.92   42.90
   0  -3  -3 1784.42   43.10
   0  -3  -3 1775.52   43.00
   0  -3  -3 1704.73   43.40
   0   3   3 1794.42   43.20
   0   3   3 1778.82   43.00
   0   3   3 1762.02   43.10
   0   3   3 1771.62   43.00
  -1  -3  -3 1727.33   42.80
  -1  -3  -3 1723.83   43.20
   1   3   3 1815.12   42.80
   1   3   3 1768.12   42.60
   1   3   3 1699.13   42.70
  -2  -3  -3  215.38    7.20
  -2  -3  -3  220.68    7.10
   2   3   3  231.78    6.40
   2   3   3  227.58    6.70
  -3  -3  -3  210.18    7.60
  -3  -3  -3  219.08    7.70
   3   3   3  214.48    6.00
   3   3   3  230.58    6.80
  -4  -3  -3   27.00    3.90
  -4  -3  -3   33.80    3.90
   4   3   3   36.50    3.50
  -7   4   3   52.39    3.30
  -7   4   3   50.19    4.40
  -7   4   3   50.99    4.10
  -6   4   3  109.69    4.70
  -6   4   3  109.99    4.40
  -6   4   3  112.49    3.70
  -5   4   3   33.30    2.20
  -5   4   3   40.90    2.70
   4  -4  -3 1539.25   37.10
  -4   4   3 1536.55   37.60
  -4   4   3 1565.54   37.20
  -4   4   3 1442.46   37.40
   3  -4  -3  646.54   16.70
   3  -4  -3  662.73   16.00
  -3   4   3  663.93   16.70
  -3   4   3  649.34   16.80
  -3   4   3  668.63   17.10
   2  -4  -3  936.61   22.20
  -2   4   3  915.81   23.00
  -2   4   3  902.21   22.70
  -2   4   3  885.51   22.80
   1  -4  -3  205.68    5.80
   1  -4  -3  210.98    6.20
  -1   4   3  210.68    6.20
  -1   4   3  208.88    6.30
  -1   4   3  205.68    6.10
   0  -4  -3  711.83   17.70
   0  -4  -3  647.04   17.30
   0   4   3  691.23   17.60
   0   4   3  667.93   17.50
   0   4   3  704.33   17.60
  -1  -4  -3  629.74   16.90
  -1  -4  -3  628.64   16.60
   1   4   3  632.44   16.20
   1   4   3  623.74   16.40
  -2  -4  -3   80.59    4.30
   2   4   3   75.99    3.30
   2   4   3   80.59    3.70
  -3  -4  -3    6.90    2.60
  -3  -4  -3    4.60    3.10
   3   4   3    5.00    2.00
   3   4   3    7.00    1.20
  -6   5   3    9.80    2.10
  -6   5   3    8.80    2.40
  -5   5   3    2.10    1.40
  -5   5   3   -0.40    1.30
  -4   5   3   89.49    3.90
  -4   5   3   93.89    3.60
  -3   5   3   13.30    1.70
  -3   5   3   12.30    1.60
   2  -5  -3  210.68    5.80
  -2   5   3  218.48    6.70
  -2   5   3  219.48    6.50
   1  -5  -3   64.59    3.20
   1  -5  -3   60.39    2.60
  -1   5   3   62.69    3.00
  -1   5   3   56.19    3.00
   0  -5  -3  520.05   14.10
   0   5   3  525.65   14.00
   0   5   3  527.35   14.00
  -1  -5  -3   40.60    3.40
   1   5   3   41.20    2.70
   1   5   3   39.20    3.10
  -2  -5  -3   88.69    5.10
  -2  -5  -3   92.79    5.50
   2   5   3   86.69    4.50
   2   5   3   90.79    3.80
  -5   6   3   67.19    3.40
  -5   6   3   66.89    4.10
  -4   6   3  733.03   19.00
  -4   6   3  756.72   19.60
  -3   6   3   10.40    1.90
  -3   6   3    8.20    1.70
  -2   6   3  506.05   13.80
  -2   6   3  499.85   13.50
   1  -6  -3    1.40    1.80
  -1   6   3   -2.50    1.40
  -1   6   3    1.70    1.50
   0  -6  -3  235.18    7.90
   0   6   3  241.38    7.50
   0   6   3  228.78    7.50
  -1  -6  -3  103.09    5.50
   1   6   3  108.49    4.50
   1   6   3  107.19    4.90
  -4   7   3    6.40    2.20
  -3   7   3   19.00    2.50
  -3   7   3   17.80    2.50
  -2   7   3   12.70    2.30
  -2   7   3   14.20    2.40
   1  -7  -3   66.19    4.80
  -1   7   3   67.39    4.10
  -1   7   3   59.99    4.20
   2   8  -4   25.10    3.30
  -2  -8   4   19.10    4.00
  -2  -8   4   22.30    2.80
   1   8  -4   84.79    4.20
  -1  -8   4   91.89    4.30
   0   8  -4    6.30    1.80
   0   8  -4    1.40    1.80
   0  -8   4    6.80    1.90
  -1   8  -4    9.60    2.20
  -1   8  -4   13.00    2.20
   1  -8   4    9.60    1.80
  -2   8  -4    5.50    2.10
  -2   8  -4    4.70    2.20
   3   7  -4   50.79    3.40
  -3  -7   4   55.49    4.20
  -3  -7   4   49.20    5.10
   2   7  -4   29.10    2.70
  -2  -7   4   26.40    3.00
  -2  -7   4   23.00    3.30
   1   7  -4    1.70    1.40
  -1  -7   4    0.30    1.50
  -1  -7   4    0.60    2.40
   0   7  -4   43.00    2.80
   0   7  -4   43.10    2.80
   0  -7   4   44.80    2.90
  -1   7  -4    1.80    1.50
  -1   7  -4   -1.10    1.30
   1  -7   4    2.20    1.50
  -2   7  -4   61.79    4.20
  -2   7  -4   61.19    3.40
   2  -7   4   73.19    3.00
  -3   7  -4    0.30    2.20
  -3   7  -4    0.00    1.80
  -4  -6   4   84.59    5.30
  -4  -6   4   87.19    4.40
   3   6  -4   99.69    3.80
  -3  -6   4   96.49    4.30
  -3  -6   4  102.59    5.00
   2   6  -4   90.29    3.50
   2   6  -4   83.89    3.30
  -2  -6   4   90.09    3.70
  -2  -6   4   95.19    4.40
   1   6  -4   62.39    2.80
  -1  -6   4   68.99    3.10
  -1  -6   4   68.19    3.90
   0   6  -4    5.60    1.20
   0   6  -4    5.20    1.10
   0  -6   4    2.60    1.30
  -1   6  -4   14.20    1.60
  -1   6  -4   15.70    1.80
   1  -6   4   13.00    1.60
   1  -6   4    8.40    1.30
  -2   6  -4    0.00    1.50
  -2   6  -4    0.90    1.20
  -2   6  -4    2.60    1.60
   2  -6   4    1.30    1.40
  -3   6  -4   41.70    3.40
  -3   6  -4   42.20    2.80
   3  -6   4   38.50    2.70
  -4   6  -4   30.30    4.10
  -5  -5   4   55.99    4.20
  -5  -5   4   61.79    4.90
  -4  -5   4   14.60    2.40
   3   5  -4    0.40    1.20
  -3  -5   4   -0.90    1.40
  -3  -5   4    0.00    1.20
   2   5  -4   -0.30    0.90
  -2  -5   4    0.20    1.20
  -2  -5   4    0.40    1.10
   1   5  -4  147.39    4.60
   1   5  -4  144.99    4.10
  -1  -5   4  154.78    5.20
  -1  -5   4  146.19    4.70
   0   5  -4  443.66   11.40
   0   5  -4  451.65   11.60
   0  -5   4  466.55   11.70
   0  -5   4  425.36   11.50
  -1   5  -4    1.30    1.00
  -1   5  -4    1.60    1.20
  -1   5  -4   -1.40    1.00
   1  -5   4   -0.30    0.90
   1  -5   4    1.70    1.20
  -2   5  -4   60.19    3.00
  -2   5  -4   65.99    3.00
  -2   5  -4   66.89    2.70
   2  -5   4   65.09    2.30
   2  -5   4   61.99    2.40
   2  -5   4   65.39    3.00
  -3   5  -4  135.49    5.10
   3  -5   4  143.59    5.00
  -4   5  -4  104.69    5.00
   4  -5   4  101.09    4.40
  -6  -4   4  227.58    8.40
  -6  -4   4  222.48    7.70
  -5  -4   4   61.49    4.10
  -5  -4   4   67.99    3.80
  -4  -4   4   53.89    3.20
  -4  -4   4   56.59    2.90
   3   4  -4   90.69    3.60
  -3  -4   4   95.29    3.70
  -3  -4   4   95.79    3.60
   2   4  -4  734.73   17.80
   2   4  -4  718.23   18.70
  -2  -4   4  756.22   18.60
  -2  -4   4  750.02   18.80
   1   4  -4  121.89    3.70
   1   4  -4  119.69    4.20
   1   4  -4  120.59    3.40
  -1  -4   4  117.99    3.90
  -1  -4   4  132.59    4.50
  -1  -4   4  121.09    4.10
   0   4  -4   97.59    3.70
   0   4  -4  102.79    3.50
   0   4  -4   99.99    3.10
   0   4  -4  103.29    3.30
   0  -4   4  105.69    3.90
   0  -4   4  102.39    3.40
  -1   4  -4  232.98    7.40
  -1   4  -4  258.67    6.80
  -1   4  -4  265.47    6.90
  -1   4  -4  244.48    6.90
   1  -4   4  248.48    7.00
  -2   4  -4    5.80    1.40
  -2   4  -4    9.70    1.50
   2  -4   4    3.80    1.30
   2  -4   4    8.30    1.10
  -3   4  -4   52.19    3.20
   3  -4   4   54.99    3.10
  -4   4  -4  216.48    7.40
   4  -4   4  213.18    7.00
  -6  -3   4   75.59    3.20
  -6  -3   4   79.49    4.60
  -6  -3   4   77.49    4.20
  -5  -3   4  256.27    7.20
  -5  -3   4  275.97    8.10
  -5  -3   4  273.57    8.00
   4   3  -4    1.50    1.30
  -4  -3   4    1.10    1.20
  -4  -3   4    0.90    1.00
  -4  -3   4    3.60    0.90
   3   3  -4 1174.98   29.00
  -3  -3   4 1196.38   29.10
  -3  -3   4 1147.79   28.70
  -3  -3   4 1195.78   29.10
   2   3  -4  461.05   11.80
  -2  -3   4  463.65   11.80
  -2  -3   4  460.95   11.70
   1   3  -4 1823.42   43.80
   1   3  -4 1799.02   44.20
   1   3  -4 1889.41   44.30
  -1  -3   4 1829.82   44.30
  -1  -3   4 1790.42   44.10
   0   3  -4 1275.07   30.90
   0   3  -4 1305.07   31.10
   0   3  -4 1248.88   30.70
   0  -3   4 1246.98   31.00
   0  -3   4 1251.97   30.80
  -1   3  -4 1010.10   25.30
  -1   3  -4 1051.59   25.30
   1  -3   4 1053.99   25.10
   1  -3   4 1036.00   25.40
   1  -3   4 1011.80   25.10
   1  -3   4 1000.30   25.20
  -2   3  -4  588.74   16.10
  -2   3  -4  665.33   16.30
   2  -3   4  642.14   15.80
   2  -3   4  652.93   16.40
   2  -3   4  635.74   15.90
   3  -3   4  162.78    5.30
   3  -3   4  147.79    4.50
   3  -3   4  156.68    4.30
  -4   3  -4   43.60    3.80
  -4   3  -4   45.00    4.00
  -5   3  -4    5.40    3.20
  -5   3  -4    2.30    2.90
  -7  -2   4   67.49    5.10
  -7  -2   4   53.39    4.40
  -6  -2   4  359.86    9.20
  -6  -2   4  366.16   10.20
  -6  -2   4  318.27   11.40
  -5  -2   4    3.50    1.40
  -5  -2   4    4.60    1.00
  -5  -2   4    4.70    1.30
  -5  -2   4    5.20    0.90
   4   2  -4  187.58    5.50
  -4  -2   4  188.98    5.50
  -4  -2   4  188.88    5.50
  -4  -2   4  177.68    5.10
   3   2  -4  334.17    8.60
  -3  -2   4  331.87    8.60
  -3  -2   4  330.17    8.70
  -3  -2   4  322.77    8.50
   2   2  -4  702.53   17.40
  -2  -2   4  699.63   17.20
  -2  -2   4  687.43   17.30
  -2  -2   4  693.03   17.10
   1   2  -4   60.09    1.90
   1   2  -4   60.89    2.30
  -1  -2   4   60.69    2.30
  -1  -2   4   63.29    2.10
  -1  -2   4   64.19    1.80
   0   2  -4  134.49    3.80
   0   2  -4  133.29    4.10
   0  -2   4  132.39    4.10
   0  -2   4  135.29    3.90
   0  -2   4  136.39    3.80
   0  -2   4  138.89    3.80
  -1   2  -4    0.40    0.80
  -1   2  -4    1.30    1.00
   1  -2   4    1.70    1.00
   1  -2   4    2.60    0.80
   1  -2   4    1.90    0.70
   1  -2   4    0.70    0.60
  -2   2  -4    6.40    1.30
   2  -2   4    6.00    0.90
   2  -2   4    4.70    0.80
   2  -2   4    4.10    1.30
  -3   2  -4  254.27    7.70
  -3   2  -4  248.08    7.60
   3  -2   4  248.48    6.50
   3  -2   4  255.17    7.60
   3  -2   4  241.98    6.60
  -4   2  -4   56.39    4.20
  -4   2  -4   57.49    4.10
  -5   2  -4   21.80    3.60
  -5   2  -4   24.30    4.10
  -7  -1   4   16.10    2.50
  -7  -1   4   18.90    2.00
  -6  -1   4  173.48    5.70
  -6  -1   4  167.48    4.80
  -6  -1   4  168.48    5.40
  -6  -1   4  144.09    4.60
  -5  -1   4  366.16    9.80
  -5  -1   4  362.86    9.30
  -5  -1   4  363.26    9.80
  -5  -1   4  359.56    9.80
  -4  -1   4  201.58    5.70
  -4  -1   4  203.68    5.60
  -4  -1   4  198.68    5.10
   3   1  -4 3079.49   72.99
  -3  -1   4 2981.00   72.99
  -3  -1   4 3086.99   73.39
   2   1  -4    9.60    1.30
  -2  -1   4   11.60    0.70
  -2  -1   4   10.60    1.10
  -2  -1   4   10.30    1.10
   1   1  -4 4187.58   99.09
   1   1  -4 4105.99   99.49
  -1  -1   4 4158.98   99.49
   0   1  -4    6.10    1.00
   0   1  -4    6.20    0.90
   0  -1   4    5.10    0.90
   0  -1   4    8.70    1.00
   0  -1   4    6.20    0.90
  -1   1  -4 1931.51   47.00
  -1   1  -4 1952.30   47.20
  -1   1  -4 1960.80   46.90
  -1   1  -4 1923.21   47.20
   1  -1   4 1887.41   46.90
   1  -1   4 1972.70   47.00
   1  -1   4 1944.41   47.30
   1  -1   4 1963.10   46.70
  -2   1  -4    1.70    1.30
  -2   1  -4    1.50    1.00
  -2   1  -4    2.20    1.10
   2  -1   4    2.00    0.70
   2  -1   4    1.60    1.10
   2  -1   4    1.50    0.90
  -3   1  -4  133.59    5.10
  -3   1  -4  139.29    5.20
  -3   1  -4  129.79    4.20
   3  -1   4  128.49    4.10
   3  -1   4  129.49    3.70
   3  -1   4  135.09    5.00
  -4   1  -4   27.10    3.80
  -4   1  -4   22.40    2.80
   4  -1   4   24.30    1.90
  -7   0   4   90.49    4.00
  -7   0   4   94.79    3.60
  -7   0   4   90.49    3.90
  -7   0   4   92.59    4.70
  -7   0   4   92.99    4.20
  -6   0   4   11.90    1.80
  -6   0   4   10.10    1.50
  -6   0   4   10.20    1.60
  -6   0   4   10.40    1.30
  -6   0   4   10.50    1.60
  -5   0   4  732.63   18.10
  -5   0   4  727.43   18.10
  -5   0   4  691.03   17.60
  -5   0   4  722.33   18.00
  -4   0   4    7.80    0.90
  -4   0   4   10.10    1.10
  -4   0   4   10.80    1.10
  -4   0   4    9.20    1.10
  -3   0   4  930.51   22.20
  -3   0   4  823.82   22.90
  -3   0   4  965.60   22.70
  -3   0   4  956.40   22.60
   2   0  -4  114.09    3.40
  -2   0   4  112.99    3.20
  -2   0   4  111.59    3.50
  -2   0   4  106.89    3.40
   1   0  -4 1094.59   27.40
   1   0  -4 1136.59   27.40
   1   0  -4 1137.19   27.40
  -1   0   4 1092.09   27.30
  -1   0   4 1143.39   27.50
  -1   0   4 1128.99   27.50
   0   0  -4  268.37    7.10
   0   0  -4  268.57    7.30
   0   0  -4  268.17    6.90
   0   0   4  254.27    7.00
   0   0   4  261.17    7.20
   0   0   4  264.27    7.20
  -1   0  -4    2.20    1.00
  -1   0  -4    0.70    0.80
  -1   0  -4    0.70    0.90
  -1   0  -4    0.10    0.80
   1   0   4    0.90    0.80
   1   0   4    2.10    1.00
   1   0   4    1.10    0.90
  -2   0  -4  158.08    5.10
  -2   0  -4  148.89    5.20
  -2   0  -4  150.68    4.70
   2   0   4  155.88    4.80
   2   0   4  154.98    5.20
  -3   0  -4    5.30    1.50
  -3   0  -4    4.40    1.80
  -3   0  -4    3.30    1.70
   3   0   4    5.60    1.30
   3   0   4    5.20    1.60
   3   0   4    5.00    0.90
   3   0   4    6.60    0.80
  -4   0  -4  303.67    9.80
  -4   0  -4  300.07    9.70
   4   0   4  297.67    8.20
  -7   1   4   10.40    1.80
  -7   1   4   10.50    1.80
  -7   1   4    9.10    1.80
  -7   1   4    7.10    1.60
  -7   1   4    8.80    2.00
  -6   1   4  224.98    6.60
  -6   1   4  218.08    6.20
  -6   1   4  221.48    6.40
  -6   1   4  222.08    6.70
  -6   1   4  220.68    6.40
  -5   1   4  644.54   15.60
  -5   1   4  625.64   15.80
  -5   1   4  622.14   15.80
  -5   1   4  604.24   15.80
  -5   1   4  628.84   16.10
  -4   1   4   27.50    1.70
  -4   1   4   28.90    1.50
  -4   1   4   26.90    2.00
   3  -1  -4  304.07    8.00
  -3   1   4  316.77    8.20
  -3   1   4  308.07    7.60
  -3   1   4  305.27    7.60
  -3   1   4  301.27    8.20
  -3   1   4  314.27    8.00
   2  -1  -4 1809.22   42.80
   2  -1  -4 1736.83   42.90
  -2   1   4 1771.62   42.80
  -2   1   4 1752.92   42.90
  -2   1   4 1782.62   43.00
   1  -1  -4 2420.36   58.19
   1  -1  -4 2404.86   58.19
   1  -1  -4 2478.65   58.39
   1  -1  -4 2411.16   57.69
  -1   1   4 2452.75   58.29
  -1   1   4 2303.17   58.19
   0  -1  -4   59.59    2.20
   0  -1  -4   59.39    2.50
   0  -1  -4   61.29    2.70
   0  -1  -4   65.09    2.50
   0   1   4   60.79    2.50
   0   1   4   63.29    2.50
   0   1   4   62.69    2.60
  -1  -1  -4    3.60    1.40
  -1  -1  -4    1.50    1.10
  -1  -1  -4    0.50    0.90
   1   1   4    2.30    0.90
   1   1   4    1.00    1.10
   1   1   4    1.20    1.00
  -2  -1  -4  749.33   19.30
  -2  -1  -4  757.72   19.60
   2   1   4  748.43   19.40
   2   1   4  747.03   19.00
   2   1   4  748.03   18.80
  -3  -1  -4   70.99    4.10
   3   1   4   66.49    2.50
   3   1   4   72.49    3.40
  -4  -1  -4   -1.30    2.70
  -4  -1  -4    1.40    2.80
   4   1   4    1.50    1.80
  -7   2   4   11.90    1.90
  -7   2   4    9.90    1.80
  -7   2   4    6.70    2.00
  -7   2   4   10.40    1.70
  -7   2   4    5.70    1.70
  -6   2   4  422.76   11.30
  -6   2   4  436.96   11.40
  -6   2   4  418.46   11.10
  -6   2   4  415.46   11.10
  -6   2   4  407.26   10.90
  -5   2   4   71.29    2.60
  -5   2   4   72.89    3.20
  -5   2   4   72.89    3.00
  -5   2   4   71.49    2.80
  -4   2   4 1373.66   33.70
  -4   2   4 1352.76   33.40
  -4   2   4 1376.96   33.10
  -4   2   4 1353.56   33.20
   3  -2  -4  756.32   18.60
   3  -2  -4  746.13   18.30
  -3   2   4  750.52   18.20
  -3   2   4  741.33   19.00
  -3   2   4  721.53   18.40
  -3   2   4  764.92   18.80
  -3   2   4  740.03   18.80
   2  -2  -4  281.47    7.80
   2  -2  -4  294.27    7.60
  -2   2   4  289.47    7.30
  -2   2   4  289.47    7.60
  -2   2   4  285.37    7.90
  -2   2   4  285.77    8.10
  -2   2   4  285.57    7.90
   1  -2  -4  261.17    7.50
   1  -2  -4  258.97    7.10
   1  -2  -4  235.08    7.10
   1  -2  -4  267.47    6.90
  -1   2   4  270.47    7.20
  -1   2   4  283.57    7.10
  -1   2   4  261.47    7.40
  -1   2   4  256.57    7.30
  -1   2   4  251.07    7.30
   0  -2  -4    9.30    1.50
   0  -2  -4   10.30    1.30
   0  -2  -4    9.10    1.20
   0   2   4   12.20    1.60
   0   2   4   11.30    1.30
   0   2   4    9.40    1.20
   0   2   4   12.90    1.60
  -1  -2  -4  168.48    5.40
  -1  -2  -4  173.58    5.80
   1   2   4  172.38    5.40
   1   2   4  162.08    5.10
   1   2   4  167.58    5.20
   1   2   4  170.68    5.50
  -2  -2  -4  475.55   13.50
  -2  -2  -4  484.05   13.20
   2   2   4  490.75   12.90
   2   2   4  480.25   12.60
  -3  -2  -4   -1.70    2.30
  -3  -2  -4    0.00    2.30
   3   2   4   -0.70    1.00
   3   2   4    0.60    1.50
  -4  -2  -4   80.89    6.40
  -4  -2  -4   78.69    6.30
   4   2   4   88.09    4.60
  -7   3   4    1.90    2.00
  -7   3   4    4.60    2.00
  -7   3   4    3.70    1.90
  -6   3   4  156.28    5.20
  -6   3   4  150.28    4.50
  -6   3   4  156.88    5.10
  -6   3   4  156.88    5.50
  -6   3   4  162.98    5.20
  -5   3   4  245.88    7.40
  -5   3   4  229.18    7.00
  -5   3   4  243.58    6.40
  -5   3   4  248.48    7.00
  -4   3   4   72.39    3.00
  -4   3   4   69.49    2.80
  -4   3   4   75.29    3.30
  -4   3   4   73.39    2.40
   3  -3  -4   19.70    1.40
  -3   3   4   21.80    1.30
  -3   3   4   19.80    1.70
  -3   3   4   20.00    1.90
  -3   3   4   19.80    1.90
   2  -3  -4 1498.45   36.00
  -2   3   4 1505.95   36.10
  -2   3   4 1474.95   36.50
  -2   3   4 1457.05   36.60
  -2   3   4 1474.55   36.00
   1  -3  -4   50.89    2.30
   1  -3  -4   55.49    2.30
  -1   3   4   54.29    2.40
  -1   3   4   55.89    2.40
  -1   3   4   54.59    2.70
   0  -3  -4  134.29    5.00
   0  -3  -4  131.19    4.40
   0   3   4  124.99    4.50
   0   3   4  135.39    4.60
   0   3   4  130.89    4.40
   0   3   4  132.49    4.50
  -1  -3  -4  316.57    9.50
  -1  -3  -4  305.97    9.00
   1   3   4  311.97    8.80
   1   3   4  313.37    8.90
  -2  -3  -4  286.87    9.00
  -2  -3  -4  291.87    9.50
   2   3   4  298.27    8.30
   2   3   4  295.27    8.70
  -3  -3  -4    1.10    2.60
  -3  -3  -4   -2.20    3.00
   3   3   4    0.20    1.90
   3   3   4    0.90    2.00
  -6   4   4   41.40    3.30
  -6   4   4   40.70    3.20
  -6   4   4   42.70    3.00
  -5   4   4    6.80    1.60
  -5   4   4    6.70    1.60
  -4   4   4   85.69    3.70
  -4   4   4   83.09    3.50
  -4   4   4   84.19    2.60
  -4   4   4   71.49    3.30
   3  -4  -4   99.79    3.10
  -3   4   4  100.49    3.80
  -3   4   4   94.29    3.60
  -3   4   4  101.29    3.10
  -3   4   4   96.69    4.00
   2  -4  -4  586.84   15.00
  -2   4   4  591.54   15.30
  -2   4   4  601.54   15.10
  -2   4   4  599.34   15.80
  -2   4   4  607.44   15.60
   1  -4  -4   32.60    2.30
   1  -4  -4   28.50    1.90
  -1   4   4   31.50    2.40
  -1   4   4   31.20    2.20
  -1   4   4   29.70    2.40
   0  -4  -4  388.96   10.80
   0   4   4  394.96   10.90
   0   4   4  392.66   10.90
  -1  -4  -4   16.90    2.60
  -1  -4  -4   15.40    2.30
   1   4   4   17.00    2.00
   1   4   4   14.40    2.30
  -2  -4  -4  502.15   15.00
  -2  -4  -4  500.85   14.60
   2   4   4  519.75   13.60
   2   4   4  523.35   14.10
  -6   5   4   39.50    3.80
  -6   5   4   36.40    3.00
  -5   5   4   28.50    3.20
  -5   5   4   29.90    2.80
  -4   5   4   63.59    3.60
  -4   5   4   66.29    3.30
  -3   5   4   19.10    2.40
   2  -5  -4   39.10    2.10
  -2   5   4   44.20    2.90
  -2   5   4   36.60    2.80
   1  -5  -4  120.39    4.70
  -1   5   4  120.79    4.70
   0  -5  -4   11.90    1.90
   0   5   4    6.80    1.90
   0   5   4    9.70    1.80
  -1  -5  -4   44.30    4.80
   1   5   4   48.60    3.10
   1   5   4   49.90    3.90
  -5   6   4   57.49    4.10
  -5   6   4   52.59    3.60
  -4   6   4  127.79    5.50
  -3   6   4   22.80    2.70
  -3   6   4   23.30    2.60
  -2   6   4  110.59    4.90
  -2   6   4  114.19    4.90
   1  -6  -4  265.77    8.50
  -1   6   4  247.48    8.20
  -1   6   4  256.47    8.30
   0  -6  -4  396.96   11.90
   0   6   4  406.66   11.60
   0   6   4  393.96   11.70
   1   8  -5   -1.80    1.50
   1   8  -5    0.40    1.90
  -1  -8   5    2.40    2.40
   0   8  -5   11.80    1.90
   0   8  -5   13.80    2.20
   0  -8   5   15.30    2.30
  -3  -7   5    1.10    2.90
  -3  -7   5    1.00    2.20
   2   7  -5  103.49    4.40
   2   7  -5   97.69    3.50
  -2  -7   5  122.49    5.90
  -2  -7   5  114.79    4.90
   1   7  -5    0.80    1.60
   1   7  -5    0.60    1.10
  -1  -7   5    2.40    1.80
   0   7  -5  151.28    5.40
   0   7  -5  158.08    5.20
   0  -7   5  163.18    5.50
  -1   7  -5    6.90    1.70
  -1   7  -5    2.80    1.70
   1  -7   5    2.40    1.90
  -2   7  -5    8.40    2.00
  -2   7  -5    6.80    2.10
   2  -7   5    3.60    1.80
  -4  -6   5   57.29    4.90
  -4  -6   5   56.59    4.00
  -3  -6   5  220.58    7.20
  -3  -6   5  220.88    7.60
   2   6  -5   46.60    1.80
  -2  -6   5   54.39    3.80
  -2  -6   5   48.30    3.10
   1   6  -5    2.20    1.30
   1   6  -5    5.30    0.90
  -1  -6   5    6.40    1.70
   0   6  -5   14.10    1.70
   0   6  -5   18.00    2.00
   0  -6   5   17.20    2.00
  -1   6  -5   36.60    2.70
  -1   6  -5   34.10    2.60
   1  -6   5   39.00    3.00
  -2   6  -5  114.49    4.70
   2  -6   5  115.09    4.70
   2  -6   5  114.49    3.80
  -3   6  -5   -3.30    2.10
   3  -6   5    2.20    2.00
  -5  -5   5  307.57    9.60
  -5  -5   5  308.17   13.00
  -4  -5   5  565.34   15.10
  -4  -5   5  564.74   15.30
  -3  -5   5   -0.20    1.50
  -3  -5   5    3.50    1.50
   2   5  -5  118.59    3.30
   2   5  -5  116.49    3.50
  -2  -5   5  129.19    4.40
  -2  -5   5  123.59    4.70
   1   5  -5  312.77    8.00
  -1  -5   5  313.37    8.70
   0   5  -5  517.95   13.00
   0  -5   5  498.95   13.40
  -1   5  -5    6.10    1.40
   1  -5   5    6.40    1.60
   1  -5   5    6.40    1.30
  -2   5  -5   37.30    2.80
   2  -5   5   31.80    3.00
   2  -5   5   29.50    2.00
  -3   5  -5   82.49    4.60
   3  -5   5   77.19    4.30
  -6  -4   5   53.79    4.20
  -6  -4   5   55.99    4.80
  -5  -4   5    1.70    1.90
  -5  -4   5    0.40    1.80
  -4  -4   5   32.10    2.40
  -4  -4   5   28.40    2.80
   3   4  -5    5.60    1.40
  -3  -4   5    3.30    1.30
  -3  -4   5    7.00    1.30
   2   4  -5   39.40    2.50
  -2  -4   5   39.90    2.40
  -2  -4   5   40.80    2.40
   1   4  -5   60.49    3.10
   1   4  -5   61.09    2.10
  -1  -4   5   67.59    2.90
   0   4  -5    7.60    1.10
   0   4  -5    6.50    1.40
   0  -4   5    5.70    1.40
  -1   4  -5   81.09    3.30
   1  -4   5   77.59    3.50
   1  -4   5   83.19    3.10
  -2   4  -5    6.70    1.70
   2  -4   5    7.80    1.10
   2  -4   5    8.80    1.80
  -3   4  -5  172.48    6.50
   3  -4   5  173.28    6.20
  -4   4  -5    4.00    3.00
   4  -4   5    2.00    2.80
  -6  -3   5   21.50    2.70
  -6  -3   5   15.60    2.60
  -5  -3   5  597.14   15.60
  -5  -3   5  586.44   15.50
   4   3  -5   96.99    3.70
  -4  -3   5  102.79    3.70
  -4  -3   5   99.89    3.80
   3   3  -5  675.53   17.10
  -3  -3   5  667.33   17.10
  -3  -3   5  703.83   17.40
   2   3  -5   47.40    2.30
  -2  -3   5   44.80    2.30
   1   3  -5  735.63   19.50
   1   3  -5  771.22   19.10
   1   3  -5  777.92   19.00
  -1  -3   5  769.02   19.30
   0   3  -5   49.60    2.70
   0   3  -5   49.80    2.10
   0  -3   5   46.40    2.20
   0  -3   5   45.60    2.50
   0  -3   5   42.80    2.10
  -1   3  -5   38.70    2.40
   1  -3   5   38.90    2.20
   1  -3   5   34.10    2.50
   1  -3   5   40.50    2.20
  -2   3  -5   41.40    2.90
   2  -3   5   36.70    3.00
   2  -3   5   33.00    2.10
  -3   3  -5    3.70    2.30
   3  -3   5    0.60    1.10
   3  -3   5    2.90    1.90
  -4   3  -5    7.10    2.90
  -4   3  -5    6.90    2.80
   4  -3   5    9.00    2.90
  -7  -2   5   42.80    4.30
  -6  -2   5   36.00    3.50
  -6  -2   5   37.90    3.20
  -5  -2   5   19.60    2.20
  -5  -2   5   20.90    2.20
   4   2  -5   64.19    2.60
  -4  -2   5   68.39    2.50
  -4  -2   5   64.49    2.90
   3   2  -5   17.30    1.40
  -3  -2   5   16.80    1.40
  -3  -2   5   17.50    1.70
  -3  -2   5   19.10    1.30
   2   2  -5  105.39    3.60
   2   2  -5  109.69    3.10
  -2  -2   5  102.19    3.30
  -2  -2   5  109.79    3.60
   1   2  -5  406.46   10.20
   1   2  -5  397.76   10.50
   1   2  -5  389.66   10.20
  -1  -2   5  400.16   10.20
  -1  -2   5  405.66   10.60
  -1  -2   5  393.56   10.00
  -1  -2   5  405.96   10.40
   0   2  -5   87.39    3.10
   0  -2   5   89.49    3.10
   0  -2   5   80.99    2.80
   0  -2   5   89.09    3.30
   0  -2   5   79.89    2.80
  -1   2  -5  579.64   14.50
   1  -2   5  542.05   13.90
   1  -2   5  548.65   14.10
   1  -2   5  553.84   14.50
  -2   2  -5   44.00    2.80
  -2   2  -5   39.00    3.00
   2  -2   5   43.20    2.40
   2  -2   5   35.90    2.00
   2  -2   5   46.00    3.00
  -3   2  -5  131.19    5.70
  -3   2  -5  135.99    5.30
   3  -2   5  121.39    4.10
   3  -2   5  127.89    5.30
  -4   2  -5   32.80    4.10
  -4   2  -5   33.40    4.10
  -7  -1   5  161.88    5.50
  -7  -1   5  165.18    6.00
  -7  -1   5  148.99    6.20
  -7  -1   5  165.98    6.20
  -6  -1   5   37.10    2.90
  -6  -1   5   38.40    1.80
  -6  -1   5   39.70    2.70
  -5  -1   5  208.98    6.20
  -5  -1   5  204.68    5.90
  -4  -1   5    3.60    1.00
  -4  -1   5    4.00    0.80
  -4  -1   5    1.30    1.10
   3   1  -5  443.16   11.90
  -3  -1   5  471.55   12.00
  -3  -1   5  470.55   12.00
   2   1  -5   82.29    3.00
  -2  -1   5   84.99    3.00
  -2  -1   5   84.89    3.10
   1   1  -5   84.29    2.80
   1   1  -5   86.59    2.50
   1   1  -5   84.69    2.40
   1   1  -5   77.89    3.00
  -1  -1   5   82.89    3.00
  -1  -1   5   81.39    3.10
  -1  -1   5   84.09    2.60
   0   1  -5  129.59    3.70
   0   1  -5  128.59    4.20
   0  -1   5  129.49    3.90
   0  -1   5  131.19    4.20
   0  -1   5  126.89    4.30
  -1   1  -5  164.88    5.30
  -1   1  -5  166.28    5.00
   1  -1   5  166.98    5.10
   1  -1   5  155.98    4.60
   1  -1   5  165.68    5.40
  -2   1  -5   21.40    2.60
  -2   1  -5   27.70    2.90
   2  -1   5   26.80    2.30
   2  -1   5   25.10    1.50
   2  -1   5   29.20    2.70
  -3   1  -5  283.17    8.80
  -3   1  -5  283.57    9.20
   3  -1   5  279.97    7.90
   3  -1   5  281.97    9.00
  -4   1  -5   53.29    5.60
  -4   1  -5   50.29    5.30
  -7   0   5    9.10    1.60
  -7   0   5    5.90    2.00
  -7   0   5    8.30    2.20
  -7   0   5    9.90    2.30
  -7   0   5    9.50    2.00
  -6   0   5   49.30    2.90
  -6   0   5   49.40    2.80
  -6   0   5   46.20    2.20
  -6   0   5   52.09    3.10
  -6   0   5   47.30    2.80
  -5   0   5  161.88    4.40
  -5   0   5  159.88    4.70
  -5   0   5  157.78    5.10
  -5   0   5  168.08    5.10
  -4   0   5  664.73   17.20
  -4   0   5  686.73   17.00
  -4   0   5  671.33   16.60
  -4   0   5  708.83   17.40
   3   0  -5  827.42   20.80
  -3   0   5  833.12   20.90
  -3   0   5  844.32   20.80
  -3   0   5  836.02   20.50
   2   0  -5   50.59    2.20
  -2   0   5   51.89    2.40
  -2   0   5   51.69    2.30
  -2   0   5   49.70    2.00
   1   0  -5   35.70    2.00
   1   0  -5   33.60    1.90
   1   0  -5   34.20    1.90
  -1   0   5   36.70    2.00
  -1   0   5   32.30    2.00
  -1   0   5   35.00    1.80
   0   0  -5 1750.32   41.40
   0   0  -5 1628.04   41.00
   0   0  -5 1681.03   40.80
   0   0   5 1643.64   41.00
   0   0   5 1693.53   41.30
   0   0   5 1716.63   41.30
  -1   0  -5  889.71   22.40
  -1   0  -5  909.71   22.90
   1   0   5  871.71   22.80
   1   0   5  923.81   22.70
  -2   0  -5   17.40    2.60
  -2   0  -5   19.50    2.70
   2   0   5   16.00    2.10
   2   0   5   15.80    1.90
  -3   0  -5   14.30    2.50
  -3   0  -5   10.30    2.80
   3   0   5   12.80    1.40
   3   0   5   12.40    2.60
   3   0   5   12.90    2.00
  -4   0  -5  143.29    7.60
  -4   0  -5  124.69    7.10
  -7   1   5  116.49    4.10
  -7   1   5  111.69    4.50
  -7   1   5  109.49    4.60
  -7   1   5  108.39    4.70
  -7   1   5  105.59    4.50
  -6   1   5   17.10    1.90
  -6   1   5   20.40    2.60
  -6   1   5   20.00    2.30
  -6   1   5   23.90    2.30
  -6   1   5   21.60    2.10
  -5   1   5  454.35   12.40
  -5   1   5  460.15   11.70
  -5   1   5  457.85   11.90
  -5   1   5  456.45   11.60
  -5   1   5  465.55   12.20
  -4   1   5   20.80    1.70
  -4   1   5   17.00    2.00
  -4   1   5   22.10    2.00
  -4   1   5   22.90    2.10
   3  -1  -5    0.00    0.80
  -3   1   5   -0.20    0.90
  -3   1   5    0.10    0.80
  -3   1   5   -1.70    1.00
   2  -1  -5   53.09    2.30
  -2   1   5   56.49    2.40
  -2   1   5   53.69    2.40
  -2   1   5   55.79    2.60
   1  -1  -5    0.40    1.10
   1  -1  -5    1.20    0.60
   1  -1  -5   -0.10    0.90
  -1   1   5   -0.40    0.80
  -1   1   5    0.00    0.90
  -1   1   5   -1.30    1.00
   0  -1  -5  126.49    3.90
   0  -1  -5  128.79    4.80
   0   1   5  135.69    4.60
   0   1   5  127.59    4.50
   0   1   5  133.79    4.50
  -1  -1  -5  280.57    8.40
  -1  -1  -5  277.47    7.80
   1   1   5  269.67    8.10
   1   1   5  272.57    8.00
   1   1   5  271.77    7.90
  -2  -1  -5    4.00    1.80
  -2  -1  -5    4.90    2.70
   2   1   5    4.60    1.70
   2   1   5    4.10    1.30
  -3  -1  -5    4.90    2.90
  -3  -1  -5   -2.10    2.60
   3   1   5    3.10    1.90
   3   1   5   -0.40    1.30
  -7   2   5    4.30    1.90
  -7   2   5    0.60    1.90
  -7   2   5    0.90    2.00
  -7   2   5    7.20    1.70
  -7   2   5    3.40    1.80
  -6   2   5   12.80    2.00
  -6   2   5   15.20    1.90
  -6   2   5   12.90    1.70
  -6   2   5   14.90    1.60
  -6   2   5   14.00    1.70
  -5   2   5   82.69    3.10
  -5   2   5   83.69    3.10
  -5   2   5   80.09    3.70
  -5   2   5   84.49    3.60
  -5   2   5   81.89    2.80
  -4   2   5 1498.05   35.80
  -4   2   5 1445.96   34.90
  -4   2   5 1438.76   35.00
  -4   2   5 1444.96   36.00
  -4   2   5 1417.26   35.70
  -4   2   5 1453.05   35.40
   3  -2  -5  162.18    4.90
  -3   2   5  169.78    5.30
  -3   2   5  168.68    5.50
  -3   2   5  166.38    5.30
  -3   2   5  167.78    5.00
   2  -2  -5 1378.96   34.10
  -2   2   5 1386.86   34.60
  -2   2   5 1365.66   34.40
  -2   2   5 1379.56   34.20
  -2   2   5 1445.86   33.60
  -2   2   5 1412.36   34.50
   1  -2  -5   20.90    1.40
   1  -2  -5   19.50    2.30
  -1   2   5   20.60    2.20
  -1   2   5   23.50    2.10
  -1   2   5   19.80    2.00
  -1   2   5   21.90    1.50
   0  -2  -5 1863.41   44.60
   0  -2  -5 1805.72   43.80
   0   2   5 1756.52   44.20
   0   2   5 1790.52   44.20
   0   2   5 1778.22   44.20
  -1  -2  -5  237.58    7.30
  -1  -2  -5  252.47    8.00
   1   2   5  238.88    7.50
   1   2   5  239.08    7.30
   1   2   5  245.78    7.50
  -2  -2  -5   80.09    5.10
  -2  -2  -5   78.89    4.30
   2   2   5   78.99    4.10
   2   2   5   72.69    3.60
  -3  -2  -5   -3.30    2.70
  -3  -2  -5   -1.20    3.20
   3   2   5    0.60    2.20
  -7   3   5   30.90    3.10
  -7   3   5   31.90    3.00
  -7   3   5   23.40    2.70
  -7   3   5   22.60    2.80
  -6   3   5  345.37   10.00
  -6   3   5  363.66    9.90
  -6   3   5  356.56    9.40
  -6   3   5  357.66    9.70
  -6   3   5  364.76   10.40
  -5   3   5    7.90    1.60
  -5   3   5    6.80    1.30
  -5   3   5    8.90    1.20
  -5   3   5    9.10    1.60
   4  -3  -5  243.68    6.50
  -4   3   5  241.98    6.60
  -4   3   5  236.58    7.10
  -4   3   5  233.78    7.40
  -4   3   5  230.88    6.50
   3  -3  -5   70.99    2.70
  -3   3   5   73.39    3.40
  -3   3   5   69.59    2.80
  -3   3   5   69.09    3.20
  -3   3   5   67.99    3.00
   2  -3  -5  517.45   13.50
  -2   3   5  531.55   14.10
  -2   3   5  545.55   13.70
  -2   3   5  522.95   14.10
  -2   3   5  515.05   13.20
   1  -3  -5  109.49    3.70
  -1   3   5  110.99    3.80
  -1   3   5  112.79    4.10
  -1   3   5  107.19    4.30
  -1   3   5  113.09    4.30
   0  -3  -5    3.40    1.40
   0  -3  -5    3.50    1.90
   0   3   5    4.80    1.40
   0   3   5    3.40    1.40
   0   3   5    1.10    1.30
   0   3   5    3.30    1.50
  -1  -3  -5   53.39    3.60
  -1  -3  -5   52.79    4.40
   1   3   5   52.69    3.80
   1   3   5   55.59    3.30
  -2  -3  -5   -3.00    3.00
   2   3   5    2.80    1.60
   2   3   5   -0.20    2.20
  -6   4   5  158.88    6.20
  -6   4   5  156.98    5.60
  -5   4   5  271.07    8.50
  -5   4   5  270.47    8.10
  -5   4   5  263.37    7.00
  -4   4   5  711.93   19.30
  -4   4   5  732.13   20.70
  -4   4   5  762.42   19.20
  -4   4   5  758.02   18.40
   3  -4  -5  565.94   14.80
  -3   4   5  606.34   15.70
  -3   4   5  588.54   15.90
  -3   4   5  606.94   15.00
  -3   4   5  580.44   15.00
  -2   4   5 1762.02   43.80
  -2   4   5 1757.42   43.60
  -2   4   5 1750.02   42.90
  -2   4   5 1781.82   43.10
   1  -4  -5  132.09    4.60
  -1   4   5  132.69    5.10
  -1   4   5  124.69    4.60
  -1   4   5  132.19    4.70
  -1   4   5  123.99    5.90
   0  -4  -5  572.74   15.40
   0   4   5  590.34   15.70
   0   4   5  580.04   15.70
  -1  -4  -5   36.40    4.70
  -1  -4  -5   39.80    3.90
   1   4   5   33.20    3.80
   1   4   5   35.10    3.20
  -5   5   5  411.26   12.10
  -4   5   5  441.36   12.60
  -4   5   5  433.86   12.40
  -3   5   5   13.00    2.30
  -3   5   5   10.50    2.20
  -2   5   5    1.60    1.80
  -2   5   5    1.50    1.70
   1  -5  -5    8.00    2.00
  -1   5   5    8.80    2.00
  -1   5   5    7.60    2.00
   0  -5  -5  192.08    6.90
   0   5   5  200.28    7.20
   0   5   5  192.08    6.90
  -3   6   5   28.50    3.10
  -3   6   5   27.10    3.30
  -2   6   5   51.39    4.30
  -2   6   5   40.50    4.10
  -3  -7   6   13.60    2.90
  -3  -7   6    9.10    3.40
  -2  -7   6   38.60    4.00
   1   7  -6   27.80    2.10
  -1  -7   6   30.30    3.70
   0   7  -6   11.80    1.80
   0  -7   6   10.70    3.00
  -1   7  -6    3.50    2.20
   1  -7   6    7.50    2.40
  -4  -6   6    4.70    3.30
  -4  -6   6    9.70    2.50
  -3  -6   6  139.19    5.70
  -3  -6   6  143.89    6.10
   1   6  -6    2.50    1.00
  -1  -6   6    2.90    1.90
   0   6  -6    1.80    1.40
   0  -6   6    4.90    1.90
  -1   6  -6  118.89    4.60
   1  -6   6  112.29    5.00
   1  -6   6  113.59    4.60
  -2   6  -6    4.30    2.30
   2  -6   6    4.00    2.40
  -5  -5   6    1.40    2.40
  -5  -5   6    3.60    2.40
  -4  -5   6  186.78    6.60
  -4  -5   6  180.78    6.50
  -3  -5   6   38.80    4.10
  -3  -5   6   51.99    3.60
  -2  -5   6    7.10    1.60
   1   5  -6   55.09    2.30
  -1  -5   6   58.59    3.40
   0   5  -6   18.30    2.30
   0  -5   6   22.00    2.70
   0  -5   6   26.60    2.70
  -1   5  -6   69.39    3.80
   1  -5   6   81.49    4.20
   1  -5   6   68.99    3.60
  -2   5  -6   46.20    4.60
   2  -5   6   44.20    3.80
   2  -5   6   47.80    2.70
  -6  -4   6   -1.70    2.50
  -6  -4   6    0.80    2.30
  -5  -4   6   67.79    4.00
  -5  -4   6   69.09    4.00
   4   4  -6   -0.10    1.70
  -4  -4   6    3.10    2.70
  -4  -4   6    1.10    1.50
   3   4  -6  240.48    7.10
  -3  -4   6  250.37    7.20
  -3  -4   6  254.17    7.40
   2   4  -6   15.60    1.70
  -2  -4   6   15.00    1.80
   1   4  -6  200.38    6.30
   1   4  -6  206.68    5.70
  -1  -4   6  216.68    6.50
   0   4  -6    2.20    1.20
   0   4  -6    2.00    1.70
   0  -4   6    2.10    1.30
   0  -4   6    0.10    1.40
  -1   4  -6  103.69    4.20
   1  -4   6   98.19    4.50
   1  -4   6  104.79    4.00
  -2   4  -6   10.40    2.10
   2  -4   6    9.90    1.60
   2  -4   6    8.10    2.30
  -3   4  -6    2.50    2.80
   3  -4   6   -1.70    2.70
  -6  -3   6   92.19    4.80
  -6  -3   6   93.49    4.60
  -5  -3   6    7.70    1.90
  -5  -3   6    7.50    1.70
   4   3  -6   48.90    2.50
  -4  -3   6   48.60    2.50
  -4  -3   6   45.40    2.80
   3   3  -6   -0.20    1.10
  -3  -3   6    0.70    1.10
   2   3  -6   59.49    2.70
  -2  -3   6   64.69    3.10
   1   3  -6  206.38    5.80
   1   3  -6  208.78    6.10
  -1  -3   6  205.98    6.40
  -1  -3   6  211.78    6.20
   0   3  -6    7.40    1.60
   0   3  -6    9.30    1.50
   0  -3   6    4.50    1.10
   0  -3   6    6.70    1.50
   0  -3   6    8.70    1.50
  -1   3  -6   90.49    4.00
   1  -3   6   91.89    4.10
   1  -3   6   93.49    3.80
  -2   3  -6   23.10    2.90
   2  -3   6   26.60    2.60
   2  -3   6   27.40    3.50
  -3   3  -6  104.19    5.90
  -3   3  -6   98.49    5.40
   3  -3   6  100.69    5.80
  -6  -2   6  296.07    8.50
  -6  -2   6  283.87    8.70
  -5  -2   6  323.17    9.20
  -5  -2   6  317.17    8.70
  -4  -2   6  292.47    9.20
  -4  -2   6  354.76    9.10
  -3  -2   6  851.21   21.30
  -3  -2   6  839.62   21.30
   2   2  -6  424.86   10.70
   2   2  -6  430.66   10.90
  -2  -2   6  434.46   11.50
  -2  -2   6  434.06   11.50
  -2  -2   6  429.86   10.80
   1   2  -6 1064.39   25.60
  -1  -2   6 1039.20   25.80
  -1  -2   6 1050.79   26.00
  -1  -2   6  990.80   25.20
   0   2  -6   93.09    3.70
   0  -2   6   91.29    3.20
   0  -2   6   93.99    3.90
   0  -2   6   95.39    3.80
  -1   2  -6  201.68    6.60
  -1   2  -6  198.48    6.10
   1  -2   6  201.48    6.20
   1  -2   6  204.58    6.70
  -2   2  -6    8.10    1.90
  -2   2  -6    9.30    2.50
   2  -2   6   10.30    2.90
   2  -2   6    8.00    1.90
  -3   2  -6    2.80    3.10
  -3   2  -6    6.00    2.60
   3  -2   6    2.70    2.80
   3  -2   6    4.40    1.70
  -7  -1   6  287.67    9.00
  -7  -1   6  288.07    8.60
  -7  -1   6  283.27    9.00
  -7  -1   6  289.07    9.00
  -6  -1   6  186.38    6.30
  -6  -1   6  190.18    5.70
  -6  -1   6  179.18    6.30
  -5  -1   6    0.90    1.60
  -5  -1   6   -0.30    1.20
  -5  -1   6    1.30    0.80
  -4  -1   6    0.20    1.10
  -4  -1   6    3.00    1.20
  -3  -1   6  145.29    4.40
  -3  -1   6  152.58    5.00
  -3  -1   6  156.48    5.10
   2   1  -6  808.52   19.80
  -2  -1   6  788.52   19.60
  -2  -1   6  804.72   20.30
  -2  -1   6  799.82   20.30
   1   1  -6  452.15   11.60
   1   1  -6  489.45   12.40
   1   1  -6  483.65   11.70
  -1  -1   6  467.75   12.50
  -1  -1   6  465.45   12.60
  -1  -1   6  466.85   12.00
   0   1  -6   55.99    2.20
   0   1  -6   53.19    3.20
   0  -1   6   55.39    3.00
   0  -1   6   55.79    3.10
  -1   1  -6    4.90    1.80
  -1   1  -6    1.60    1.40
   1  -1   6    4.90    1.60
   1  -1   6    2.50    1.60
  -2   1  -6  409.96   11.50
  -2   1  -6  400.06   12.20
   2  -1   6  411.96   11.90
   2  -1   6  399.56   11.20
  -3   1  -6   83.09    6.10
  -3   1  -6   79.79    5.20
   3  -1   6   84.29    3.80
   3  -1   6   76.09    5.50
   3  -1   6   64.99    4.80
  -7   0   6   17.30    2.40
  -7   0   6   10.80    2.40
  -7   0   6   14.00    2.50
  -7   0   6   13.10    2.00
  -6   0   6  234.18    6.40
  -6   0   6  247.08    7.50
  -6   0   6  238.78    6.70
  -6   0   6  253.17    7.70
  -6   0   6  234.58    7.20
  -5   0   6   14.00    1.10
  -5   0   6   13.30    1.70
  -5   0   6   14.90    1.90
  -5   0   6   13.60    1.70
  -4   0   6 1422.66   34.90
  -4   0   6 1433.26   34.80
  -4   0   6 1374.36   34.20
  -3   0   6  562.24   14.60
  -3   0   6  549.95   14.00
  -3   0   6  561.04   14.50
  -2   0   6  397.96   10.50
  -2   0   6  419.96   11.10
  -2   0   6  405.56   10.90
   1   0  -6   18.70    2.30
  -1   0   6   18.80    2.20
  -1   0   6   15.90    1.70
  -1   0   6   17.90    1.90
   0   0  -6  261.67    7.40
   0   0  -6  286.47    8.40
   0   0   6  284.07    8.30
   0   0   6  274.07    8.10
  -1   0  -6   15.80    1.80
  -1   0  -6   16.40    2.70
   1   0   6   10.90    2.00
   1   0   6   13.30    2.00
  -2   0  -6   17.80    3.20
  -2   0  -6   18.00    2.50
   2   0   6   13.10    2.10
   2   0   6   18.20    2.90
   2   0   6   19.70    2.40
  -3   0  -6   63.29    6.40
  -3   0  -6   60.29    5.30
   3   0   6   49.40    3.90
   3   0   6   57.99    5.30
  -7   1   6   19.60    5.00
  -7   1   6   18.10    2.30
  -7   1   6   17.80    2.60
  -7   1   6   15.70    2.30
  -6   1   6   19.00    2.30
  -6   1   6   13.60    1.80
  -6   1   6   16.90    1.90
  -6   1   6   16.40    1.90
  -6   1   6   17.80    2.40
  -5   1   6    4.00    1.40
  -5   1   6    3.20    1.30
  -5   1   6    3.30    1.60
  -5   1   6    3.50    1.60
  -4   1   6   70.29    3.10
  -4   1   6   75.69    3.60
  -4   1   6   73.59    3.20
  -4   1   6   70.09    3.40
  -3   1   6   94.09    3.80
  -3   1   6   89.09    3.50
  -3   1   6   85.89    3.40
  -2   1   6   94.99    3.70
  -2   1   6   91.09    3.40
  -2   1   6   96.09    3.90
   1  -1  -6   50.49    3.30
   1  -1  -6   53.79    2.00
  -1   1   6   57.79    3.00
  -1   1   6   54.69    3.10
   0  -1  -6   69.99    2.80
   0  -1  -6   70.19    3.90
   0   1   6   71.29    3.50
   0   1   6   69.09    3.70
   0   1   6   66.39    3.50
  -1  -1  -6  294.97    8.60
   1   1   6  293.47    9.10
   1   1   6  290.67    8.80
   1   1   6  297.17    8.70
  -2  -1  -6  156.68    6.20
  -2  -1  -6  159.78    7.20
   2   1   6  156.08    5.60
   2   1   6  165.78    6.70
  -6   2   6  149.99    5.60
  -6   2   6  154.58    5.00
  -6   2   6  147.49    4.60
  -6   2   6  148.29    5.00
  -6   2   6  152.48    6.20
  -5   2   6   17.50    2.20
  -5   2   6   21.10    2.40
  -5   2   6   18.30    2.30
  -4   2   6  495.25   13.50
  -4   2   6  482.25   12.80
  -3   2   6    2.00    1.30
  -3   2   6    2.70    1.40
  -3   2   6    2.60    1.40
  -2   2   6   88.29    3.90
  -2   2   6   86.89    3.70
  -2   2   6   88.79    3.90
   1  -2  -6   52.19    3.60
   1  -2  -6   50.19    2.10
  -1   2   6   50.19    3.20
  -1   2   6   51.39    3.20
  -1   2   6   47.70    3.00
   0  -2  -6   -0.90    2.00
   0  -2  -6    0.50    1.20
   0   2   6    1.40    1.50
   0   2   6   -0.20    1.60
   0   2   6   -0.40    1.60
  -1  -2  -6   22.50    3.30
  -1  -2  -6   14.30    2.30
   1   2   6   16.60    2.80
   1   2   6   14.90    2.20
   1   2   6   14.40    2.50
  -2  -2  -6   40.00    4.40
  -2  -2  -6   38.50    4.60
   2   2   6   33.70    4.30
   2   2   6   35.00    3.10
  -6   3   6   26.50    3.10
  -6   3   6   26.40    2.40
  -5   3   6   22.30    2.60
  -5   3   6   18.50    2.20
  -5   3   6   23.00    2.30
  -4   3   6    3.70    1.60
  -4   3   6    2.50    1.30
  -4   3   6    0.40    1.60
  -3   3   6   28.50    2.50
  -3   3   6   24.10    2.70
  -2   3   6    2.10    1.50
  -2   3   6    2.20    1.50
  -2   3   6    1.80    1.00
   1  -3  -6  228.48    6.60
  -1   3   6  239.88    7.40
  -1   3   6  234.88    7.60
  -1   3   6  227.98    7.50
   0  -3  -6   30.60    4.20
   0  -3  -6   25.60    2.90
   0   3   6   26.50    3.40
   0   3   6   24.10    3.00
   0   3   6   27.60    3.00
  -1  -3  -6  176.08    7.80
  -1  -3  -6  163.48    6.30
   1   3   6  159.18    6.30
   1   3   6  166.68    6.70
  -5   4   6    8.30    2.40
  -5   4   6    5.90    1.50
  -5   4   6    8.30    2.40
  -4   4   6   34.80    3.50
  -4   4   6   32.20    3.40
  -4   4   6   33.60    2.60
  -3   4   6  268.27    8.70
  -3   4   6  264.17    8.50
  -3   4   6  272.77    7.80
  -2   4   6   38.90    3.00
  -2   4   6   38.00    3.50
  -2   4   6   35.00    3.60
   1  -4  -6   30.40    2.60
  -1   4   6   33.00    3.60
  -1   4   6   23.90    2.70
   0  -4  -6  206.68    6.80
   0   4   6  209.18    7.40
   0   4   6  207.58    7.60
  -4   5   6   25.10    3.00
  -4   5   6   27.00    3.20
  -3   5   6  989.30   26.00
  -3   5   6  993.50   25.80
  -2   5   6  274.77    9.20
  -2   5   6  282.47    9.30
  -4  -6   7   63.59    5.60
  -4  -6   7   74.79    5.10
  -3  -6   7   20.90    3.00
  -2  -6   7   27.50    3.20
  -1  -6   7   14.60    2.70
   0   6  -7    3.60    1.70
   0  -6   7    5.60    2.30
   0  -6   7    0.20    2.60
   1  -6   7    3.60    3.00
   1  -6   7    7.00    2.10
  -5  -5   7   58.39    4.70
  -5  -5   7   57.79    4.70
  -4  -5   7   12.70    2.50
  -4  -5   7   11.90    2.40
  -3  -5   7   85.09    4.60
  -2  -5   7    7.70    2.40
   1   5  -7  124.59    4.30
  -1  -5   7  141.69    5.20
  -1  -5   7  138.59    5.80
   0   5  -7    0.70    1.70
   0  -5   7   -0.40    2.20
   0  -5   7    1.40    2.00
  -1   5  -7   25.30    3.60
   1  -5   7   20.60    3.10
   1  -5   7   21.20    2.40
  -5  -4   7  234.08    7.30
  -5  -4   7  231.88    7.80
  -4  -4   7   35.10    2.90
  -4  -4   7   41.90    3.60
  -3  -4   7   78.59    4.10
   2   4  -7    1.50    1.40
  -2  -4   7    2.90    1.70
  -2  -4   7    2.20    1.60
   1   4  -7   16.50    2.00
   1   4  -7   11.20    1.90
  -1  -4   7   22.40    2.70
  -1  -4   7   25.20    3.10
   0   4  -7   13.60    2.10
   0  -4   7   11.90    2.10
  -1   4  -7   43.90    3.80
   1  -4   7   40.40    3.60
   1  -4   7   53.09    4.20
  -2   4  -7    1.90    3.00
   2  -4   7    0.90    2.90
   2  -4   7   -3.10    2.20
  -6  -3   7    9.40    2.00
  -6  -3   7    6.70    2.60
  -5  -3   7    7.60    1.50
  -5  -3   7   11.80    2.40
  -4  -3   7   19.10    2.30
  -3  -3   7   38.10    3.00
  -3  -3   7   35.20    2.90
   2   3  -7   53.29    2.40
   2   3  -7   55.99    2.50
  -2  -3   7   54.69    3.20
  -2  -3   7   59.69    3.40
   1   3  -7   26.40    2.20
   1   3  -7   23.40    2.20
  -1  -3   7   26.40    2.80
  -1  -3   7   21.60    1.90
  -1  -3   7   22.60    2.70
   0   3  -7   84.19    3.90
   0   3  -7   68.59    4.50
   0  -3   7   78.39    4.00
   0  -3   7   76.29    4.80
  -1   3  -7    0.20    2.20
  -1   3  -7   -0.60    1.70
   1  -3   7   -0.20    2.30
   1  -3   7   -0.60    1.90
  -2   3  -7   72.89    5.60
  -2   3  -7   55.19    5.10
   2  -3   7   70.79    3.90
   2  -3   7   84.29    5.40
  -6  -2   7  153.28    6.00
  -6  -2   7  142.79    5.90
  -5  -2   7  261.87    7.90
  -5  -2   7  270.27    7.90
  -5  -2   7  225.18    6.70
  -4  -2   7    1.70    1.50
  -4  -2   7    2.30    1.50
  -3  -2   7    1.60    1.50
  -3  -2   7    4.10    1.70
   2   2  -7   33.10    2.00
  -2  -2   7   27.80    1.70
  -2  -2   7   32.00    2.80
  -2  -2   7   34.90    2.80
   1   2  -7   17.10    2.40
   1   2  -7   18.00    1.70
  -1  -2   7   18.30    2.10
  -1  -2   7   16.60    1.70
  -1  -2   7   13.50    1.90
   0   2  -7   99.39    3.40
   0   2  -7  101.89    4.50
   0   2  -7   80.39    4.10
   0  -2   7  106.89    4.30
   0  -2   7   88.99    5.60
  -1   2  -7  107.19    5.20
  -1   2  -7   97.29    4.40
   1  -2   7  105.59    4.60
   1  -2   7  102.89    5.30
  -2   2  -7    7.60    2.40
  -2   2  -7    3.70    3.10
   2  -2   7    4.50    2.20
   2  -2   7    7.80    3.30
  -6  -1   7   84.09    4.40
  -6  -1   7   78.19    4.60
  -5  -1   7    1.30    1.50
  -5  -1   7   -0.30    2.00
  -4  -1   7  170.78    5.80
  -4  -1   7  172.58    5.90
  -3  -1   7    8.20    1.60
  -3  -1   7    7.20    1.00
  -3  -1   7    6.20    1.60
   2   1  -7  544.15   13.90
  -2  -1   7  502.35   13.50
  -2  -1   7  545.65   14.40
  -2  -1   7  553.44   14.40
   1   1  -7    4.00    1.70
  -1  -1   7    3.00    1.60
  -1  -1   7    1.90    1.40
   0   1  -7  205.18    6.00
   0   1  -7  215.18    7.20
   0  -1   7  220.08    7.00
   0  -1   7  197.28    7.70
  -1   1  -7    8.40    3.80
  -1   1  -7    5.20    1.90
   1  -1   7    5.70    2.50
   1  -1   7   11.30    2.10
  -2   1  -7   49.20    5.90
  -2   1  -7   35.50    4.30
   2  -1   7   37.70    4.00
   2  -1   7   43.90    5.10
  -6   0   7   36.80    3.70
  -6   0   7   37.50    4.00
  -5   0   7  248.48    8.70
  -5   0   7  241.38    7.50
  -4   0   7  105.19    4.20
  -4   0   7  100.49    3.40
  -4   0   7  106.99    4.50
  -3   0   7    3.10    1.50
  -3   0   7    6.60    1.30
  -3   0   7    3.40    1.60
  -2   0   7  199.38    6.40
  -2   0   7  185.18    5.70
  -2   0   7  200.98    6.40
   1   0  -7    4.30    1.90
  -1   0   7    4.90    1.80
  -1   0   7    5.80    1.70
   0   0  -7  577.34   15.40
   0   0  -7  619.64   16.50
   0   0   7  611.34   16.20
   0   0   7  614.64   16.50
  -1   0  -7   95.69    5.70
  -1   0  -7   86.49    4.10
   1   0   7   74.09    5.60
   1   0   7   86.29    5.10
  -6   1   7  101.79    4.50
  -6   1   7  116.89    5.50
  -6   1   7  116.69    5.30
  -6   1   7  107.49    3.70
  -5   1   7   50.29    3.90
  -5   1   7   47.50    3.80
  -5   1   7   49.80    3.30
  -4   1   7  355.86    9.60
  -4   1   7  334.07   12.10
  -4   1   7  322.87    9.20
  -3   1   7   87.59    4.20
  -3   1   7   91.39    4.30
  -3   1   7   89.59    3.90
  -2   1   7  371.96   10.70
  -2   1   7  365.76   10.40
  -2   1   7  359.66   10.80
   1  -1  -7   54.39    4.00
  -1   1   7   49.99    4.90
  -1   1   7   48.80    4.30
  -1   1   7   56.29    3.50
   0  -1  -7   68.49    3.10
   0  -1  -7   60.89    5.20
   0   1   7   79.29    4.10
   0   1   7   74.39    4.70
   0   1   7   77.59    4.60
  -1  -1  -7   19.10    3.50
  -1  -1  -7    9.70    2.10
   1   1   7   12.20    2.70
   1   1   7    9.60    2.20
   1   1   7   18.30    3.20
  -6   2   7   31.50    4.20
  -6   2   7   26.10    3.10
  -6   2   7   23.50    3.00
  -5   2   7   83.49    3.90
  -5   2   7   88.39    4.70
  -5   2   7   82.79    4.50
  -4   2   7   35.10    3.50
  -4   2   7   28.50    3.50
  -4   2   7   33.20    2.90
  -3   2   7   65.99    3.50
  -3   2   7   66.59    4.20
  -3   2   7   69.89    4.10
  -2   2   7   90.69    4.30
  -2   2   7   89.69    4.50
  -2   2   7   89.69    4.60
   1  -2  -7  136.39    7.10
  -1   2   7  147.19    6.00
  -1   2   7  140.39    5.80
  -1   2   7  141.89    5.80
   0  -2  -7  113.19    4.30
   0  -2  -7  117.09    6.50
   0   2   7  114.89    5.40
   0   2   7  115.19    5.50
   0   2   7  115.29    5.70
  -5   3   7  717.13   18.40
  -5   3   7  715.73   19.20
  -5   3   7  720.13   19.50
  -4   3   7  388.16   11.60
  -4   3   7  383.76   11.40
  -4   3   7  385.26   10.70
  -3   3   7  238.98    8.20
  -3   3   7  247.58    8.30
  -3   3   7  243.58    7.60
  -2   3   7   79.99    4.50
  -2   3   7   75.89    4.70
  -1   3   7  288.87    9.40
  -1   3   7  291.97    9.20
  -1   3   7  284.07    9.30
  -4   4   7   30.00    3.60
  -4   4   7   25.60    3.00
  -4   4   7   27.30    3.30
  -3   4   7   29.40    4.00
  -3   4   7   36.80    4.30
  -3   4   7   39.20    3.40
  -2   4   7  148.29    6.00
  -2   4   7  150.48    6.40
  -2   4   7  143.69    6.50
  -4  -5   8   -2.10    2.60
  -3  -5   8   43.30    4.70
  -2  -5   8    1.80    2.70
  -2  -5   8    1.30    2.30
  -1  -5   8   -0.30    2.80
  -1  -5   8   -1.20    2.60
   0   5  -8    9.60    2.20
   0  -5   8    0.90    2.80
   0  -5   8    6.80    3.20
  -5  -4   8    3.70    2.80
  -4  -4   8  107.99    5.40
  -4  -4   8  106.79    5.50
  -3  -4   8   22.90    2.70
  -3  -4   8   20.50    2.80
  -2  -4   8  106.59    5.30
  -2  -4   8  109.19    5.60
   1   4  -8   90.29    3.90
  -1  -4   8   85.69    5.20
  -1  -4   8   91.59    5.10
   0   4  -8   34.40    3.80
   0  -4   8   35.50    4.60
   0  -4   8   23.40    3.50
  -5  -3   8   17.90    2.80
  -5  -3   8   18.90    2.90
  -4  -3   8  103.29    5.20
  -4  -3   8  107.19    5.20
  -3  -3   8  130.79    5.60
  -3  -3   8  123.49    5.50
  -2  -3   8   -1.40    1.90
  -2  -3   8    2.20    2.10
   1   3  -8    4.60    1.30
   1   3  -8    2.70    1.80
  -1  -3   8    2.20    2.50
  -1  -3   8    6.00    2.50
   0   3  -8   13.30    2.70
   0   3  -8   10.60    1.70
   0  -3   8   13.90    3.10
   0  -3   8   13.90    3.30
  -1   3  -8   -0.40    3.20
  -1   3  -8    3.80    2.10
   1  -3   8    2.20    3.40
   1  -3   8   -1.60    3.60
  -5  -2   8    9.90    2.60
  -5  -2   8    9.40    2.50
  -4  -2   8  132.79    5.80
  -4  -2   8  139.19    5.60
  -3  -2   8   -0.10    2.00
  -3  -2   8    1.20    2.00
   2   2  -8  182.98    5.60
  -2  -2   8  181.78    6.50
  -2  -2   8  183.38    6.70
   1   2  -8    6.80    2.10
  -1  -2   8    0.30    2.20
  -1  -2   8    2.30    2.20
   0   2  -8   62.09    4.80
   0   2  -8   68.69    3.20
   0  -2   8   68.99    5.00
   0  -2   8   73.09    4.80
  -1   2  -8   15.60    3.50
  -1   2  -8    7.60    2.20
   1  -2   8    8.80    3.30
   1  -2   8   10.80    2.90
  -6  -1   8  104.69    5.60
  -6  -1   8   91.99    5.30
  -5  -1   8   64.19    4.60
  -5  -1   8   64.59    4.20
  -4  -1   8  572.54   15.60
  -3  -1   8   31.80    3.70
  -3  -1   8   37.90    3.60
   2   1  -8   35.20    3.30
  -2  -1   8   39.60    3.60
  -2  -1   8   33.70    3.80
   1   1  -8   13.20    2.50
  -1  -1   8   13.60    2.70
  -1  -1   8   13.70    2.90
   0   1  -8   49.00    5.90
   0  -1   8   51.99    4.80
   0  -1   8   59.99    4.90
  -6   0   8    6.60    2.60
  -6   0   8    3.10    2.60
  -6   0   8    5.10    2.60
  -5   0   8  150.28    6.00
  -5   0   8  151.48    6.50
  -4   0   8  130.39    5.70
  -4   0   8  129.09    5.40
  -3   0   8  109.79    5.30
  -3   0   8  108.69    5.00
  -2   0   8  105.79    5.00
  -2   0   8  108.99    5.30
   1   0  -8  162.78    6.70
  -1   0   8  170.98    6.80
  -1   0   8  165.28    6.60
   0   0  -8   89.69    6.00
   0   0   8   76.99    5.50
   0   0   8   85.59    5.40
  -5   1   8   55.19    4.00
  -5   1   8   51.79    4.60
  -5   1   8   54.59    4.60
  -4   1   8  133.79    6.00
  -4   1   8  137.09    5.50
  -4   1   8  136.19    6.10
  -3   1   8    2.00    2.10
  -3   1   8    0.10    2.10
  -3   1   8    3.10    2.30
  -2   1   8   -0.20    2.00
  -2   1   8    0.30    2.30
  -2   1   8    2.90    2.50
   1  -1  -8   16.30    3.30
  -1   1   8   17.70    3.20
  -1   1   8   16.00    2.80
  -1   1   8   21.30    3.50
  -5   2   8   -1.90    2.30
  -5   2   8   -2.40    2.30
  -5   2   8    3.80    2.30
  -4   2   8   21.30    3.30
  -4   2   8   15.00    2.80
  -4   2   8   21.80    2.90
  -3   2   8  130.59    6.00
  -3   2   8  128.69    5.60
  -2   2   8    1.60    2.50
  -2   2   8    1.70    2.80
  -2   2   8   -0.40    2.30
  -4  -3   9    2.50    2.90
  -4  -3   9    0.50    2.60
  -3  -3   9   17.50    3.20
  -3  -3   9   20.30    3.30
  -2  -3   9   41.00    4.80
  -2  -3   9   33.60    3.80
  -4  -2   9    4.40    2.80
  -4  -2   9    2.80    2.70
  -3  -2   9   43.10    4.70
  -3  -2   9   38.30    5.00
  -2  -2   9   35.20    4.50
  -2  -2   9   33.90    3.70
  -4  -1   9    6.80    3.00
  -4  -1   9    1.50    2.60
  -3  -1   9   81.89    5.60
  -3  -1   9   81.69    5.10
  -2  -1   9   96.59    6.10
  -2  -1   9   95.39    5.90
  -4   0   9   21.00    3.50
  -4   0   9   25.70    3.20
  -3   0   9   44.10    5.10
  -3   0   9   53.59    4.80
   0   0   0    0.00    0.00

_computing_structure_solution     'SHELXT 2014/5 (Sheldrick, 2014)'
;
_shelx_hkl_checksum              79360
loop_
_space_group_symop_operation_xyz
'x, y, z'
'-x, -y, -z'
loop_
_atom_site_label
_atom_site_type_symbol
_atom_site_fract_x
_atom_site_fract_y
_atom_site_fract_z
_atom_site_U_iso_or_equiv
_atom_site_adp_type
_atom_site_occupancy
_atom_site_site_symmetry_order
_atom_site_calc_flag
_atom_site_refinement_flags_posn
_atom_site_refinement_flags_adp
_atom_site_refinement_flags_occupancy
Cl1 Cl 0.27789(14) 0.21571(9) 0.61707(11) 0.0463(2) Uani 0.8277(15) 1 d . . P
Cl2 Cl 0.79869(16) 0.32666(14) 0.77465(12) 0.0490(3) Uani 0.6723(15) 1 d . . P
O1 O 0.7257(2) 0.8852(2) 0.9109(2) 0.0409(4) Uani 1 1 d . . .
H1 H 0.718826 1.000858 1.004528 0.049 Uiso 1 1 d R U .
O2 O 0.3072(2) 0.8009(2) 0.8052(2) 0.0364(4) Uani 1 1 d . . .
C1 C 0.5013(3) 0.6062(3) 0.6118(3) 0.0248(4) Uani 1 1 d . . .
C2 C 0.5175(6) 0.3849(5) 0.5966(5) 0.0226(6) Uani 0.5 1 d . . P
C4 C 0.6926(6) 0.6123(5) 0.5007(5) 0.0252(7) Uani 0.5 1 d . . P
H4 H 0.862732 0.590714 0.592742 0.030 Uiso 0.5 1 d R U P
C5 C 0.2803(6) 0.5285(5) 0.3741(5) 0.0238(7) Uani 0.5 1 d . . P
H5A H 0.115746 0.454107 0.357570 0.029 Uiso 0.5 1 d R U P
H5AB H 0.262407 0.629126 0.287958 0.029 Uiso 0.5 1 d R U P
C6 C 0.5017(3) 0.7755(2) 0.7872(2) 0.0225(3) Uani 1 1 d . . .
loop_
_atom_site_aniso_label
_atom_site_aniso_U_11
_atom_site_aniso_U_22
_atom_site_aniso_U_33
_atom_site_aniso_U_23
_atom_site_aniso_U_13
_atom_site_aniso_U_12
Cl1 0.0595(4) 0.0315(3) 0.0513(4) -0.0032(3) 0.0376(3) -0.0073(3)
Cl2 0.0533(5) 0.0497(5) 0.0328(4) 0.0004(3) 0.0077(3) 0.0289(4)
O1 0.0246(7) 0.0387(8) 0.0384(7) -0.0254(6) 0.0116(6) 0.0001(5)
O2 0.0258(6) 0.0354(7) 0.0342(7) -0.0190(6) 0.0142(5) 0.0011(5)
C1 0.0216(8) 0.0210(8) 0.0235(8) -0.0110(6) 0.0105(6) 0.0007(6)
C2 0.0244(16) 0.0180(14) 0.0217(14) -0.0033(11) 0.0104(13) 0.0033(12)
C4 0.0271(17) 0.0192(15) 0.0237(15) -0.0090(12) 0.0135(13) -0.0005(12)
C5 0.0240(15) 0.0217(15) 0.0188(14) -0.0060(12) 0.0072(12) 0.0072(12)
C6 0.0238(8) 0.0182(7) 0.0203(7) -0.0062(6) 0.0101(6) 0.0022(6)
loop_
_atom_type_symbol
_atom_type_description
_atom_type_scat_dispersion_real
_atom_type_scat_dispersion_imag
_atom_type_scat_source
C C 0.0033 0.0016 'International Tables Vol C Tables 4.2.6.8 and 6.1.1.4'
H H 0.0000 0.0000 'International Tables Vol C Tables 4.2.6.8 and 6.1.1.4'
Cl Cl 0.1484 0.1585 'International Tables Vol C Tables 4.2.6.8 and 6.1.1.4'
O O 0.0106 0.0060 'International Tables Vol C Tables 4.2.6.8 and 6.1.1.4'
loop_
_geom_angle_atom_site_label_1
_geom_angle_atom_site_label_2
_geom_angle_atom_site_label_3
_geom_angle
_geom_angle_site_symmetry_1
_geom_angle_site_symmetry_3
C4 Cl1 C2 39.51(17) 2_666 .
C5 Cl2 C2 40.82(17) 2_666 .
C5 Cl2 H5AB 16.6(2) 2_666 2_666
C2 Cl2 H5AB 24.2(4) . 2_666
C6 O1 H1 111.6 . .
C2 C1 C2 99.9(2) 2_666 .
C2 C1 C6 129.43(19) 2_666 .
C2 C1 C6 130.69(19) . .
C2 C1 C4 87.82(19) 2_666 2_666
C2 C1 C4 44.08(19) . 2_666
C6 C1 C4 126.11(17) . 2_666
C2 C1 C4 43.96(19) 2_666 .
C2 C1 C4 87.34(19) . .
C6 C1 C4 126.41(17) . .
C4 C1 C4 107.48(17) 2_666 .
C2 C1 C5 87.76(19) 2_666 2_666
C2 C1 C5 44.89(19) . 2_666
C6 C1 C5 126.07(17) . 2_666
C4 C1 C5 85.91(19) 2_666 2_666
C4 C1 C5 52.05(19) . 2_666
C2 C1 C5 44.72(18) 2_666 .
C2 C1 C5 87.19(19) . .
C6 C1 C5 125.60(17) . .
C4 C1 C5 51.99(19) 2_666 .
C4 C1 C5 85.24(18) . .
C5 C1 C5 108.33(16) 2_666 .
C2 C1 C1 50.04(14) 2_666 2_666
C2 C1 C1 49.84(15) . 2_666
C6 C1 C1 179.4(2) . 2_666
C4 C1 C1 53.95(13) 2_666 2_666
C4 C1 C1 53.53(13) . 2_666
C5 C1 C1 54.45(13) 2_666 2_666
C5 C1 C1 53.88(13) . 2_666
C4 C2 C5 137.9(4) 2_666 2_666
C4 C2 C1 74.3(2) 2_666 2_666
C5 C2 C1 74.5(2) 2_666 2_666
C4 C2 C1 73.6(2) 2_666 .
C5 C2 C1 73.7(2) 2_666 .
C1 C2 C1 80.1(2) 2_666 .
C4 C2 Cl2 162.8(3) 2_666 .
C5 C2 Cl2 59.3(2) 2_666 .
C1 C2 Cl2 118.7(2) 2_666 .
C1 C2 Cl2 118.0(2) . .
C4 C2 Cl1 61.4(2) 2_666 .
C5 C2 Cl1 160.7(3) 2_666 .
C1 C2 Cl1 119.7(2) 2_666 .
C1 C2 Cl1 119.5(2) . .
Cl2 C2 Cl1 101.48(18) . .
C4 C2 H5AB 174.1(4) 2_666 2_666
C5 C2 H5AB 47.84(18) 2_666 2_666
C1 C2 H5AB 110.7(3) 2_666 2_666
C1 C2 H5AB 109.9(3) . 2_666
Cl2 C2 H5AB 11.42(18) . 2_666
Cl1 C2 H5AB 112.9(3) . 2_666
C2 C4 C5 112.3(3) 2_666 2_666
C2 C4 C1 62.3(2) 2_666 2_666
C5 C4 C1 65.0(2) 2_666 2_666
C2 C4 Cl1 79.1(3) 2_666 2_666
C5 C4 Cl1 168.5(3) 2_666 2_666
C1 C4 Cl1 124.1(2) 2_666 2_666
C2 C4 C1 61.8(2) 2_666 .
C5 C4 C1 64.2(2) 2_666 .
C1 C4 C1 72.52(17) 2_666 .
Cl1 C4 C1 123.4(2) 2_666 .
C2 C4 H4 170.3 2_666 .
C5 C4 H4 58.1 2_666 .
C1 C4 H4 110.0 2_666 .
Cl1 C4 H4 110.5 2_666 .
C1 C4 H4 111.2 . .
C2 C5 C4 109.8(3) 2_666 2_666
C2 C5 Cl2 79.9(3) 2_666 2_666
C4 C5 Cl2 170.2(3) 2_666 2_666
C2 C5 C1 61.4(2) 2_666 2_666
C4 C5 C1 63.7(2) 2_666 2_666
Cl2 C5 C1 123.9(2) 2_666 2_666
C2 C5 C1 60.7(2) 2_666 .
C4 C5 C1 63.04(19) 2_666 .
Cl2 C5 C1 123.6(2) 2_666 .
C1 C5 C1 71.67(16) 2_666 .
C2 C5 H5A 176.7 2_666 .
C4 C5 H5A 67.1 2_666 .
Cl2 C5 H5A 103.2 2_666 .
C1 C5 H5A 117.1 2_666 .
C1 C5 H5A 116.1 . .
C2 C5 H5AB 69.9 2_666 .
C4 C5 H5AB 179.2 2_666 .
Cl2 C5 H5AB 10.1 2_666 .
C1 C5 H5AB 116.5 2_666 .
C1 C5 H5AB 116.2 . .
H5A C5 H5AB 113.2 . .
O2 C6 O1 125.71(14) . .
O2 C6 C1 121.24(14) . .
O1 C6 C1 113.06(13) . .
loop_
_geom_bond_atom_site_label_1
_geom_bond_atom_site_label_2
_geom_bond_distance
_geom_bond_site_symmetry_2
Cl1 C4 1.594(4) 2_666
Cl1 C2 1.784(3) .
Cl2 C5 1.555(4) 2_666
Cl2 C2 1.781(3) .
Cl2 H5AB 0.605(3) 2_666
O1 C6 1.295(2) .
O1 H1 0.9223 .
O2 C6 1.213(2) .
C1 C2 1.466(4) 2_666
C1 C2 1.471(3) .
C1 C6 1.4960(19) .
C1 C4 1.594(3) 2_666
C1 C4 1.602(4) .
C1 C5 1.609(3) 2_666
C1 C5 1.620(3) .
C1 C1 1.890(3) 2_666
C2 C4 1.156(5) 2_666
C2 C5 1.183(5) 2_666
C2 H5AB 1.254(5) 2_666
C4 C5 1.409(5) 2_666
C4 H4 1.0000 .
C5 H5A 0.9900 .
C5 H5AB 0.9900 .
loop_
_geom_hbond_atom_site_label_D
_geom_hbond_atom_site_label_H
_geom_hbond_atom_site_label_A
_geom_hbond_distance_DH
_geom_hbond_distance_HA
_geom_hbond_distance_DA
_geom_hbond_angle_DHA
_geom_hbond_site_symmetry_A
_geom_hbond_publ_flag
O1 H1 O2 0.92 1.75 2.6640(17) 173.2 2_677 yes
